CHEMBL3651197 PubChem-59837776


 36 40  0  0  0  0  0  0  0  0999 V2000
  -41.5319  -17.9674    2.7162 C   0  0  0  0  0  0  0  0  0  0  0  0
  -41.0040  -16.7827    3.2529 C   0  0  0  0  0  0  0  0  0  0  0  0
  -41.6705  -15.5642    3.0882 C   0  0  0  0  0  0  0  0  0  0  0  0
  -42.8807  -15.5266    2.3776 C   0  0  0  0  0  0  0  0  0  0  0  0
  -43.4110  -16.7117    1.8391 C   0  0  0  0  0  0  0  0  0  0  0  0
  -42.7410  -17.9245    2.0074 C   0  0  0  0  0  0  0  0  0  0  0  0
  -44.5807  -16.6550    1.1557 N   0  0  0  0  0  0  0  0  0  0  0  0
  -45.2234  -15.4973    0.9928 N   0  0  0  0  0  0  0  0  0  0  0  0
  -44.7281  -14.3393    1.5053 C   0  0  0  0  0  0  0  0  0  0  0  0
  -43.5570  -14.3628    2.1959 N   0  0  0  0  0  0  0  0  0  0  0  0
  -41.0766  -14.3287    3.6740 C   0  0  0  0  0  0  0  0  0  0  0  0
  -41.6104  -19.3998    5.3104 C   0  0  0  0  0  0  0  0  0  0  0  0
  -40.8419  -19.9244    4.1431 C   0  0  0  0  0  0  0  0  0  0  0  0
  -40.8165  -19.2531    2.8964 C   0  0  0  0  0  0  0  0  0  0  0  0
  -40.0944  -19.8331    1.8250 C   0  0  0  0  0  0  0  0  0  0  0  0
  -39.4215  -21.0442    2.0066 C   0  0  0  0  0  0  0  0  0  0  0  0
  -39.4571  -21.6954    3.2384 C   0  0  0  0  0  0  0  0  0  0  0  0
  -40.1658  -21.1370    4.3008 C   0  0  0  0  0  0  0  0  0  0  0  0
  -39.9858  -19.1706    0.4918 C   0  0  0  0  0  0  0  0  0  0  0  0
  -45.4521  -13.1180    1.3052 N   0  0  0  0  0  0  0  0  0  0  0  0
  -46.4340  -13.1884    1.2987 H   0  0  0  0  0  0  0  0  0  0  0  0
  -44.9066  -11.8048    1.1134 C   0  0  0  0  0  0  0  0  0  0  0  0
  -43.7766  -11.3570    1.8123 C   0  0  0  0  0  0  0  0  0  0  0  0
  -43.2748  -10.0723    1.5951 C   0  0  0  0  0  0  0  0  0  0  0  0
  -43.9018   -9.2246    0.6792 C   0  0  0  0  0  0  0  0  0  0  0  0
  -45.0390   -9.6508   -0.0219 C   0  0  0  0  0  0  0  0  0  0  0  0
  -45.5267  -10.9479    0.1979 C   0  0  0  0  0  0  0  0  0  0  0  0
  -45.6998   -8.7734   -1.0156 C   0  0  0  0  0  0  0  0  0  0  0  0
  -45.5178   -9.0000   -2.2439 O   0  0  0  0  0  0  0  0  0  0  0  0
  -46.5237   -7.6621   -0.6207 N   0  0  0  0  0  0  0  0  0  0  0  0
  -46.8326   -6.6182   -1.5968 C   0  0  0  0  0  0  0  0  0  0  0  0
  -47.0391   -5.2882   -0.8756 C   0  0  0  0  0  0  0  0  0  0  0  0
  -48.0551   -5.4383    0.1638 N   0  0  0  0  0  0  0  0  0  0  0  0
  -47.5432   -6.3591    1.1762 C   0  0  0  0  0  0  0  0  0  0  0  0
  -47.3671   -7.7495    0.5710 C   0  0  0  0  0  0  0  0  0  0  0  0
  -48.1894   -4.1440    0.8066 C   0  0  0  0  0  0  0  0  0  0  0  0
 12 13  1  0  0  0
 13 14  2  0  0  0
 14 15  1  0  0  0
 14  1  1  0  0  0
 15 16  2  0  0  0
 15 19  1  0  0  0
 16 17  1  0  0  0
 17 18  2  0  0  0
 18 13  1  0  0  0
  1  2  2  0  0  0
  2  3  1  0  0  0
  3  4  2  0  0  0
  3 11  1  0  0  0
  4  5  1  0  0  0
  5  6  2  0  0  0
  5  7  1  0  0  0
  6  1  1  0  0  0
  7  8  2  0  0  0
  8  9  1  0  0  0
  9 10  2  0  0  0
  9 20  1  0  0  0
 10  4  1  0  0  0
 20 22  1  0  0  0
 22 23  2  0  0  0
 23 24  1  0  0  0
 24 25  2  0  0  0
 25 26  1  0  0  0
 26 27  2  0  0  0
 26 28  1  0  0  0
 27 22  1  0  0  0
 28 29  2  0  0  0
 28 30  1  0  0  0
 30 31  1  0  0  0
 31 32  1  0  0  0
 32 33  1  0  0  0
 33 34  1  0  0  0
 33 36  1  0  0  0
 34 35  1  0  0  0
 35 30  1  0  0  0
 20 21  1  0  0  0
M  END
>  <minimizedAffinity>
-11.67219

>  <minimizedRMSD>
1.39591

$$$$