CHEMBL1784625 PubChem-54584313


 37 40  0  0  0  0  0  0  0  0999 V2000
   15.7200   -8.2540   16.9258 C   0  0  0  0  0  0  0  0  0  0  0  0
   15.0039   -7.3815   16.3576 O   0  0  0  0  0  0  0  0  0  0  0  0
   15.7970   -8.3158   18.3580 N   0  0  0  0  0  0  0  0  0  0  0  0
   16.5127   -8.8741   18.7393 H   0  0  0  0  0  0  0  0  0  0  0  0
   18.6356  -12.0977   13.7556 C   0  0  0  0  0  0  0  0  0  0  0  0
   17.8944  -11.0731   14.5477 C   0  0  0  0  0  0  0  0  0  0  0  0
   17.7314  -11.2859   15.9224 C   0  0  0  0  0  0  0  0  0  0  0  0
   17.0344  -10.3603   16.7003 C   0  0  0  0  0  0  0  0  0  0  0  0
   16.4888   -9.2111   16.1119 C   0  0  0  0  0  0  0  0  0  0  0  0
   16.6501   -9.0030   14.7342 C   0  0  0  0  0  0  0  0  0  0  0  0
   17.3603   -9.9172   13.9511 C   0  0  0  0  0  0  0  0  0  0  0  0
   17.4753   -9.6795   12.5363 C   0  0  0  0  0  0  0  0  0  0  0  0
   17.5736   -9.4624   11.3547 C   0  0  0  0  0  0  0  0  0  0  0  0
   17.6920   -9.1874    9.9494 C   0  0  0  0  0  0  0  0  0  0  0  0
   16.8853   -9.8607    9.0297 C   0  0  0  0  0  0  0  0  0  0  0  0
   17.0171   -9.5943    7.6647 C   0  0  0  0  0  0  0  0  0  0  0  0
   17.9596   -8.6538    7.2392 C   0  0  0  0  0  0  0  0  0  0  0  0
   18.7347   -8.0062    8.1497 N   0  0  0  0  0  0  0  0  0  0  0  0
   18.6205   -8.2518    9.4869 C   0  0  0  0  0  0  0  0  0  0  0  0
   14.9365   -7.6462   19.2888 C   0  0  0  0  0  0  0  0  0  0  0  0
   15.1779   -7.7949   20.6552 C   0  0  0  0  0  0  0  0  0  0  0  0
   14.3304   -7.2000   21.5885 C   0  0  0  0  0  0  0  0  0  0  0  0
   13.2243   -6.4527   21.1696 C   0  0  0  0  0  0  0  0  0  0  0  0
   12.9604   -6.3012   19.7878 C   0  0  0  0  0  0  0  0  0  0  0  0
   13.8313   -6.8975   18.8649 C   0  0  0  0  0  0  0  0  0  0  0  0
   11.7937   -5.4880   19.2786 C   0  0  0  0  0  0  0  0  0  0  0  0
   10.5993   -6.0971   19.6293 F   0  0  0  0  0  0  0  0  0  0  0  0
   11.8336   -5.3708   17.8986 F   0  0  0  0  0  0  0  0  0  0  0  0
   11.8429   -4.2200   19.8275 F   0  0  0  0  0  0  0  0  0  0  0  0
   12.3456   -5.8516   22.2153 C   0  0  0  0  0  0  0  0  0  0  0  0
   13.1283   -5.4571   23.3735 N   0  0  0  0  0  0  0  0  0  0  0  0
   13.6391   -4.1193   23.0975 C   0  0  0  0  0  0  0  0  0  0  0  0
   14.4731   -3.6109   24.2796 C   0  0  0  0  0  0  0  0  0  0  0  0
   14.1615   -4.3185   25.5309 N   0  0  0  0  0  0  0  0  0  0  0  0
   14.5469   -3.4306   26.6101 C   0  0  0  0  0  0  0  0  0  0  0  0
   12.7177   -4.5056   25.6445 C   0  0  0  0  0  0  0  0  0  0  0  0
   12.1960   -5.3947   24.5053 C   0  0  0  0  0  0  0  0  0  0  0  0
  5  6  1  0  0  0
  6  7  2  0  0  0
  7  8  1  0  0  0
  8  9  2  0  0  0
  9  1  1  0  0  0
  9 10  1  0  0  0
  1  2  2  0  0  0
  1  3  1  0  0  0
  3 20  1  0  0  0
 20 21  2  0  0  0
 21 22  1  0  0  0
 22 23  2  0  0  0
 23 30  1  0  0  0
 23 24  1  0  0  0
 30 31  1  0  0  0
 31 32  1  0  0  0
 32 33  1  0  0  0
 33 34  1  0  0  0
 34 35  1  0  0  0
 34 36  1  0  0  0
 36 37  1  0  0  0
 37 31  1  0  0  0
 24 26  1  0  0  0
 24 25  2  0  0  0
 26 27  1  0  0  0
 26 28  1  0  0  0
 26 29  1  0  0  0
 25 20  1  0  0  0
 10 11  2  0  0  0
 11 12  1  0  0  0
 11  6  1  0  0  0
 12 13  3  0  0  0
 13 14  1  0  0  0
 14 15  2  0  0  0
 15 16  1  0  0  0
 16 17  2  0  0  0
 17 18  1  0  0  0
 18 19  2  0  0  0
 19 14  1  0  0  0
  3  4  1  0  0  0
M  END
>  <minimizedAffinity>
-12.70168

>  <minimizedRMSD>
0.99277

$$$$
CHEMBL4074329 PubChem-137640970


 37 40  0  0  0  0  0  0  0  0999 V2000
   15.7542   -8.3942   16.7358 C   0  0  0  0  0  0  0  0  0  0  0  0
   15.1304   -7.4364   16.2026 O   0  0  0  0  0  0  0  0  0  0  0  0
   15.7031   -8.5993   18.1562 N   0  0  0  0  0  0  0  0  0  0  0  0
   16.2132   -9.3637   18.5094 H   0  0  0  0  0  0  0  0  0  0  0  0
   16.5426   -9.3110   15.8937 C   0  0  0  0  0  0  0  0  0  0  0  0
   16.7084   -9.0525   14.5259 C   0  0  0  0  0  0  0  0  0  0  0  0
   17.4548   -9.9187   13.7206 C   0  0  0  0  0  0  0  0  0  0  0  0
   18.0464  -11.0631   14.2893 C   0  0  0  0  0  0  0  0  0  0  0  0
   17.8819  -11.3218   15.6530 C   0  0  0  0  0  0  0  0  0  0  0  0
   17.1349  -10.4519   16.4509 C   0  0  0  0  0  0  0  0  0  0  0  0
   18.8513  -12.0177   13.4724 C   0  0  0  0  0  0  0  0  0  0  0  0
   17.5968   -9.6125   12.3204 C   0  0  0  0  0  0  0  0  0  0  0  0
   17.7154   -9.3567   11.1481 C   0  0  0  0  0  0  0  0  0  0  0  0
   17.8568   -9.0525    9.7529 C   0  0  0  0  0  0  0  0  0  0  0  0
   17.1229   -9.7692    8.8043 C   0  0  0  0  0  0  0  0  0  0  0  0
   17.2726   -9.4600    7.4510 C   0  0  0  0  0  0  0  0  0  0  0  0
   18.1487   -8.4445    7.0626 C   0  0  0  0  0  0  0  0  0  0  0  0
   18.8649   -7.7509    8.0410 C   0  0  0  0  0  0  0  0  0  0  0  0
   18.7058   -8.0664    9.3549 N   0  0  0  0  0  0  0  0  0  0  0  0
   14.9874   -7.8080   19.1143 C   0  0  0  0  0  0  0  0  0  0  0  0
   13.8723   -7.0386   18.7566 C   0  0  0  0  0  0  0  0  0  0  0  0
   13.1816   -6.2729   19.7084 C   0  0  0  0  0  0  0  0  0  0  0  0
   13.6345   -6.2789   21.0480 C   0  0  0  0  0  0  0  0  0  0  0  0
   14.7502   -7.0456   21.4009 C   0  0  0  0  0  0  0  0  0  0  0  0
   15.4200   -7.8061   20.4414 C   0  0  0  0  0  0  0  0  0  0  0  0
   11.9944   -5.4490   19.2729 C   0  0  0  0  0  0  0  0  0  0  0  0
   11.7993   -5.5421   17.9046 F   0  0  0  0  0  0  0  0  0  0  0  0
   12.2071   -4.1222   19.5977 F   0  0  0  0  0  0  0  0  0  0  0  0
   10.8499   -5.8972   19.9076 F   0  0  0  0  0  0  0  0  0  0  0  0
   12.9710   -5.4629   22.1133 C   0  0  0  0  0  0  0  0  0  0  0  0
   13.9229   -4.5334   22.7043 N   0  0  0  0  0  0  0  0  0  0  0  0
   14.9576   -5.3334   23.3761 C   0  0  0  0  0  0  0  0  0  0  0  0
   15.5418   -4.5934   24.5787 C   0  0  0  0  0  0  0  0  0  0  0  0
   14.5247   -4.3672   25.6137 N   0  0  0  0  0  0  0  0  0  0  0  0
   13.1683   -4.1880   25.0704 C   0  0  0  0  0  0  0  0  0  0  0  0
   13.1713   -3.6644   23.6254 C   0  0  0  0  0  0  0  0  0  0  0  0
   14.8837   -3.1383   26.2996 C   0  0  0  0  0  0  0  0  0  0  0  0
  1  2  2  0  0  0
  1  5  1  0  0  0
  5  6  2  0  0  0
  6  7  1  0  0  0
  7  8  2  0  0  0
  8  9  1  0  0  0
  9 10  2  0  0  0
  8 11  1  0  0  0
  7 12  1  0  0  0
 12 13  3  0  0  0
 13 14  1  0  0  0
 14 15  2  0  0  0
 15 16  1  0  0  0
 16 17  2  0  0  0
 17 18  1  0  0  0
 18 19  2  0  0  0
  1  3  1  0  0  0
  3 20  1  0  0  0
 20 21  2  0  0  0
 21 22  1  0  0  0
 22 23  2  0  0  0
 23 24  1  0  0  0
 24 25  2  0  0  0
 23 30  1  0  0  0
 30 31  1  0  0  0
 31 32  1  0  0  0
 32 33  1  0  0  0
 33 34  1  0  0  0
 34 35  1  0  0  0
 35 36  1  0  0  0
 34 37  1  0  0  0
 22 26  1  0  0  0
 26 27  1  0  0  0
 26 28  1  0  0  0
 26 29  1  0  0  0
 10  5  1  0  0  0
 19 14  1  0  0  0
 25 20  1  0  0  0
 36 31  1  0  0  0
  3  4  1  0  0  0
M  END
>  <minimizedAffinity>
-12.20286

>  <minimizedRMSD>
1.44939

$$$$
CHEMBL1784632 PubChem-24863033


 37 40  0  0  0  0  0  0  0  0999 V2000
   15.6746   -8.3161   16.7190 C   0  0  0  0  0  0  0  0  0  0  0  0
   14.9061   -7.4903   16.1548 O   0  0  0  0  0  0  0  0  0  0  0  0
   15.6374   -8.4940   18.1433 N   0  0  0  0  0  0  0  0  0  0  0  0
   16.2660   -9.1506   18.5214 H   0  0  0  0  0  0  0  0  0  0  0  0
   19.3484  -11.4832   13.5823 C   0  0  0  0  0  0  0  0  0  0  0  0
   18.3922  -10.6479   14.3655 C   0  0  0  0  0  0  0  0  0  0  0  0
   18.3959  -10.7539   15.7596 C   0  0  0  0  0  0  0  0  0  0  0  0
   17.5134   -9.9905   16.5271 C   0  0  0  0  0  0  0  0  0  0  0  0
   16.6148   -9.1109   15.9091 C   0  0  0  0  0  0  0  0  0  0  0  0
   16.6114   -9.0058   14.5109 C   0  0  0  0  0  0  0  0  0  0  0  0
   17.4925   -9.7664   13.7357 C   0  0  0  0  0  0  0  0  0  0  0  0
   17.4525   -9.6249   12.3030 C   0  0  0  0  0  0  0  0  0  0  0  0
   17.4184   -9.5062   11.1038 C   0  0  0  0  0  0  0  0  0  0  0  0
   17.3786   -9.3652    9.6728 C   0  0  0  0  0  0  0  0  0  0  0  0
   16.4852   -9.9850    8.8291 C   0  0  0  0  0  0  0  0  0  0  0  0
   16.7803   -9.6017    7.5665 N   0  0  0  0  0  0  0  0  0  0  0  0
   17.8377   -8.7659    7.6670 C   0  0  0  0  0  0  0  0  0  0  0  0
   18.2148   -8.6096    8.9466 N   0  0  0  0  0  0  0  0  0  0  0  0
   19.3176   -7.7922    9.4227 C   0  0  0  0  0  0  0  0  0  0  0  0
   14.7817   -7.8166   19.0735 C   0  0  0  0  0  0  0  0  0  0  0  0
   15.0626   -7.9130   20.4374 C   0  0  0  0  0  0  0  0  0  0  0  0
   14.2517   -7.2681   21.3722 C   0  0  0  0  0  0  0  0  0  0  0  0
   13.1457   -6.5191   20.9567 C   0  0  0  0  0  0  0  0  0  0  0  0
   12.8465   -6.4139   19.5789 C   0  0  0  0  0  0  0  0  0  0  0  0
   13.6760   -7.0654   18.6535 C   0  0  0  0  0  0  0  0  0  0  0  0
   11.6772   -5.6007   19.0800 C   0  0  0  0  0  0  0  0  0  0  0  0
   10.5737   -5.8180   19.8854 F   0  0  0  0  0  0  0  0  0  0  0  0
   11.3450   -5.9497   17.7814 F   0  0  0  0  0  0  0  0  0  0  0  0
   12.0033   -4.2572   19.1064 F   0  0  0  0  0  0  0  0  0  0  0  0
   12.3272   -5.8242   21.9991 C   0  0  0  0  0  0  0  0  0  0  0  0
   12.7909   -4.4510   22.1706 N   0  0  0  0  0  0  0  0  0  0  0  0
   11.7096   -3.6409   22.7519 C   0  0  0  0  0  0  0  0  0  0  0  0
   11.4027   -3.9863   24.2241 C   0  0  0  0  0  0  0  0  0  0  0  0
   12.4682   -4.7626   24.8600 N   0  0  0  0  0  0  0  0  0  0  0  0
   12.3288   -4.5698   26.2914 C   0  0  0  0  0  0  0  0  0  0  0  0
   13.7543   -4.1947   24.4806 C   0  0  0  0  0  0  0  0  0  0  0  0
   14.0133   -4.4568   22.9939 C   0  0  0  0  0  0  0  0  0  0  0  0
  5  6  1  0  0  0
  6  7  2  0  0  0
  7  8  1  0  0  0
  8  9  2  0  0  0
  9  1  1  0  0  0
  9 10  1  0  0  0
  1  2  2  0  0  0
  1  3  1  0  0  0
  3 20  1  0  0  0
 20 21  2  0  0  0
 21 22  1  0  0  0
 22 23  2  0  0  0
 23 30  1  0  0  0
 23 24  1  0  0  0
 30 31  1  0  0  0
 31 32  1  0  0  0
 32 33  1  0  0  0
 33 34  1  0  0  0
 34 35  1  0  0  0
 34 36  1  0  0  0
 36 37  1  0  0  0
 37 31  1  0  0  0
 24 26  1  0  0  0
 24 25  2  0  0  0
 26 27  1  0  0  0
 26 28  1  0  0  0
 26 29  1  0  0  0
 25 20  1  0  0  0
 10 11  2  0  0  0
 11 12  1  0  0  0
 11  6  1  0  0  0
 12 13  3  0  0  0
 13 14  1  0  0  0
 14 15  2  0  0  0
 15 16  1  0  0  0
 16 17  2  0  0  0
 17 18  1  0  0  0
 18 19  1  0  0  0
 18 14  1  0  0  0
  3  4  1  0  0  0
M  END
>  <minimizedAffinity>
-11.81098

>  <minimizedRMSD>
1.28447

$$$$
CHEMBL4097771 PubChem-137661788


 34 37  0  0  0  0  0  0  0  0999 V2000
   15.7251   -8.3351   16.9777 C   0  0  0  0  0  0  0  0  0  0  0  0
   15.0566   -7.4154   16.4315 O   0  0  0  0  0  0  0  0  0  0  0  0
   15.7443   -8.4752   18.4068 N   0  0  0  0  0  0  0  0  0  0  0  0
   16.2898   -9.2101   18.7696 H   0  0  0  0  0  0  0  0  0  0  0  0
   16.4938   -9.2743   16.1422 C   0  0  0  0  0  0  0  0  0  0  0  0
   16.6337   -9.0487   14.7658 C   0  0  0  0  0  0  0  0  0  0  0  0
   17.3608   -9.9371   13.9670 C   0  0  0  0  0  0  0  0  0  0  0  0
   17.9584  -11.0706   14.5505 C   0  0  0  0  0  0  0  0  0  0  0  0
   17.8196  -11.2966   15.9228 C   0  0  0  0  0  0  0  0  0  0  0  0
   17.0922  -10.4046   16.7143 C   0  0  0  0  0  0  0  0  0  0  0  0
   18.7423  -12.0485   13.7407 C   0  0  0  0  0  0  0  0  0  0  0  0
   17.4704   -9.6692   12.5560 C   0  0  0  0  0  0  0  0  0  0  0  0
   17.5650   -9.4410   11.3757 C   0  0  0  0  0  0  0  0  0  0  0  0
   17.6801   -9.1655    9.9717 C   0  0  0  0  0  0  0  0  0  0  0  0
   16.8694   -9.8345    9.0526 C   0  0  0  0  0  0  0  0  0  0  0  0
   16.9938   -9.5600    7.6889 C   0  0  0  0  0  0  0  0  0  0  0  0
   17.9330   -8.6159    7.2664 C   0  0  0  0  0  0  0  0  0  0  0  0
   18.7140   -7.9745    8.1779 N   0  0  0  0  0  0  0  0  0  0  0  0
   18.6075   -8.2281    9.5105 C   0  0  0  0  0  0  0  0  0  0  0  0
   15.0532   -7.6582   19.3614 C   0  0  0  0  0  0  0  0  0  0  0  0
   13.7403   -7.2128   19.1462 C   0  0  0  0  0  0  0  0  0  0  0  0
   13.0955   -6.4187   20.0986 C   0  0  0  0  0  0  0  0  0  0  0  0
   13.7611   -6.0683   21.2822 C   0  0  0  0  0  0  0  0  0  0  0  0
   15.0721   -6.5047   21.4964 C   0  0  0  0  0  0  0  0  0  0  0  0
   15.7128   -7.2983   20.5409 C   0  0  0  0  0  0  0  0  0  0  0  0
   11.8276   -5.9961   19.8667 F   0  0  0  0  0  0  0  0  0  0  0  0
   13.1014   -5.1995   22.2998 C   0  0  0  0  0  0  0  0  0  0  0  0
   13.9308   -5.1162   23.4898 N   0  0  0  0  0  0  0  0  0  0  0  0
   14.3172   -3.7131   23.6394 C   0  0  0  0  0  0  0  0  0  0  0  0
   14.7982   -3.3783   25.0670 C   0  0  0  0  0  0  0  0  0  0  0  0
   15.0542   -4.5649   25.8982 N   0  0  0  0  0  0  0  0  0  0  0  0
   13.9376   -5.5248   25.8984 C   0  0  0  0  0  0  0  0  0  0  0  0
   13.0911   -5.4828   24.6214 C   0  0  0  0  0  0  0  0  0  0  0  0
   16.2540   -5.2396   25.4219 C   0  0  0  0  0  0  0  0  0  0  0  0
  1  2  2  0  0  0
  1  5  1  0  0  0
  5  6  2  0  0  0
  6  7  1  0  0  0
  7  8  2  0  0  0
  8  9  1  0  0  0
  9 10  2  0  0  0
  8 11  1  0  0  0
  7 12  1  0  0  0
 12 13  3  0  0  0
 13 14  1  0  0  0
 14 15  2  0  0  0
 15 16  1  0  0  0
 16 17  2  0  0  0
 17 18  1  0  0  0
 18 19  2  0  0  0
  1  3  1  0  0  0
  3 20  1  0  0  0
 20 21  2  0  0  0
 21 22  1  0  0  0
 22 23  2  0  0  0
 23 24  1  0  0  0
 24 25  2  0  0  0
 23 27  1  0  0  0
 27 28  1  0  0  0
 28 29  1  0  0  0
 29 30  1  0  0  0
 30 31  1  0  0  0
 31 32  1  0  0  0
 32 33  1  0  0  0
 31 34  1  0  0  0
 22 26  1  0  0  0
 10  5  1  0  0  0
 19 14  1  0  0  0
 25 20  1  0  0  0
 33 28  1  0  0  0
  3  4  1  0  0  0
M  END
>  <minimizedAffinity>
-11.71744

>  <minimizedRMSD>
1.78140

$$$$
CHEMBL4648787 PubChem-154640792


 33 36  0  0  0  0  0  0  0  0999 V2000
   13.8800   -7.2299   17.8602 N   0  0  0  0  0  0  0  0  0  0  0  0
   14.9992   -7.6997   18.4726 C   0  0  0  0  0  0  0  0  0  0  0  0
   15.1630   -7.5104   19.8073 N   0  0  0  0  0  0  0  0  0  0  0  0
   14.2326   -6.8582   20.5590 C   0  0  0  0  0  0  0  0  0  0  0  0
   13.0680   -6.3664   19.9368 C   0  0  0  0  0  0  0  0  0  0  0  0
   12.9205   -6.5733   18.5595 C   0  0  0  0  0  0  0  0  0  0  0  0
   12.1233   -5.7097   20.6751 N   0  0  0  0  0  0  0  0  0  0  0  0
   12.3056   -5.5289   22.0164 C   0  0  0  0  0  0  0  0  0  0  0  0
   11.4356   -4.9227   22.7030 O   0  0  0  0  0  0  0  0  0  0  0  0
   13.4638   -6.0169   22.6397 C   0  0  0  0  0  0  0  0  0  0  0  0
   13.6205   -5.8430   23.8812 O   0  0  0  0  0  0  0  0  0  0  0  0
   14.4149   -6.6757   21.9080 N   0  0  0  0  0  0  0  0  0  0  0  0
   10.9111   -5.1951   20.0401 C   0  0  0  0  0  0  0  0  0  0  0  0
   15.6127   -7.1679   22.6087 C   0  0  0  0  0  0  0  0  0  0  0  0
   16.7406   -6.1548   22.6036 C   0  0  0  0  0  0  0  0  0  0  0  0
   17.4710   -6.3852   23.9060 C   0  0  0  0  0  0  0  0  0  0  0  0
   16.4197   -6.8702   24.8843 C   0  0  0  0  0  0  0  0  0  0  0  0
   15.3290   -7.5288   24.0584 C   0  0  0  0  0  0  0  0  0  0  0  0
   16.0180   -8.3954   17.7378 N   0  0  0  0  0  0  0  0  0  0  0  0
   16.8044   -8.6992   18.2463 H   0  0  0  0  0  0  0  0  0  0  0  0
   16.0004   -8.6851   16.3594 N   0  0  0  0  0  0  0  0  0  0  0  0
   17.0342   -9.1044   15.7006 C   0  0  0  0  0  0  0  0  0  0  0  0
   16.9632   -9.3918   14.2647 C   0  0  0  0  0  0  0  0  0  0  0  0
   15.8213   -9.0145   13.5522 C   0  0  0  0  0  0  0  0  0  0  0  0
   15.7286   -9.2769   12.1826 C   0  0  0  0  0  0  0  0  0  0  0  0
   16.7805   -9.9211   11.5109 C   0  0  0  0  0  0  0  0  0  0  0  0
   17.9216  -10.2971   12.2269 C   0  0  0  0  0  0  0  0  0  0  0  0
   18.0148  -10.0349   13.5967 C   0  0  0  0  0  0  0  0  0  0  0  0
   16.7219  -10.1999   10.1394 O   0  0  0  0  0  0  0  0  0  0  0  0
   17.2039   -9.3229    9.1234 C   0  0  0  0  0  0  0  0  0  0  0  0
   16.1454   -8.8245    8.3852 F   0  0  0  0  0  0  0  0  0  0  0  0
   18.0459  -10.0253    8.2834 F   0  0  0  0  0  0  0  0  0  0  0  0
   17.9076   -8.2773    9.6937 F   0  0  0  0  0  0  0  0  0  0  0  0
  1  2  2  0  0  0
  2  3  1  0  0  0
  3  4  2  0  0  0
  4  5  1  0  0  0
  5  6  2  0  0  0
  5  7  1  0  0  0
  7  8  1  0  0  0
  8  9  2  0  0  0
  8 10  1  0  0  0
 10 11  2  0  0  0
 10 12  1  0  0  0
 12 14  1  0  0  0
 14 15  1  0  0  0
 15 16  1  0  0  0
 16 17  1  0  0  0
 17 18  1  0  0  0
  7 13  1  0  0  0
  2 19  1  0  0  0
 19 21  1  0  0  0
 21 22  2  0  0  0
 22 23  1  0  0  0
 23 24  2  0  0  0
 24 25  1  0  0  0
 25 26  2  0  0  0
 26 27  1  0  0  0
 27 28  2  0  0  0
 26 29  1  0  0  0
 29 30  1  0  0  0
 30 31  1  0  0  0
 30 32  1  0  0  0
 30 33  1  0  0  0
  6  1  1  0  0  0
 18 14  1  0  0  0
 28 23  1  0  0  0
 12  4  1  0  0  0
 19 20  1  0  0  0
M  END
>  <minimizedAffinity>
-11.36952

>  <minimizedRMSD>
1.91714

$$$$
CHEMBL1784631 PubChem-54586231


 37 40  0  0  0  0  0  0  0  0999 V2000
   15.5744   -8.3157   16.9632 C   0  0  0  0  0  0  0  0  0  0  0  0
   14.9646   -7.3609   16.4087 O   0  0  0  0  0  0  0  0  0  0  0  0
   15.4419   -8.5463   18.3744 N   0  0  0  0  0  0  0  0  0  0  0  0
   15.9386   -9.3117   18.7440 H   0  0  0  0  0  0  0  0  0  0  0  0
   18.9475  -11.8145   13.8402 C   0  0  0  0  0  0  0  0  0  0  0  0
   18.0669  -10.8958   14.6194 C   0  0  0  0  0  0  0  0  0  0  0  0
   17.9795  -11.0662   16.0040 C   0  0  0  0  0  0  0  0  0  0  0  0
   17.1665  -10.2256   16.7682 C   0  0  0  0  0  0  0  0  0  0  0  0
   16.4307   -9.2024   16.1559 C   0  0  0  0  0  0  0  0  0  0  0  0
   16.5193   -9.0323   14.7672 C   0  0  0  0  0  0  0  0  0  0  0  0
   17.3306   -9.8704   13.9955 C   0  0  0  0  0  0  0  0  0  0  0  0
   17.3866   -9.6607   12.5715 C   0  0  0  0  0  0  0  0  0  0  0  0
   17.4348   -9.4877   11.3793 C   0  0  0  0  0  0  0  0  0  0  0  0
   17.4932   -9.2846    9.9592 C   0  0  0  0  0  0  0  0  0  0  0  0
   18.3630   -8.4428    9.3117 C   0  0  0  0  0  0  0  0  0  0  0  0
   18.1032   -8.5384    7.9949 N   0  0  0  0  0  0  0  0  0  0  0  0
   17.0931   -9.4276    7.8863 C   0  0  0  0  0  0  0  0  0  0  0  0
   16.6926   -9.9077    9.0808 N   0  0  0  0  0  0  0  0  0  0  0  0
   15.9802  -10.5618    9.2652 H   0  0  0  0  0  0  0  0  0  0  0  0
   14.6626   -7.7794   19.3022 C   0  0  0  0  0  0  0  0  0  0  0  0
   14.9543   -7.8734   20.6633 C   0  0  0  0  0  0  0  0  0  0  0  0
   14.2199   -7.1384   21.5944 C   0  0  0  0  0  0  0  0  0  0  0  0
   13.1852   -6.2903   21.1798 C   0  0  0  0  0  0  0  0  0  0  0  0
   12.8650   -6.2020   19.8042 C   0  0  0  0  0  0  0  0  0  0  0  0
   13.6169   -6.9470   18.8826 C   0  0  0  0  0  0  0  0  0  0  0  0
   11.7271   -5.3441   19.3046 C   0  0  0  0  0  0  0  0  0  0  0  0
   11.7096   -5.2965   17.9201 F   0  0  0  0  0  0  0  0  0  0  0  0
   10.5218   -5.8662   19.7385 F   0  0  0  0  0  0  0  0  0  0  0  0
   11.8641   -4.0555   19.7848 F   0  0  0  0  0  0  0  0  0  0  0  0
   12.4078   -5.5166   22.2204 C   0  0  0  0  0  0  0  0  0  0  0  0
   13.1900   -5.1148   23.3990 N   0  0  0  0  0  0  0  0  0  0  0  0
   13.9875   -3.9102   23.1240 C   0  0  0  0  0  0  0  0  0  0  0  0
   15.0016   -3.6298   24.2417 C   0  0  0  0  0  0  0  0  0  0  0  0
   14.7011   -4.4319   25.4253 N   0  0  0  0  0  0  0  0  0  0  0  0
   15.7236   -4.1284   26.4093 C   0  0  0  0  0  0  0  0  0  0  0  0
   14.8484   -5.8489   25.0852 C   0  0  0  0  0  0  0  0  0  0  0  0
   14.0482   -6.2226   23.8275 C   0  0  0  0  0  0  0  0  0  0  0  0
  5  6  1  0  0  0
  6  7  2  0  0  0
  7  8  1  0  0  0
  8  9  2  0  0  0
  9  1  1  0  0  0
  9 10  1  0  0  0
  1  2  2  0  0  0
  1  3  1  0  0  0
  3 20  1  0  0  0
 20 21  2  0  0  0
 21 22  1  0  0  0
 22 23  2  0  0  0
 23 30  1  0  0  0
 23 24  1  0  0  0
 30 31  1  0  0  0
 31 32  1  0  0  0
 32 33  1  0  0  0
 33 34  1  0  0  0
 34 35  1  0  0  0
 34 36  1  0  0  0
 36 37  1  0  0  0
 37 31  1  0  0  0
 24 26  1  0  0  0
 24 25  2  0  0  0
 26 27  1  0  0  0
 26 28  1  0  0  0
 26 29  1  0  0  0
 25 20  1  0  0  0
 10 11  2  0  0  0
 11 12  1  0  0  0
 11  6  1  0  0  0
 12 13  3  0  0  0
 13 14  1  0  0  0
 14 15  2  0  0  0
 15 16  1  0  0  0
 16 17  2  0  0  0
 17 18  1  0  0  0
 18 14  1  0  0  0
  3  4  1  0  0  0
 18 19  1  0  0  0
M  END
>  <minimizedAffinity>
-11.36364

>  <minimizedRMSD>
1.26242

$$$$
CHEMBL2098442 28304126 MCULE-8777586647 MolPort-019-830-966 PubChem-35591142 ZINC000028304126 ZINC28304126


 33 36  0  0  0  0  0  0  0  0999 V2000
   16.3193   -8.9938   16.2492 C   0  0  0  0  0  0  0  0  0  0  0  0
   15.9557   -9.0444   14.8964 C   0  0  0  0  0  0  0  0  0  0  0  0
   16.7288   -9.7580   13.9746 C   0  0  0  0  0  0  0  0  0  0  0  0
   17.8793  -10.4274   14.4171 C   0  0  0  0  0  0  0  0  0  0  0  0
   18.2490  -10.3822   15.7635 C   0  0  0  0  0  0  0  0  0  0  0  0
   17.4709   -9.6672   16.6771 C   0  0  0  0  0  0  0  0  0  0  0  0
   14.7531   -7.3962   18.9679 C   0  0  0  0  0  0  0  0  0  0  0  0
   15.7566   -8.1852   18.5349 N   0  0  0  0  0  0  0  0  0  0  0  0
   15.4993   -8.2403   17.2104 C   0  0  0  0  0  0  0  0  0  0  0  0
   14.4073   -7.5279   16.8672 N   0  0  0  0  0  0  0  0  0  0  0  0
   13.9753   -7.0218   17.9814 O   0  0  0  0  0  0  0  0  0  0  0  0
   14.1656   -6.2517   23.0517 C   0  0  0  0  0  0  0  0  0  0  0  0
   13.1009   -6.1747   22.1403 C   0  0  0  0  0  0  0  0  0  0  0  0
   13.3046   -6.5527   20.8028 C   0  0  0  0  0  0  0  0  0  0  0  0
   14.5561   -7.0048   20.3703 C   0  0  0  0  0  0  0  0  0  0  0  0
   15.6136   -7.0799   21.2831 C   0  0  0  0  0  0  0  0  0  0  0  0
   15.4205   -6.7063   22.6144 C   0  0  0  0  0  0  0  0  0  0  0  0
   14.9146   -6.0948   25.4064 C   0  0  0  0  0  0  0  0  0  0  0  0
   13.9550   -5.8729   24.3820 O   0  0  0  0  0  0  0  0  0  0  0  0
   11.8535   -5.7216   22.5832 O   0  0  0  0  0  0  0  0  0  0  0  0
   11.1096   -4.7236   21.8974 C   0  0  0  0  0  0  0  0  0  0  0  0
   16.3177   -9.7804   12.6011 N   0  0  0  0  0  0  0  0  0  0  0  0
   17.1708   -9.8591   11.4516 C   0  0  0  0  0  0  0  0  0  0  0  0
   18.4236   -9.9144   11.5691 O   0  0  0  0  0  0  0  0  0  0  0  0
   15.3492   -9.7374   12.4296 H   0  0  0  0  0  0  0  0  0  0  0  0
   16.5646   -9.8406   10.0904 C   0  0  0  0  0  0  0  0  0  0  0  0
   17.4558   -9.1266    9.1317 C   0  0  0  0  0  0  0  0  0  0  0  0
   17.3524   -9.3780    7.7586 C   0  0  0  0  0  0  0  0  0  0  0  0
   18.1748   -8.6942    6.8580 C   0  0  0  0  0  0  0  0  0  0  0  0
   19.0988   -7.7560    7.3284 C   0  0  0  0  0  0  0  0  0  0  0  0
   19.8954   -7.0941    6.4557 F   0  0  0  0  0  0  0  0  0  0  0  0
   19.1993   -7.4996    8.6994 C   0  0  0  0  0  0  0  0  0  0  0  0
   18.3772   -8.1829    9.6006 C   0  0  0  0  0  0  0  0  0  0  0  0
 18 19  1  0  0  0
 19 12  1  0  0  0
 12 13  2  0  0  0
 13 20  1  0  0  0
 13 14  1  0  0  0
 20 21  1  0  0  0
 14 15  2  0  0  0
 15 16  1  0  0  0
 15  7  1  0  0  0
 16 17  2  0  0  0
 17 12  1  0  0  0
  7  8  2  0  0  0
  8  9  1  0  0  0
  9 10  2  0  0  0
  9  1  1  0  0  0
 10 11  1  0  0  0
 11  7  1  0  0  0
  1  2  2  0  0  0
  2  3  1  0  0  0
  3 22  1  0  0  0
  3  4  2  0  0  0
 22 23  1  0  0  0
 23 24  2  0  0  0
 23 26  1  0  0  0
 26 27  1  0  0  0
 27 28  2  0  0  0
 28 29  1  0  0  0
 29 30  2  0  0  0
 30 31  1  0  0  0
 30 32  1  0  0  0
 32 33  2  0  0  0
 33 27  1  0  0  0
  4  5  1  0  0  0
  5  6  2  0  0  0
  6  1  1  0  0  0
 22 25  1  0  0  0
M  END
>  <minimizedAffinity>
-11.32019

>  <minimizedRMSD>
1.60080

$$$$
CHEMBL3188661 PubChem-73265214


 36 38  0  0  0  0  0  0  0  0999 V2000
   15.5625   -8.3200   18.3650 N   0  0  0  0  0  0  0  0  0  0  0  0
   15.5332   -8.2480   16.9310 C   0  0  0  0  0  0  0  0  0  0  0  0
   14.7290   -7.4743   16.3433 O   0  0  0  0  0  0  0  0  0  0  0  0
   16.2192   -8.9370   18.7616 H   0  0  0  0  0  0  0  0  0  0  0  0
   16.4526   -9.0841   16.1393 C   0  0  0  0  0  0  0  0  0  0  0  0
   17.1840  -10.1087   16.7520 C   0  0  0  0  0  0  0  0  0  0  0  0
   18.0539  -10.9007   16.0002 C   0  0  0  0  0  0  0  0  0  0  0  0
   18.2034  -10.6778   14.6287 C   0  0  0  0  0  0  0  0  0  0  0  0
   19.1406  -11.5441   13.8586 C   0  0  0  0  0  0  0  0  0  0  0  0
   17.4776   -9.6516   13.9977 C   0  0  0  0  0  0  0  0  0  0  0  0
   16.6055   -8.8633   14.7639 C   0  0  0  0  0  0  0  0  0  0  0  0
   17.6392   -9.4312   12.5868 N   0  0  0  0  0  0  0  0  0  0  0  0
   16.6844   -9.7148   11.5548 C   0  0  0  0  0  0  0  0  0  0  0  0
   15.5549  -10.2017   11.8306 O   0  0  0  0  0  0  0  0  0  0  0  0
   18.4970   -9.0441   12.2977 H   0  0  0  0  0  0  0  0  0  0  0  0
   17.0319   -9.4298   10.1596 C   0  0  0  0  0  0  0  0  0  0  0  0
   16.4004   -9.9398    9.0423 C   0  0  0  0  0  0  0  0  0  0  0  0
   17.1058   -9.3656    7.9963 C   0  0  0  0  0  0  0  0  0  0  0  0
   18.0789   -8.5773    8.4957 N   0  0  0  0  0  0  0  0  0  0  0  0
   18.0057   -8.6391    9.7898 O   0  0  0  0  0  0  0  0  0  0  0  0
   14.2663   -6.9317   21.5741 C   0  0  0  0  0  0  0  0  0  0  0  0
   15.0475   -7.6224   20.6427 C   0  0  0  0  0  0  0  0  0  0  0  0
   14.7361   -7.5879   19.2801 C   0  0  0  0  0  0  0  0  0  0  0  0
   13.6265   -6.8473   18.8491 C   0  0  0  0  0  0  0  0  0  0  0  0
   12.8429   -6.1345   19.7655 C   0  0  0  0  0  0  0  0  0  0  0  0
   13.1597   -6.1950   21.1288 C   0  0  0  0  0  0  0  0  0  0  0  0
   15.2931   -5.9907   23.7298 C   0  0  0  0  0  0  0  0  0  0  0  0
   15.6274   -4.8952   23.2067 O   0  0  0  0  0  0  0  0  0  0  0  0
   14.6230   -7.0023   22.9613 N   0  0  0  0  0  0  0  0  0  0  0  0
   14.3837   -7.8307   23.4364 H   0  0  0  0  0  0  0  0  0  0  0  0
   16.1208   -7.3619   25.5731 C   0  0  0  0  0  0  0  0  0  0  0  0
   15.6002   -6.2195   25.1448 C   0  0  0  0  0  0  0  0  0  0  0  0
   11.6267   -5.3872   19.3020 C   0  0  0  0  0  0  0  0  0  0  0  0
   11.4119   -4.2741   20.0963 F   0  0  0  0  0  0  0  0  0  0  0  0
   10.5240   -6.2172   19.3794 F   0  0  0  0  0  0  0  0  0  0  0  0
   11.7874   -4.9697   17.9920 F   0  0  0  0  0  0  0  0  0  0  0  0
 31 32  2  0  0  0
 32 27  1  0  0  0
 27 28  2  0  0  0
 27 29  1  0  0  0
 29 21  1  0  0  0
 21 22  2  0  0  0
 22 23  1  0  0  0
 23  1  1  0  0  0
 23 24  2  0  0  0
  1  2  1  0  0  0
  2  3  2  0  0  0
  2  5  1  0  0  0
  5  6  2  0  0  0
  6  7  1  0  0  0
  7  8  2  0  0  0
  8  9  1  0  0  0
  8 10  1  0  0  0
 10 12  1  0  0  0
 10 11  2  0  0  0
 12 13  1  0  0  0
 13 14  2  0  0  0
 13 16  1  0  0  0
 16 17  2  0  0  0
 17 18  1  0  0  0
 18 19  2  0  0  0
 19 20  1  0  0  0
 20 16  1  0  0  0
 11  5  1  0  0  0
 24 25  1  0  0  0
 25 33  1  0  0  0
 25 26  2  0  0  0
 33 34  1  0  0  0
 33 35  1  0  0  0
 33 36  1  0  0  0
 26 21  1  0  0  0
 29 30  1  0  0  0
  1  4  1  0  0  0
 12 15  1  0  0  0
M  END
>  <minimizedAffinity>
-11.20874

>  <minimizedRMSD>
1.56821

$$$$
CHEMBL4210670 PubChem-132008468 PubChem-132009036


 39 42  0  0  0  0  0  0  0  0999 V2000
   15.5901   -8.2001   19.2565 N   0  0  0  0  0  0  0  0  0  0  0  0
   15.5274   -8.1687   17.8246 C   0  0  0  0  0  0  0  0  0  0  0  0
   14.6786   -7.4477   17.2339 O   0  0  0  0  0  0  0  0  0  0  0  0
   16.4546   -8.9664   17.0773 N   0  0  0  0  0  0  0  0  0  0  0  0
   16.2797   -8.7788   19.6551 H   0  0  0  0  0  0  0  0  0  0  0  0
   17.1050   -9.4903   17.5987 H   0  0  0  0  0  0  0  0  0  0  0  0
   13.1530   -6.0814   22.0156 C   0  0  0  0  0  0  0  0  0  0  0  0
   12.9730   -5.8669   20.6299 C   0  0  0  0  0  0  0  0  0  0  0  0
   13.7825   -6.5691   19.7242 C   0  0  0  0  0  0  0  0  0  0  0  0
   14.7528   -7.4764   20.1689 C   0  0  0  0  0  0  0  0  0  0  0  0
   14.9080   -7.6914   21.5394 C   0  0  0  0  0  0  0  0  0  0  0  0
   14.1130   -7.0013   22.4560 C   0  0  0  0  0  0  0  0  0  0  0  0
   11.9211   -4.9223   20.1007 C   0  0  0  0  0  0  0  0  0  0  0  0
   12.1338   -4.6384   18.7615 F   0  0  0  0  0  0  0  0  0  0  0  0
   10.6708   -5.4977   20.2327 F   0  0  0  0  0  0  0  0  0  0  0  0
   11.9538   -3.7360   20.8095 F   0  0  0  0  0  0  0  0  0  0  0  0
   12.3215   -5.3621   23.0365 C   0  0  0  0  0  0  0  0  0  0  0  0
   14.2271   -4.3760   26.4816 N   0  0  0  0  0  0  0  0  0  0  0  0
   12.7685   -4.3946   26.6072 C   0  0  0  0  0  0  0  0  0  0  0  0
   12.1208   -4.9782   25.3413 C   0  0  0  0  0  0  0  0  0  0  0  0
   13.0893   -5.1226   24.2510 N   0  0  0  0  0  0  0  0  0  0  0  0
   13.8084   -3.8581   24.0860 C   0  0  0  0  0  0  0  0  0  0  0  0
   14.5959   -3.5096   25.3588 C   0  0  0  0  0  0  0  0  0  0  0  0
   15.0435   -4.8133   28.7341 C   0  0  0  0  0  0  0  0  0  0  0  0
   14.7615   -3.7560   27.6825 C   0  0  0  0  0  0  0  0  0  0  0  0
   16.5348   -9.0819   15.6499 C   0  0  0  0  0  0  0  0  0  0  0  0
   17.2646  -10.1394   15.0998 C   0  0  0  0  0  0  0  0  0  0  0  0
   17.3638  -10.2863   13.7142 C   0  0  0  0  0  0  0  0  0  0  0  0
   16.7313   -9.3766   12.8530 C   0  0  0  0  0  0  0  0  0  0  0  0
   15.9982   -8.3159   13.4092 C   0  0  0  0  0  0  0  0  0  0  0  0
   15.9008   -8.1695   14.7945 C   0  0  0  0  0  0  0  0  0  0  0  0
   16.8257   -9.5387   11.3825 C   0  0  0  0  0  0  0  0  0  0  0  0
   18.0047   -9.2116   10.6958 C   0  0  0  0  0  0  0  0  0  0  0  0
   18.0883   -9.3789    9.3478 N   0  0  0  0  0  0  0  0  0  0  0  0
   17.0447   -9.8631    8.6236 C   0  0  0  0  0  0  0  0  0  0  0  0
   17.1543  -10.0015    7.3780 O   0  0  0  0  0  0  0  0  0  0  0  0
   15.8519  -10.2075    9.2607 C   0  0  0  0  0  0  0  0  0  0  0  0
   15.7465  -10.0444   10.6426 C   0  0  0  0  0  0  0  0  0  0  0  0
   18.9251   -9.1434    8.8858 H   0  0  0  0  0  0  0  0  0  0  0  0
 24 25  1  0  0  0
 25 18  1  0  0  0
 18 19  1  0  0  0
 19 20  1  0  0  0
 20 21  1  0  0  0
 21 22  1  0  0  0
 22 23  1  0  0  0
 21 17  1  0  0  0
 17  7  1  0  0  0
  7  8  2  0  0  0
  8  9  1  0  0  0
  9 10  2  0  0  0
 10 11  1  0  0  0
 11 12  2  0  0  0
 10  1  1  0  0  0
  1  2  1  0  0  0
  2  3  2  0  0  0
  2  4  1  0  0  0
  4 26  1  0  0  0
 26 27  2  0  0  0
 27 28  1  0  0  0
 28 29  2  0  0  0
 29 30  1  0  0  0
 30 31  2  0  0  0
 29 32  1  0  0  0
 32 33  2  0  0  0
 33 34  1  0  0  0
 34 35  1  0  0  0
 35 36  2  0  0  0
 35 37  1  0  0  0
 37 38  2  0  0  0
  8 13  1  0  0  0
 13 14  1  0  0  0
 13 15  1  0  0  0
 13 16  1  0  0  0
 23 18  1  0  0  0
 12  7  1  0  0  0
 31 26  1  0  0  0
 38 32  1  0  0  0
  1  5  1  0  0  0
  4  6  1  0  0  0
 34 39  1  0  0  0
M  END
>  <minimizedAffinity>
-11.15456

>  <minimizedRMSD>
1.87803

$$$$
CHEMBL4293688


 37 41  0  0  0  0  0  0  0  0999 V2000
   13.7511   -6.0902   20.8309 C   0  0  0  0  0  0  0  0  0  0  0  0
   14.9198   -6.8132   21.1183 C   0  0  0  0  0  0  0  0  0  0  0  0
   15.5338   -7.5864   20.1300 C   0  0  0  0  0  0  0  0  0  0  0  0
   14.9879   -7.6551   18.8450 C   0  0  0  0  0  0  0  0  0  0  0  0
   13.8132   -6.9438   18.5609 C   0  0  0  0  0  0  0  0  0  0  0  0
   13.1958   -6.1698   19.5475 C   0  0  0  0  0  0  0  0  0  0  0  0
   12.0588   -5.4933   19.2522 F   0  0  0  0  0  0  0  0  0  0  0  0
   15.6483   -8.4583   17.8574 N   0  0  0  0  0  0  0  0  0  0  0  0
   15.6945   -8.2220   16.4410 C   0  0  0  0  0  0  0  0  0  0  0  0
   15.1162   -7.2165   15.9469 O   0  0  0  0  0  0  0  0  0  0  0  0
   16.1208   -9.2575   18.1851 H   0  0  0  0  0  0  0  0  0  0  0  0
   16.4310   -9.1698   15.5680 C   0  0  0  0  0  0  0  0  0  0  0  0
   16.4221   -9.0838   14.1547 C   0  0  0  0  0  0  0  0  0  0  0  0
   15.7403   -8.1856   13.5873 O   0  0  0  0  0  0  0  0  0  0  0  0
   17.1352   -9.9891   13.3999 N   0  0  0  0  0  0  0  0  0  0  0  0
   17.8358  -10.9910   14.0080 C   0  0  0  0  0  0  0  0  0  0  0  0
   17.8621  -11.1142   15.3932 C   0  0  0  0  0  0  0  0  0  0  0  0
   17.1610  -10.1996   16.1681 C   0  0  0  0  0  0  0  0  0  0  0  0
   17.1721   -9.9236   11.9562 C   0  0  0  0  0  0  0  0  0  0  0  0
   18.3316   -9.4812   11.2946 C   0  0  0  0  0  0  0  0  0  0  0  0
   18.3662   -9.3938    9.9003 C   0  0  0  0  0  0  0  0  0  0  0  0
   17.2405   -9.7418    9.1502 C   0  0  0  0  0  0  0  0  0  0  0  0
   16.0785  -10.1728    9.7942 C   0  0  0  0  0  0  0  0  0  0  0  0
   16.0434  -10.2602   11.1885 C   0  0  0  0  0  0  0  0  0  0  0  0
   17.2744   -9.6575    7.7989 F   0  0  0  0  0  0  0  0  0  0  0  0
   13.1014   -5.3253   21.8097 O   0  0  0  0  0  0  0  0  0  0  0  0
   12.3575   -5.3506   24.1359 C   0  0  0  0  0  0  0  0  0  0  0  0
   12.6693   -5.3590   25.5144 C   0  0  0  0  0  0  0  0  0  0  0  0
   13.9696   -5.3512   25.9356 N   0  0  0  0  0  0  0  0  0  0  0  0
   14.9565   -5.3374   25.0068 C   0  0  0  0  0  0  0  0  0  0  0  0
   14.7067   -5.3329   23.6757 C   0  0  0  0  0  0  0  0  0  0  0  0
   13.3973   -5.3518   23.1811 C   0  0  0  0  0  0  0  0  0  0  0  0
   15.8635   -5.2561   23.0021 N   0  0  0  0  0  0  0  0  0  0  0  0
   16.7975   -5.2321   23.9915 C   0  0  0  0  0  0  0  0  0  0  0  0
   16.2720   -5.2783   25.2455 N   0  0  0  0  0  0  0  0  0  0  0  0
   10.9303   -5.3536   23.7114 C   0  0  0  0  0  0  0  0  0  0  0  0
   16.7414   -5.2702   26.1109 H   0  0  0  0  0  0  0  0  0  0  0  0
 27 28  2  0  0  0
 28 29  1  0  0  0
 29 30  2  0  0  0
 30 31  1  0  0  0
 31 32  2  0  0  0
 32 26  1  0  0  0
 26  1  1  0  0  0
  1  2  2  0  0  0
  2  3  1  0  0  0
  3  4  2  0  0  0
  4  5  1  0  0  0
  5  6  2  0  0  0
  6  7  1  0  0  0
  4  8  1  0  0  0
  8  9  1  0  0  0
  9 10  2  0  0  0
  9 12  1  0  0  0
 12 13  1  0  0  0
 13 14  2  0  0  0
 13 15  1  0  0  0
 15 16  1  0  0  0
 16 17  2  0  0  0
 17 18  1  0  0  0
 15 19  1  0  0  0
 19 20  2  0  0  0
 20 21  1  0  0  0
 21 22  2  0  0  0
 22 23  1  0  0  0
 23 24  2  0  0  0
 22 25  1  0  0  0
 31 33  1  0  0  0
 33 34  2  0  0  0
 34 35  1  0  0  0
 27 36  1  0  0  0
 32 27  1  0  0  0
  6  1  1  0  0  0
 18 12  2  0  0  0
 24 19  1  0  0  0
 35 30  1  0  0  0
  8 11  1  0  0  0
 35 37  1  0  0  0
M  END
>  <minimizedAffinity>
-10.85097

>  <minimizedRMSD>
1.87039

$$$$
CHEMBL215005 PubChem-44417830


 31 34  0  0  0  0  0  0  0  0999 V2000
   17.3819   -9.4989   16.6084 C   0  0  0  0  0  0  0  0  0  0  0  0
   16.8806  -10.8773   16.1760 C   0  0  0  0  0  0  0  0  0  0  0  0
   17.5227  -11.2614   14.8455 C   0  0  0  0  0  0  0  0  0  0  0  0
   17.1712  -10.3384   13.7512 N   0  0  0  0  0  0  0  0  0  0  0  0
   16.7901   -8.9844   14.1977 C   0  0  0  0  0  0  0  0  0  0  0  0
   17.5611   -8.5234   15.4388 C   0  0  0  0  0  0  0  0  0  0  0  0
   15.4210   -8.0500   17.4072 C   0  0  0  0  0  0  0  0  0  0  0  0
   15.1269   -7.7105   16.2293 O   0  0  0  0  0  0  0  0  0  0  0  0
   16.5272   -8.9311   17.6474 N   0  0  0  0  0  0  0  0  0  0  0  0
   16.7248   -9.1708   18.5816 H   0  0  0  0  0  0  0  0  0  0  0  0
   13.0828   -6.6264   20.7087 C   0  0  0  0  0  0  0  0  0  0  0  0
   14.3381   -7.2175   20.9255 C   0  0  0  0  0  0  0  0  0  0  0  0
   15.0979   -7.6793   19.8486 C   0  0  0  0  0  0  0  0  0  0  0  0
   14.6179   -7.5572   18.5390 C   0  0  0  0  0  0  0  0  0  0  0  0
   13.3676   -6.9630   18.3214 C   0  0  0  0  0  0  0  0  0  0  0  0
   12.5942   -6.4978   19.3992 C   0  0  0  0  0  0  0  0  0  0  0  0
   12.7268   -5.1222   22.6421 C   0  0  0  0  0  0  0  0  0  0  0  0
   12.3042   -6.1646   21.7755 O   0  0  0  0  0  0  0  0  0  0  0  0
   11.3411   -5.9098   19.1932 O   0  0  0  0  0  0  0  0  0  0  0  0
   11.1767   -4.5257   18.9138 C   0  0  0  0  0  0  0  0  0  0  0  0
   18.3522  -10.2185   12.9053 C   0  0  0  0  0  0  0  0  0  0  0  0
   17.9645   -9.8092   11.5232 C   0  0  0  0  0  0  0  0  0  0  0  0
   16.7517  -10.2419   10.9703 C   0  0  0  0  0  0  0  0  0  0  0  0
   16.3873   -9.8524    9.6778 C   0  0  0  0  0  0  0  0  0  0  0  0
   17.2364   -9.0310    8.9318 C   0  0  0  0  0  0  0  0  0  0  0  0
   16.8795   -8.6364    7.6396 C   0  0  0  0  0  0  0  0  0  0  0  0
   17.7373   -7.8180    6.8982 C   0  0  0  0  0  0  0  0  0  0  0  0
   18.9524   -7.3922    7.4454 C   0  0  0  0  0  0  0  0  0  0  0  0
   19.3161   -7.7821    8.7380 C   0  0  0  0  0  0  0  0  0  0  0  0
   18.4645   -8.6000    9.4861 C   0  0  0  0  0  0  0  0  0  0  0  0
   18.8209   -8.9917   10.7786 C   0  0  0  0  0  0  0  0  0  0  0  0
 17 18  1  0  0  0
 18 11  1  0  0  0
 11 12  2  0  0  0
 12 13  1  0  0  0
 13 14  2  0  0  0
 14  7  1  0  0  0
 14 15  1  0  0  0
  7  8  2  0  0  0
  7  9  1  0  0  0
  9  1  1  0  0  0
  1  2  1  0  0  0
  2  3  1  0  0  0
  3  4  1  0  0  0
  4 21  1  0  0  0
  4  5  1  0  0  0
 21 22  1  0  0  0
 22 23  2  0  0  0
 23 24  1  0  0  0
 24 25  2  0  0  0
 25 26  1  0  0  0
 26 27  2  0  0  0
 27 28  1  0  0  0
 28 29  2  0  0  0
 29 30  1  0  0  0
 30 31  2  0  0  0
 30 25  1  0  0  0
 31 22  1  0  0  0
  5  6  1  0  0  0
  6  1  1  0  0  0
 15 16  2  0  0  0
 16 19  1  0  0  0
 16 11  1  0  0  0
 19 20  1  0  0  0
  9 10  1  0  0  0
M  END
>  <minimizedAffinity>
-10.73624

>  <minimizedRMSD>
0.77750

$$$$
CHEMBL3091587 PubChem-76309926


 35 38  0  0  0  0  0  0  0  0999 V2000
   15.8678   -8.5301   17.5300 N   0  0  0  0  0  0  0  0  0  0  0  0
   15.9421   -8.1755   16.1398 C   0  0  0  0  0  0  0  0  0  0  0  0
   15.3063   -7.1770   15.7052 O   0  0  0  0  0  0  0  0  0  0  0  0
   16.4089   -9.3011   17.8165 H   0  0  0  0  0  0  0  0  0  0  0  0
   13.6141   -6.6276   20.5933 C   0  0  0  0  0  0  0  0  0  0  0  0
   14.9132   -7.1026   20.8343 C   0  0  0  0  0  0  0  0  0  0  0  0
   15.6437   -7.7235   19.8183 C   0  0  0  0  0  0  0  0  0  0  0  0
   15.0899   -7.8813   18.5453 C   0  0  0  0  0  0  0  0  0  0  0  0
   13.7919   -7.4115   18.3009 C   0  0  0  0  0  0  0  0  0  0  0  0
   13.0594   -6.7897   19.3160 C   0  0  0  0  0  0  0  0  0  0  0  0
   11.8052   -6.3460   19.0561 F   0  0  0  0  0  0  0  0  0  0  0  0
   12.8410   -6.0030   21.5868 O   0  0  0  0  0  0  0  0  0  0  0  0
   11.9115   -4.0127   25.9066 N   0  0  0  0  0  0  0  0  0  0  0  0
   12.7273   -4.8191   25.0658 C   0  0  0  0  0  0  0  0  0  0  0  0
   12.3748   -5.0134   23.7310 C   0  0  0  0  0  0  0  0  0  0  0  0
   13.1940   -5.8109   22.9314 C   0  0  0  0  0  0  0  0  0  0  0  0
   14.3114   -6.3726   23.4705 N   0  0  0  0  0  0  0  0  0  0  0  0
   14.6402   -6.1725   24.7736 C   0  0  0  0  0  0  0  0  0  0  0  0
   13.8499   -5.3997   25.5632 N   0  0  0  0  0  0  0  0  0  0  0  0
   11.0978   -3.5919   25.5460 H   0  0  0  0  0  0  0  0  0  0  0  0
   12.1605   -3.8753   26.8491 H   0  0  0  0  0  0  0  0  0  0  0  0
   16.7759   -8.9926   15.2229 C   0  0  0  0  0  0  0  0  0  0  0  0
   17.7710   -9.8058   15.7728 C   0  0  0  0  0  0  0  0  0  0  0  0
   18.5712  -10.5946   14.9565 C   0  0  0  0  0  0  0  0  0  0  0  0
   18.3754  -10.5629   13.5797 C   0  0  0  0  0  0  0  0  0  0  0  0
   17.4139   -9.7715   13.0198 N   0  0  0  0  0  0  0  0  0  0  0  0
   16.6027   -8.9946   13.8176 C   0  0  0  0  0  0  0  0  0  0  0  0
   15.6875   -8.2965   13.2993 O   0  0  0  0  0  0  0  0  0  0  0  0
   17.2858   -9.7862   11.5799 C   0  0  0  0  0  0  0  0  0  0  0  0
   16.1073  -10.2427   10.9638 C   0  0  0  0  0  0  0  0  0  0  0  0
   15.9815  -10.2336    9.5719 C   0  0  0  0  0  0  0  0  0  0  0  0
   17.0301   -9.7617    8.7789 C   0  0  0  0  0  0  0  0  0  0  0  0
   16.9080   -9.7527    7.4300 F   0  0  0  0  0  0  0  0  0  0  0  0
   18.2028   -9.2950    9.3773 C   0  0  0  0  0  0  0  0  0  0  0  0
   18.3290   -9.3041   10.7692 C   0  0  0  0  0  0  0  0  0  0  0  0
 13 14  1  0  0  0
 14 15  2  0  0  0
 15 16  1  0  0  0
 16 12  1  0  0  0
 16 17  2  0  0  0
 12  5  1  0  0  0
  5  6  2  0  0  0
  6  7  1  0  0  0
  7  8  2  0  0  0
  8  1  1  0  0  0
  8  9  1  0  0  0
  1  2  1  0  0  0
  2  3  2  0  0  0
  2 22  1  0  0  0
 22 23  2  0  0  0
 23 24  1  0  0  0
 24 25  2  0  0  0
 25 26  1  0  0  0
 26 29  1  0  0  0
 26 27  1  0  0  0
 29 30  2  0  0  0
 30 31  1  0  0  0
 31 32  2  0  0  0
 32 33  1  0  0  0
 32 34  1  0  0  0
 34 35  2  0  0  0
 35 29  1  0  0  0
 27 28  2  0  0  0
 27 22  1  0  0  0
  9 10  2  0  0  0
 10 11  1  0  0  0
 10  5  1  0  0  0
 17 18  1  0  0  0
 18 19  2  0  0  0
 19 14  1  0  0  0
 13 20  1  0  0  0
 13 21  1  0  0  0
  1  4  1  0  0  0
M  END
>  <minimizedAffinity>
-10.68651

>  <minimizedRMSD>
1.79442

$$$$
CHEMBL3785102 PubChem-56597542


 35 39  0  0  0  0  0  0  0  0999 V2000
   17.3494  -10.4451   13.5052 C   0  0  0  0  0  0  0  0  0  0  0  0
   17.8992  -11.5405   13.7910 O   0  0  0  0  0  0  0  0  0  0  0  0
   16.9757   -9.5502   14.5524 N   0  0  0  0  0  0  0  0  0  0  0  0
   16.3964   -8.2066   14.6979 C   0  0  0  0  0  0  0  0  0  0  0  0
   16.4153   -8.1802   16.1851 C   0  0  0  0  0  0  0  0  0  0  0  0
   17.0117   -9.5357   16.0203 C   0  0  0  0  0  0  0  0  0  0  0  0
   17.3748   -9.4144   10.1551 C   0  0  0  0  0  0  0  0  0  0  0  0
   16.1151   -9.8895   10.2155 N   0  0  0  0  0  0  0  0  0  0  0  0
   15.9417  -10.3272   11.4529 N   0  0  0  0  0  0  0  0  0  0  0  0
   17.1018  -10.1033   12.0994 C   0  0  0  0  0  0  0  0  0  0  0  0
   17.9863   -9.5437   11.3092 O   0  0  0  0  0  0  0  0  0  0  0  0
   19.1481   -7.7213    6.6475 C   0  0  0  0  0  0  0  0  0  0  0  0
   19.5283   -7.2717    7.9156 C   0  0  0  0  0  0  0  0  0  0  0  0
   18.9511   -7.8238    9.0621 C   0  0  0  0  0  0  0  0  0  0  0  0
   17.9841   -8.8329    8.9516 C   0  0  0  0  0  0  0  0  0  0  0  0
   17.6020   -9.2849    7.6829 C   0  0  0  0  0  0  0  0  0  0  0  0
   18.1810   -8.7342    6.5362 C   0  0  0  0  0  0  0  0  0  0  0  0
   19.8533   -7.8382    4.2787 C   0  0  0  0  0  0  0  0  0  0  0  0
   19.7506   -7.1551    5.5213 O   0  0  0  0  0  0  0  0  0  0  0  0
   15.0837   -8.2998   16.6698 O   0  0  0  0  0  0  0  0  0  0  0  0
   14.6909   -7.8257   17.9251 C   0  0  0  0  0  0  0  0  0  0  0  0
   13.4016   -7.3088   18.0806 C   0  0  0  0  0  0  0  0  0  0  0  0
   12.9670   -6.8217   19.3246 C   0  0  0  0  0  0  0  0  0  0  0  0
   13.8435   -6.8614   20.4223 C   0  0  0  0  0  0  0  0  0  0  0  0
   15.1345   -7.3776   20.2687 C   0  0  0  0  0  0  0  0  0  0  0  0
   15.5569   -7.8585   19.0281 C   0  0  0  0  0  0  0  0  0  0  0  0
   11.6787   -6.2966   19.4856 O   0  0  0  0  0  0  0  0  0  0  0  0
   10.5359   -6.8485   18.8446 C   0  0  0  0  0  0  0  0  0  0  0  0
   13.4180   -6.3410   21.7572 C   0  0  0  0  0  0  0  0  0  0  0  0
   14.0695   -5.0649   22.0346 N   0  0  0  0  0  0  0  0  0  0  0  0
   13.1709   -3.9731   21.6164 C   0  0  0  0  0  0  0  0  0  0  0  0
   12.2059   -3.5225   22.7226 C   0  0  0  0  0  0  0  0  0  0  0  0
   12.0492   -4.5418   23.6702 O   0  0  0  0  0  0  0  0  0  0  0  0
   13.2633   -4.5745   24.3718 C   0  0  0  0  0  0  0  0  0  0  0  0
   14.4245   -5.0228   23.4636 C   0  0  0  0  0  0  0  0  0  0  0  0
 18 19  1  0  0  0
 19 12  1  0  0  0
 12 13  2  0  0  0
 13 14  1  0  0  0
 14 15  2  0  0  0
 15 16  1  0  0  0
 15  7  1  0  0  0
 16 17  2  0  0  0
 17 12  1  0  0  0
  7  8  2  0  0  0
  8  9  1  0  0  0
  9 10  2  0  0  0
 10 11  1  0  0  0
 10  1  1  0  0  0
 11  7  1  0  0  0
  1  2  2  0  0  0
  1  3  1  0  0  0
  3  4  1  0  0  0
  4  5  1  0  0  0
  5  6  1  0  0  0
  5 20  1  0  0  0
  6  3  1  0  0  0
 20 21  1  0  0  0
 21 22  2  0  0  0
 22 23  1  0  0  0
 23 24  2  0  0  0
 23 27  1  0  0  0
 24 25  1  0  0  0
 24 29  1  0  0  0
 25 26  2  0  0  0
 26 21  1  0  0  0
 29 30  1  0  0  0
 30 31  1  0  0  0
 31 32  1  0  0  0
 32 33  1  0  0  0
 33 34  1  0  0  0
 34 35  1  0  0  0
 35 30  1  0  0  0
 27 28  1  0  0  0
M  END
>  <minimizedAffinity>
-10.64478

>  <minimizedRMSD>
1.49382

$$$$
CHEMBL105565 PubChem-11760806


 29 31  0  0  0  0  0  0  0  0999 V2000
   16.3522   -8.7482   16.6440 N   0  0  0  0  0  0  0  0  0  0  0  0
   17.0343   -9.8324   16.4808 C   0  0  0  0  0  0  0  0  0  0  0  0
   17.4257  -10.2693   15.1417 C   0  0  0  0  0  0  0  0  0  0  0  0
   18.1641  -11.4032   14.8687 C   0  0  0  0  0  0  0  0  0  0  0  0
   18.2978  -11.4259   13.4892 C   0  0  0  0  0  0  0  0  0  0  0  0
   17.6284  -10.3014   13.0336 C   0  0  0  0  0  0  0  0  0  0  0  0
   17.1200   -9.6328   14.0391 O   0  0  0  0  0  0  0  0  0  0  0  0
   17.4926   -9.8925   11.6267 C   0  0  0  0  0  0  0  0  0  0  0  0
   16.3681  -10.2852   10.8907 C   0  0  0  0  0  0  0  0  0  0  0  0
   16.2308   -9.9015    9.5543 C   0  0  0  0  0  0  0  0  0  0  0  0
   17.2154   -9.1219    8.9403 C   0  0  0  0  0  0  0  0  0  0  0  0
   17.0371   -8.7306    7.5136 C   0  0  0  0  0  0  0  0  0  0  0  0
   18.3474   -8.7237    9.6728 C   0  0  0  0  0  0  0  0  0  0  0  0
   19.6145   -7.7440    8.9507 Cl  0  0  0  0  0  0  0  0  0  0  0  0
   18.4792   -9.1108   11.0100 C   0  0  0  0  0  0  0  0  0  0  0  0
   14.7746   -7.6126   18.1552 C   0  0  0  0  0  0  0  0  0  0  0  0
   14.0238   -7.3305   17.1816 O   0  0  0  0  0  0  0  0  0  0  0  0
   15.9835   -8.3403   17.9308 N   0  0  0  0  0  0  0  0  0  0  0  0
   16.5663   -8.5582   18.6937 H   0  0  0  0  0  0  0  0  0  0  0  0
   12.8497   -6.0976   21.0451 C   0  0  0  0  0  0  0  0  0  0  0  0
   13.2085   -6.5012   19.7483 C   0  0  0  0  0  0  0  0  0  0  0  0
   14.4060   -7.1930   19.5184 C   0  0  0  0  0  0  0  0  0  0  0  0
   15.2481   -7.4809   20.6004 C   0  0  0  0  0  0  0  0  0  0  0  0
   14.8985   -7.0830   21.8930 C   0  0  0  0  0  0  0  0  0  0  0  0
   13.7037   -6.3936   22.1167 C   0  0  0  0  0  0  0  0  0  0  0  0
   13.3691   -6.0042   23.4077 O   0  0  0  0  0  0  0  0  0  0  0  0
   13.9429   -6.2042   24.1209 H   0  0  0  0  0  0  0  0  0  0  0  0
   10.7441   -5.0630   20.2556 C   0  0  0  0  0  0  0  0  0  0  0  0
   11.6579   -5.4067   21.2884 O   0  0  0  0  0  0  0  0  0  0  0  0
 28 29  1  0  0  0
 29 20  1  0  0  0
 20 21  2  0  0  0
 21 22  1  0  0  0
 22 16  1  0  0  0
 22 23  2  0  0  0
 16 17  2  0  0  0
 16 18  1  0  0  0
 18  1  1  0  0  0
  1  2  2  0  0  0
  2  3  1  0  0  0
  3  4  2  0  0  0
  4  5  1  0  0  0
  5  6  2  0  0  0
  6  8  1  0  0  0
  6  7  1  0  0  0
  8  9  2  0  0  0
  9 10  1  0  0  0
 10 11  2  0  0  0
 11 12  1  0  0  0
 11 13  1  0  0  0
 13 14  1  0  0  0
 13 15  2  0  0  0
 15  8  1  0  0  0
  7  3  1  0  0  0
 23 24  1  0  0  0
 24 25  2  0  0  0
 25 26  1  0  0  0
 25 20  1  0  0  0
 18 19  1  0  0  0
 26 27  1  0  0  0
M  END
>  <minimizedAffinity>
-10.55739

>  <minimizedRMSD>
1.97516

$$$$
CHEMBL1729923 9665614 CSC026372854 MCULE-6727763674 MolPort-004-107-460 PubChem-4803460 Z30004640 ZINC000009665614


 35 38  0  0  0  0  0  0  0  0999 V2000
   16.8474   -9.7942   14.2515 C   0  0  0  0  0  0  0  0  0  0  0  0
   16.3129   -9.1289   15.3599 C   0  0  0  0  0  0  0  0  0  0  0  0
   16.7040   -9.4834   16.6599 C   0  0  0  0  0  0  0  0  0  0  0  0
   17.6350  -10.5127   16.8370 C   0  0  0  0  0  0  0  0  0  0  0  0
   18.1687  -11.1824   15.7319 C   0  0  0  0  0  0  0  0  0  0  0  0
   17.7743  -10.8239   14.4403 C   0  0  0  0  0  0  0  0  0  0  0  0
   16.1797   -8.8202   17.8183 N   0  0  0  0  0  0  0  0  0  0  0  0
   15.1314   -7.8397   17.8509 C   0  0  0  0  0  0  0  0  0  0  0  0
   14.5589   -7.4881   16.7843 O   0  0  0  0  0  0  0  0  0  0  0  0
   16.5815   -9.0632   18.6836 H   0  0  0  0  0  0  0  0  0  0  0  0
   14.7397   -7.2537   19.1574 C   0  0  0  0  0  0  0  0  0  0  0  0
   13.4661   -6.7025   19.4244 C   0  0  0  0  0  0  0  0  0  0  0  0
   13.2113   -6.1703   20.7090 C   0  0  0  0  0  0  0  0  0  0  0  0
   11.9544   -5.6167   20.9997 C   0  0  0  0  0  0  0  0  0  0  0  0
   10.9528   -5.5882   20.0281 C   0  0  0  0  0  0  0  0  0  0  0  0
   11.1980   -6.1124   18.7589 C   0  0  0  0  0  0  0  0  0  0  0  0
   12.4451   -6.6651   18.4601 C   0  0  0  0  0  0  0  0  0  0  0  0
   14.2217   -6.2041   21.6776 C   0  0  0  0  0  0  0  0  0  0  0  0
   14.0140   -5.7336   22.8318 O   0  0  0  0  0  0  0  0  0  0  0  0
   15.4320   -6.7495   21.3642 N   0  0  0  0  0  0  0  0  0  0  0  0
   16.5005   -6.7986   22.3504 C   0  0  0  0  0  0  0  0  0  0  0  0
   15.6693   -7.2502   20.1512 N   0  0  0  0  0  0  0  0  0  0  0  0
   16.3474   -9.3509   12.6304 S   0  0  0  0  0  0  0  0  0  0  0  0
   15.0930  -10.1034   12.2852 O   0  0  0  0  0  0  0  0  0  0  0  0
   16.0959   -7.8693   12.5815 O   0  0  0  0  0  0  0  0  0  0  0  0
   17.6191   -9.7595   11.5231 N   0  0  0  0  0  0  0  0  0  0  0  0
   18.2454  -10.4559   11.8264 H   0  0  0  0  0  0  0  0  0  0  0  0
   17.1439   -9.5571    9.0547 C   0  0  0  0  0  0  0  0  0  0  0  0
   17.8745   -9.2112   10.2198 C   0  0  0  0  0  0  0  0  0  0  0  0
   18.9175   -8.2824   10.1192 C   0  0  0  0  0  0  0  0  0  0  0  0
   19.2416   -7.6928    8.8968 C   0  0  0  0  0  0  0  0  0  0  0  0
   18.5224   -8.0275    7.7515 C   0  0  0  0  0  0  0  0  0  0  0  0
   17.4819   -8.9529    7.8306 C   0  0  0  0  0  0  0  0  0  0  0  0
   14.7753  -10.1476    9.4888 C   0  0  0  0  0  0  0  0  0  0  0  0
   16.1020  -10.4874    9.1075 O   0  0  0  0  0  0  0  0  0  0  0  0
 34 35  1  0  0  0
 35 28  1  0  0  0
 28 29  2  0  0  0
 29 26  1  0  0  0
 26 23  1  0  0  0
 23  1  1  0  0  0
  1  2  2  0  0  0
  2  3  1  0  0  0
  3  7  1  0  0  0
  7  8  1  0  0  0
  8 11  1  0  0  0
 11 12  1  0  0  0
 12 13  1  0  0  0
 13 14  2  0  0  0
 14 15  1  0  0  0
 15 16  2  0  0  0
 16 17  1  0  0  0
 13 18  1  0  0  0
 18 19  2  0  0  0
 18 20  1  0  0  0
 20 21  1  0  0  0
 20 22  1  0  0  0
  8  9  2  0  0  0
  3  4  2  0  0  0
  4  5  1  0  0  0
  5  6  2  0  0  0
 23 24  2  0  0  0
 23 25  2  0  0  0
 29 30  1  0  0  0
 30 31  2  0  0  0
 31 32  1  0  0  0
 32 33  2  0  0  0
 33 28  1  0  0  0
  6  1  1  0  0  0
 22 11  2  0  0  0
 17 12  2  0  0  0
 26 27  1  0  0  0
  7 10  1  0  0  0
M  END
>  <minimizedAffinity>
-10.54653

>  <minimizedRMSD>
1.10639

$$$$
CHEMBL4166508 PubChem-145953136


 27 31  0  0  0  0  0  0  0  0999 V2000
   15.4256   -8.2066   15.5794 N   0  0  0  0  0  0  0  0  0  0  0  0
   15.7366   -8.5240   16.8722 C   0  0  0  0  0  0  0  0  0  0  0  0
   16.7576   -9.4605   17.1448 C   0  0  0  0  0  0  0  0  0  0  0  0
   17.4397  -10.0527   16.0743 C   0  0  0  0  0  0  0  0  0  0  0  0
   17.0783   -9.6906   14.8217 N   0  0  0  0  0  0  0  0  0  0  0  0
   16.1100   -8.8026   14.5727 C   0  0  0  0  0  0  0  0  0  0  0  0
   15.9060   -8.5821   13.2632 N   0  0  0  0  0  0  0  0  0  0  0  0
   16.8214   -9.3997   12.6819 C   0  0  0  0  0  0  0  0  0  0  0  0
   17.5590  -10.0965   13.6391 C   0  0  0  0  0  0  0  0  0  0  0  0
   15.0046   -7.8871   17.9752 C   0  0  0  0  0  0  0  0  0  0  0  0
   15.3349   -8.0435   19.2861 N   0  0  0  0  0  0  0  0  0  0  0  0
   14.3963   -7.2861   19.8832 C   0  0  0  0  0  0  0  0  0  0  0  0
   13.5695   -6.7209   19.0003 N   0  0  0  0  0  0  0  0  0  0  0  0
   13.9298   -7.0831   17.7850 N   0  0  0  0  0  0  0  0  0  0  0  0
   12.5408   -5.9120   19.3610 C   0  0  0  0  0  0  0  0  0  0  0  0
   12.3557   -5.6719   20.7308 C   0  0  0  0  0  0  0  0  0  0  0  0
   13.2016   -6.2499   21.6390 N   0  0  0  0  0  0  0  0  0  0  0  0
   14.2291   -7.0599   21.2483 C   0  0  0  0  0  0  0  0  0  0  0  0
   15.1316   -7.6735   22.2609 C   0  0  0  0  0  0  0  0  0  0  0  0
   11.6367   -5.2972   18.3496 C   0  0  0  0  0  0  0  0  0  0  0  0
   16.9942   -9.5182   11.2238 C   0  0  0  0  0  0  0  0  0  0  0  0
   18.1745   -9.0773   10.6066 C   0  0  0  0  0  0  0  0  0  0  0  0
   18.3333   -9.1922    9.2225 C   0  0  0  0  0  0  0  0  0  0  0  0
   17.3134   -9.7485    8.4460 C   0  0  0  0  0  0  0  0  0  0  0  0
   16.1346  -10.1901    9.0531 C   0  0  0  0  0  0  0  0  0  0  0  0
   15.9757  -10.0752   10.4373 C   0  0  0  0  0  0  0  0  0  0  0  0
   17.4671   -9.8598    7.1049 F   0  0  0  0  0  0  0  0  0  0  0  0
  1  2  2  0  0  0
  2  3  1  0  0  0
  3  4  2  0  0  0
  4  5  1  0  0  0
  5  6  1  0  0  0
  6  7  2  0  0  0
  7  8  1  0  0  0
  8  9  2  0  0  0
  8 21  1  0  0  0
 21 22  2  0  0  0
 22 23  1  0  0  0
 23 24  2  0  0  0
 24 25  1  0  0  0
 25 26  2  0  0  0
 24 27  1  0  0  0
  2 10  1  0  0  0
 10 11  1  0  0  0
 11 12  2  0  0  0
 12 13  1  0  0  0
 13 14  1  0  0  0
 13 15  1  0  0  0
 15 16  2  0  0  0
 16 17  1  0  0  0
 17 18  2  0  0  0
 18 19  1  0  0  0
 15 20  1  0  0  0
  6  1  1  0  0  0
 26 21  1  0  0  0
 14 10  2  0  0  0
  9  5  1  0  0  0
 18 12  1  0  0  0
M  END
>  <minimizedAffinity>
-10.51649

>  <minimizedRMSD>
1.76348

$$$$
CHEMBL4780277 PubChem-162662670


 36 40  0  0  0  0  0  0  0  0999 V2000
   14.0790   -7.5616   17.6059 N   0  0  0  0  0  0  0  0  0  0  0  0
   15.2434   -7.9296   18.2082 C   0  0  0  0  0  0  0  0  0  0  0  0
   15.4750   -7.5740   19.4992 N   0  0  0  0  0  0  0  0  0  0  0  0
   14.5593   -6.8558   20.2022 C   0  0  0  0  0  0  0  0  0  0  0  0
   13.3474   -6.4679   19.5995 C   0  0  0  0  0  0  0  0  0  0  0  0
   13.1356   -6.8441   18.2696 C   0  0  0  0  0  0  0  0  0  0  0  0
   12.3998   -5.7187   20.3410 C   0  0  0  0  0  0  0  0  0  0  0  0
   12.6767   -5.3704   21.6941 C   0  0  0  0  0  0  0  0  0  0  0  0
   13.9131   -5.7848   22.2222 C   0  0  0  0  0  0  0  0  0  0  0  0
   14.7871   -6.4932   21.4878 N   0  0  0  0  0  0  0  0  0  0  0  0
   15.8517   -6.7488   22.2662 C   0  0  0  0  0  0  0  0  0  0  0  0
   15.5658   -6.1629   23.4888 C   0  0  0  0  0  0  0  0  0  0  0  0
   14.3533   -5.5591   23.4759 N   0  0  0  0  0  0  0  0  0  0  0  0
   11.1432   -5.2573   19.6660 C   0  0  0  0  0  0  0  0  0  0  0  0
   16.4720   -6.1958   24.6743 C   0  0  0  0  0  0  0  0  0  0  0  0
   16.4009   -4.8835   25.4305 C   0  0  0  0  0  0  0  0  0  0  0  0
   16.0962   -7.3403   25.5950 C   0  0  0  0  0  0  0  0  0  0  0  0
   11.7299   -4.5977   22.5398 C   0  0  0  0  0  0  0  0  0  0  0  0
   11.7832   -3.3393   22.5566 O   0  0  0  0  0  0  0  0  0  0  0  0
   10.7354   -5.2746   23.4203 C   0  0  0  0  0  0  0  0  0  0  0  0
   16.2379   -8.6874   17.5058 N   0  0  0  0  0  0  0  0  0  0  0  0
   16.9294   -9.1166   18.0596 H   0  0  0  0  0  0  0  0  0  0  0  0
   16.3420   -8.8927   16.0895 C   0  0  0  0  0  0  0  0  0  0  0  0
   15.9933   -7.8955   15.1695 C   0  0  0  0  0  0  0  0  0  0  0  0
   16.1130   -8.1462   13.8027 C   0  0  0  0  0  0  0  0  0  0  0  0
   16.5789   -9.3872   13.3525 C   0  0  0  0  0  0  0  0  0  0  0  0
   16.9172  -10.3579   14.3042 C   0  0  0  0  0  0  0  0  0  0  0  0
   16.7927  -10.0922   15.6322 N   0  0  0  0  0  0  0  0  0  0  0  0
   16.7074   -9.6586   11.9479 N   0  0  0  0  0  0  0  0  0  0  0  0
   15.6153  -10.1468   11.1251 C   0  0  0  0  0  0  0  0  0  0  0  0
   16.1382  -10.1667    9.7000 C   0  0  0  0  0  0  0  0  0  0  0  0
   17.6482   -9.9818    9.7992 C   0  0  0  0  0  0  0  0  0  0  0  0
   17.9398   -9.4681   11.2084 C   0  0  0  0  0  0  0  0  0  0  0  0
   18.1544   -9.1182    8.7217 N   0  0  0  0  0  0  0  0  0  0  0  0
   17.0734   -8.6385    7.8664 C   0  0  0  0  0  0  0  0  0  0  0  0
   18.7898   -7.9552    9.3204 C   0  0  0  0  0  0  0  0  0  0  0  0
  1  2  2  0  0  0
  2  3  1  0  0  0
  3  4  2  0  0  0
  4  5  1  0  0  0
  5  6  2  0  0  0
  5  7  1  0  0  0
  7  8  2  0  0  0
  8  9  1  0  0  0
  9 10  1  0  0  0
 10 11  1  0  0  0
 11 12  2  0  0  0
 12 13  1  0  0  0
 12 15  1  0  0  0
 15 16  1  0  0  0
 15 17  1  0  0  0
  8 18  1  0  0  0
 18 19  2  0  0  0
 18 20  1  0  0  0
  7 14  1  0  0  0
  2 21  1  0  0  0
 21 23  1  0  0  0
 23 24  2  0  0  0
 24 25  1  0  0  0
 25 26  2  0  0  0
 26 27  1  0  0  0
 27 28  2  0  0  0
 26 29  1  0  0  0
 29 30  1  0  0  0
 30 31  1  0  0  0
 31 32  1  0  0  0
 32 33  1  0  0  0
 32 34  1  0  0  0
 34 35  1  0  0  0
 34 36  1  0  0  0
  6  1  1  0  0  0
 13  9  2  0  0  0
 28 23  1  0  0  0
 33 29  1  0  0  0
 10  4  1  0  0  0
 21 22  1  0  0  0
M  END
>  <minimizedAffinity>
-10.51139

>  <minimizedRMSD>
1.72894

$$$$
CHEMBL3786272 PubChem-56597851


 31 34  0  0  0  0  0  0  0  0999 V2000
   16.2865   -8.1423   16.3861 C   0  0  0  0  0  0  0  0  0  0  0  0
   16.2475   -8.1880   14.9001 C   0  0  0  0  0  0  0  0  0  0  0  0
   16.8914   -9.5024   14.7624 N   0  0  0  0  0  0  0  0  0  0  0  0
   16.9506   -9.4662   16.2297 C   0  0  0  0  0  0  0  0  0  0  0  0
   17.2826  -10.3965   13.7212 C   0  0  0  0  0  0  0  0  0  0  0  0
   17.8412  -11.4858   14.0158 O   0  0  0  0  0  0  0  0  0  0  0  0
   17.0416  -10.0634   12.3125 C   0  0  0  0  0  0  0  0  0  0  0  0
   15.8706  -10.2491   11.6738 N   0  0  0  0  0  0  0  0  0  0  0  0
   16.0543   -9.8299   10.4315 N   0  0  0  0  0  0  0  0  0  0  0  0
   17.3309   -9.4044   10.3604 C   0  0  0  0  0  0  0  0  0  0  0  0
   17.9427   -9.5453   11.5127 O   0  0  0  0  0  0  0  0  0  0  0  0
   17.9565   -8.8545    9.1502 C   0  0  0  0  0  0  0  0  0  0  0  0
   18.9679   -7.8902    9.2494 C   0  0  0  0  0  0  0  0  0  0  0  0
   19.5608   -7.3693    8.0956 C   0  0  0  0  0  0  0  0  0  0  0  0
   19.1501   -7.8054    6.8318 C   0  0  0  0  0  0  0  0  0  0  0  0
   18.1362   -8.7720    6.7323 C   0  0  0  0  0  0  0  0  0  0  0  0
   17.5436   -9.2927    7.8860 C   0  0  0  0  0  0  0  0  0  0  0  0
   19.7624   -7.2652    5.6976 O   0  0  0  0  0  0  0  0  0  0  0  0
   19.6343   -7.8450    4.4065 C   0  0  0  0  0  0  0  0  0  0  0  0
   14.9707   -8.3214   16.8974 O   0  0  0  0  0  0  0  0  0  0  0  0
   11.4921   -5.7845   19.2239 C   0  0  0  0  0  0  0  0  0  0  0  0
   12.8152   -6.4715   19.2622 C   0  0  0  0  0  0  0  0  0  0  0  0
   13.5830   -6.5260   20.4414 C   0  0  0  0  0  0  0  0  0  0  0  0
   14.8223   -7.1747   20.4300 C   0  0  0  0  0  0  0  0  0  0  0  0
   15.2929   -7.7751   19.2600 C   0  0  0  0  0  0  0  0  0  0  0  0
   14.5278   -7.7294   18.0846 C   0  0  0  0  0  0  0  0  0  0  0  0
   13.2925   -7.0752   18.0946 C   0  0  0  0  0  0  0  0  0  0  0  0
   13.1215   -5.8757   21.7069 C   0  0  0  0  0  0  0  0  0  0  0  0
   13.9731   -4.7412   22.0253 N   0  0  0  0  0  0  0  0  0  0  0  0
   13.1831   -3.5477   21.7852 C   0  0  0  0  0  0  0  0  0  0  0  0
   14.2265   -4.7882   23.4546 C   0  0  0  0  0  0  0  0  0  0  0  0
 21 22  1  0  0  0
 22 23  2  0  0  0
 23 24  1  0  0  0
 23 28  1  0  0  0
 24 25  2  0  0  0
 25 26  1  0  0  0
 26 27  2  0  0  0
 26 20  1  0  0  0
 27 22  1  0  0  0
 20  1  1  0  0  0
  1  2  1  0  0  0
  2  3  1  0  0  0
  3  4  1  0  0  0
  3  5  1  0  0  0
  4  1  1  0  0  0
  5  6  2  0  0  0
  5  7  1  0  0  0
  7  8  2  0  0  0
  8  9  1  0  0  0
  9 10  2  0  0  0
 10 11  1  0  0  0
 10 12  1  0  0  0
 11  7  1  0  0  0
 12 13  2  0  0  0
 13 14  1  0  0  0
 14 15  2  0  0  0
 15 16  1  0  0  0
 15 18  1  0  0  0
 16 17  2  0  0  0
 17 12  1  0  0  0
 18 19  1  0  0  0
 28 29  1  0  0  0
 29 30  1  0  0  0
 29 31  1  0  0  0
M  END
>  <minimizedAffinity>
-10.51101

>  <minimizedRMSD>
1.63893

$$$$
CHEMBL4173524 PubChem-145950382


 28 32  0  0  0  0  0  0  0  0999 V2000
   15.3670   -8.1555   15.6504 N   0  0  0  0  0  0  0  0  0  0  0  0
   15.6857   -8.4649   16.9433 C   0  0  0  0  0  0  0  0  0  0  0  0
   16.7110   -9.3970   17.2154 C   0  0  0  0  0  0  0  0  0  0  0  0
   17.3890   -9.9929   16.1442 C   0  0  0  0  0  0  0  0  0  0  0  0
   17.0195   -9.6381   14.8920 N   0  0  0  0  0  0  0  0  0  0  0  0
   16.0480   -8.7551   14.6436 C   0  0  0  0  0  0  0  0  0  0  0  0
   15.8375   -8.5434   13.3345 N   0  0  0  0  0  0  0  0  0  0  0  0
   16.7497   -9.3589   12.7457 C   0  0  0  0  0  0  0  0  0  0  0  0
   17.4930  -10.0472   13.7079 C   0  0  0  0  0  0  0  0  0  0  0  0
   14.9577   -7.8243   18.0467 C   0  0  0  0  0  0  0  0  0  0  0  0
   15.2778   -7.9952   19.3583 N   0  0  0  0  0  0  0  0  0  0  0  0
   14.3481   -7.2271   19.9555 C   0  0  0  0  0  0  0  0  0  0  0  0
   13.5355   -6.6426   19.0719 N   0  0  0  0  0  0  0  0  0  0  0  0
   13.8970   -7.0018   17.8562 N   0  0  0  0  0  0  0  0  0  0  0  0
   12.5177   -5.8199   19.4327 C   0  0  0  0  0  0  0  0  0  0  0  0
   12.3287   -5.5866   20.8031 C   0  0  0  0  0  0  0  0  0  0  0  0
   13.1599   -6.1844   21.7118 N   0  0  0  0  0  0  0  0  0  0  0  0
   14.1766   -7.0080   21.3212 C   0  0  0  0  0  0  0  0  0  0  0  0
   15.0634   -7.6431   22.3344 C   0  0  0  0  0  0  0  0  0  0  0  0
   11.6293   -5.1836   18.4205 C   0  0  0  0  0  0  0  0  0  0  0  0
   16.9337   -9.5015   11.2785 C   0  0  0  0  0  0  0  0  0  0  0  0
   15.8968   -9.8916   10.3913 C   0  0  0  0  0  0  0  0  0  0  0  0
   16.1585  -10.0010    9.0210 C   0  0  0  0  0  0  0  0  0  0  0  0
   17.4295   -9.7306    8.5145 C   0  0  0  0  0  0  0  0  0  0  0  0
   18.4543   -9.3468    9.3771 C   0  0  0  0  0  0  0  0  0  0  0  0
   18.2063   -9.2341   10.7458 C   0  0  0  0  0  0  0  0  0  0  0  0
   17.6673   -9.8409    7.1857 F   0  0  0  0  0  0  0  0  0  0  0  0
   14.2571  -10.2582   10.9096 Cl  0  0  0  0  0  0  0  0  0  0  0  0
  1  2  2  0  0  0
  2  3  1  0  0  0
  3  4  2  0  0  0
  4  5  1  0  0  0
  5  6  1  0  0  0
  6  7  2  0  0  0
  7  8  1  0  0  0
  8  9  2  0  0  0
  8 21  1  0  0  0
 21 22  2  0  0  0
 22 23  1  0  0  0
 23 24  2  0  0  0
 24 25  1  0  0  0
 25 26  2  0  0  0
 24 27  1  0  0  0
 22 28  1  0  0  0
  2 10  1  0  0  0
 10 11  1  0  0  0
 11 12  2  0  0  0
 12 13  1  0  0  0
 13 14  1  0  0  0
 13 15  1  0  0  0
 15 16  2  0  0  0
 16 17  1  0  0  0
 17 18  2  0  0  0
 18 19  1  0  0  0
 15 20  1  0  0  0
  6  1  1  0  0  0
 26 21  1  0  0  0
 14 10  2  0  0  0
  9  5  1  0  0  0
 18 12  1  0  0  0
M  END
>  <minimizedAffinity>
-10.36733

>  <minimizedRMSD>
1.75683

$$$$
CHEMBL3091589 PubChem-76335350


 35 38  0  0  0  0  0  0  0  0999 V2000
   15.8071   -8.5799   17.6267 N   0  0  0  0  0  0  0  0  0  0  0  0
   15.8580   -8.2388   16.2321 C   0  0  0  0  0  0  0  0  0  0  0  0
   15.2444   -7.2236   15.8048 O   0  0  0  0  0  0  0  0  0  0  0  0
   16.3074   -9.3821   17.9014 H   0  0  0  0  0  0  0  0  0  0  0  0
   13.7894   -6.5011   20.7397 C   0  0  0  0  0  0  0  0  0  0  0  0
   15.1130   -6.9418   20.8982 C   0  0  0  0  0  0  0  0  0  0  0  0
   15.7644   -7.6234   19.8673 C   0  0  0  0  0  0  0  0  0  0  0  0
   15.1057   -7.8772   18.6615 C   0  0  0  0  0  0  0  0  0  0  0  0
   13.7835   -7.4404   18.4995 C   0  0  0  0  0  0  0  0  0  0  0  0
   13.1298   -6.7585   19.5298 C   0  0  0  0  0  0  0  0  0  0  0  0
   11.8510   -6.3466   19.3492 F   0  0  0  0  0  0  0  0  0  0  0  0
   13.0939   -5.8156   21.7503 O   0  0  0  0  0  0  0  0  0  0  0  0
   15.9042   -7.1103   25.4537 N   0  0  0  0  0  0  0  0  0  0  0  0
   14.7822   -6.3967   24.9492 C   0  0  0  0  0  0  0  0  0  0  0  0
   14.0085   -5.6643   25.7918 N   0  0  0  0  0  0  0  0  0  0  0  0
   12.9335   -4.9771   25.3264 C   0  0  0  0  0  0  0  0  0  0  0  0
   12.6130   -5.0190   23.9702 C   0  0  0  0  0  0  0  0  0  0  0  0
   13.4148   -5.7763   23.1159 C   0  0  0  0  0  0  0  0  0  0  0  0
   14.4842   -6.4488   23.6246 N   0  0  0  0  0  0  0  0  0  0  0  0
   16.1205   -7.0728   26.4134 H   0  0  0  0  0  0  0  0  0  0  0  0
   16.4646   -7.6417   24.8432 H   0  0  0  0  0  0  0  0  0  0  0  0
   16.6368   -9.0932   15.3011 C   0  0  0  0  0  0  0  0  0  0  0  0
   17.5301  -10.0239   15.8391 C   0  0  0  0  0  0  0  0  0  0  0  0
   18.2845  -10.8421   15.0086 C   0  0  0  0  0  0  0  0  0  0  0  0
   18.1374  -10.7301   13.6302 C   0  0  0  0  0  0  0  0  0  0  0  0
   17.2663   -9.8329   13.0820 N   0  0  0  0  0  0  0  0  0  0  0  0
   16.5221   -9.0041   13.8926 C   0  0  0  0  0  0  0  0  0  0  0  0
   15.7502   -8.1461   13.3813 O   0  0  0  0  0  0  0  0  0  0  0  0
   17.1633   -9.7905   11.6406 C   0  0  0  0  0  0  0  0  0  0  0  0
   18.2457   -9.3397   10.8641 C   0  0  0  0  0  0  0  0  0  0  0  0
   18.1610   -9.3178    9.4693 C   0  0  0  0  0  0  0  0  0  0  0  0
   16.9958   -9.7518    8.8331 C   0  0  0  0  0  0  0  0  0  0  0  0
   16.9136   -9.7298    7.4815 F   0  0  0  0  0  0  0  0  0  0  0  0
   15.9166  -10.2121    9.5910 C   0  0  0  0  0  0  0  0  0  0  0  0
   16.0009  -10.2342   10.9858 C   0  0  0  0  0  0  0  0  0  0  0  0
 13 14  1  0  0  0
 14 15  2  0  0  0
 15 16  1  0  0  0
 16 17  2  0  0  0
 17 18  1  0  0  0
 18 12  1  0  0  0
 18 19  2  0  0  0
 12  5  1  0  0  0
  5  6  2  0  0  0
  6  7  1  0  0  0
  7  8  2  0  0  0
  8  1  1  0  0  0
  8  9  1  0  0  0
  1  2  1  0  0  0
  2  3  2  0  0  0
  2 22  1  0  0  0
 22 23  2  0  0  0
 23 24  1  0  0  0
 24 25  2  0  0  0
 25 26  1  0  0  0
 26 29  1  0  0  0
 26 27  1  0  0  0
 29 30  2  0  0  0
 30 31  1  0  0  0
 31 32  2  0  0  0
 32 33  1  0  0  0
 32 34  1  0  0  0
 34 35  2  0  0  0
 35 29  1  0  0  0
 27 28  2  0  0  0
 27 22  1  0  0  0
  9 10  2  0  0  0
 10 11  1  0  0  0
 10  5  1  0  0  0
 19 14  1  0  0  0
 13 20  1  0  0  0
 13 21  1  0  0  0
  1  4  1  0  0  0
M  END
>  <minimizedAffinity>
-10.30867

>  <minimizedRMSD>
1.85020

$$$$
CHEMBL18281 PubChem-10225194


 34 38  0  0  0  0  0  0  0  0999 V2000
   16.5716   -9.2230   15.8347 C   0  0  0  0  0  0  0  0  0  0  0  0
   15.9667   -8.5001   14.8022 C   0  0  0  0  0  0  0  0  0  0  0  0
   16.2622   -8.8041   13.4702 C   0  0  0  0  0  0  0  0  0  0  0  0
   17.1706   -9.8306   13.1630 C   0  0  0  0  0  0  0  0  0  0  0  0
   17.7788  -10.5436   14.2019 C   0  0  0  0  0  0  0  0  0  0  0  0
   17.4833  -10.2396   15.5341 C   0  0  0  0  0  0  0  0  0  0  0  0
   16.2789   -8.8818   17.2520 C   0  0  0  0  0  0  0  0  0  0  0  0
   15.1058   -8.0827   17.3190 O   0  0  0  0  0  0  0  0  0  0  0  0
   13.2595   -7.0107   18.5955 C   0  0  0  0  0  0  0  0  0  0  0  0
   12.8201   -6.4950   19.8270 C   0  0  0  0  0  0  0  0  0  0  0  0
   13.6525   -6.5007   20.9507 C   0  0  0  0  0  0  0  0  0  0  0  0
   14.9419   -7.0281   20.8447 C   0  0  0  0  0  0  0  0  0  0  0  0
   15.3926   -7.5437   19.6291 C   0  0  0  0  0  0  0  0  0  0  0  0
   14.5692   -7.5440   18.4977 C   0  0  0  0  0  0  0  0  0  0  0  0
   13.1751   -5.9565   22.2307 C   0  0  0  0  0  0  0  0  0  0  0  0
   11.9302   -5.4916   22.4437 N   0  0  0  0  0  0  0  0  0  0  0  0
   11.9286   -5.1051   23.7090 N   0  0  0  0  0  0  0  0  0  0  0  0
   13.1186   -5.3234   24.2456 N   0  0  0  0  0  0  0  0  0  0  0  0
   13.9254   -5.8578   23.3436 N   0  0  0  0  0  0  0  0  0  0  0  0
   13.3661   -5.1189   25.1763 H   0  0  0  0  0  0  0  0  0  0  0  0
   11.0368   -7.3569   17.5525 C   0  0  0  0  0  0  0  0  0  0  0  0
   12.4096   -6.9947   17.4835 O   0  0  0  0  0  0  0  0  0  0  0  0
   17.4862  -10.1591   11.8422 O   0  0  0  0  0  0  0  0  0  0  0  0
   16.6923   -9.7456   10.7378 C   0  0  0  0  0  0  0  0  0  0  0  0
   17.5543   -9.0822    9.7245 C   0  0  0  0  0  0  0  0  0  0  0  0
   18.6106   -8.2636   10.1372 C   0  0  0  0  0  0  0  0  0  0  0  0
   19.4320   -7.6659    9.1789 C   0  0  0  0  0  0  0  0  0  0  0  0
   19.1936   -7.8966    7.8241 C   0  0  0  0  0  0  0  0  0  0  0  0
   20.0022   -7.3103    6.8469 C   0  0  0  0  0  0  0  0  0  0  0  0
   19.7483   -7.5575    5.4938 C   0  0  0  0  0  0  0  0  0  0  0  0
   18.6881   -8.3899    5.1173 C   0  0  0  0  0  0  0  0  0  0  0  0
   17.8759   -8.9792    6.0917 C   0  0  0  0  0  0  0  0  0  0  0  0
   18.1231   -8.7360    7.4457 C   0  0  0  0  0  0  0  0  0  0  0  0
   17.3388   -9.3059    8.3991 N   0  0  0  0  0  0  0  0  0  0  0  0
 21 22  1  0  0  0
 22  9  1  0  0  0
  9 10  2  0  0  0
 10 11  1  0  0  0
 11 15  1  0  0  0
 11 12  2  0  0  0
 15 16  1  0  0  0
 16 17  2  0  0  0
 17 18  1  0  0  0
 18 19  1  0  0  0
 19 15  2  0  0  0
 12 13  1  0  0  0
 13 14  2  0  0  0
 14  8  1  0  0  0
 14  9  1  0  0  0
  8  7  1  0  0  0
  7  1  1  0  0  0
  1  2  2  0  0  0
  2  3  1  0  0  0
  3  4  2  0  0  0
  4 23  1  0  0  0
  4  5  1  0  0  0
 23 24  1  0  0  0
 24 25  1  0  0  0
 25 26  2  0  0  0
 26 27  1  0  0  0
 27 28  2  0  0  0
 28 29  1  0  0  0
 29 30  2  0  0  0
 30 31  1  0  0  0
 31 32  2  0  0  0
 32 33  1  0  0  0
 33 34  2  0  0  0
 33 28  1  0  0  0
 34 25  1  0  0  0
  5  6  2  0  0  0
  6  1  1  0  0  0
 18 20  1  0  0  0
M  END
>  <minimizedAffinity>
-10.27787

>  <minimizedRMSD>
1.98974

$$$$
CHEMBL2130674 LN00713803 MolPort-002-629-441 PubChem-9662554 ZINC05501131


 33 35  0  0  0  0  0  0  0  0999 V2000
   14.8008   -7.5458   18.1983 C   0  0  0  0  0  0  0  0  0  0  0  0
   13.8997   -7.2198   17.3794 O   0  0  0  0  0  0  0  0  0  0  0  0
   15.9444   -8.2840   17.7536 N   0  0  0  0  0  0  0  0  0  0  0  0
   16.5576   -8.6496   18.4316 H   0  0  0  0  0  0  0  0  0  0  0  0
   13.5650   -6.6957   20.2791 C   0  0  0  0  0  0  0  0  0  0  0  0
   14.6707   -7.2000   19.6215 C   0  0  0  0  0  0  0  0  0  0  0  0
   15.6616   -7.3404   20.5248 N   0  0  0  0  0  0  0  0  0  0  0  0
   15.1830   -6.9316   21.6918 N   0  0  0  0  0  0  0  0  0  0  0  0
   13.9244   -6.5373   21.5697 N   0  0  0  0  0  0  0  0  0  0  0  0
   13.1431   -6.0058   22.6513 C   0  0  0  0  0  0  0  0  0  0  0  0
   11.8387   -5.6901   22.5830 N   0  0  0  0  0  0  0  0  0  0  0  0
   11.5314   -5.2289   23.7663 O   0  0  0  0  0  0  0  0  0  0  0  0
   12.5313   -5.2133   24.6065 N   0  0  0  0  0  0  0  0  0  0  0  0
   13.5720   -5.7027   23.9163 C   0  0  0  0  0  0  0  0  0  0  0  0
   14.8835   -5.8673   24.4441 N   0  0  0  0  0  0  0  0  0  0  0  0
   15.0749   -5.6122   25.3755 H   0  0  0  0  0  0  0  0  0  0  0  0
   15.5994   -6.2362   23.8777 H   0  0  0  0  0  0  0  0  0  0  0  0
   12.2308   -6.3746   19.6837 C   0  0  0  0  0  0  0  0  0  0  0  0
   10.5885   -7.5445   18.2513 C   0  0  0  0  0  0  0  0  0  0  0  0
   11.4160   -7.6423   19.5149 C   0  0  0  0  0  0  0  0  0  0  0  0
   16.2357   -8.5130   16.3964 N   0  0  0  0  0  0  0  0  0  0  0  0
   16.8724   -9.5587   15.9500 C   0  0  0  0  0  0  0  0  0  0  0  0
   17.2520  -10.6796   16.8709 C   0  0  0  0  0  0  0  0  0  0  0  0
   17.1578   -9.6739   14.5030 C   0  0  0  0  0  0  0  0  0  0  0  0
   16.2450   -9.1804   13.5567 C   0  0  0  0  0  0  0  0  0  0  0  0
   16.5133   -9.2854   12.1891 C   0  0  0  0  0  0  0  0  0  0  0  0
   17.6976   -9.8869   11.7519 C   0  0  0  0  0  0  0  0  0  0  0  0
   18.6148  -10.3776   12.6861 C   0  0  0  0  0  0  0  0  0  0  0  0
   18.3457  -10.2722   14.0534 C   0  0  0  0  0  0  0  0  0  0  0  0
   17.9916   -9.9879   10.2923 C   0  0  0  0  0  0  0  0  0  0  0  0
   17.7336   -8.6649    9.5867 C   0  0  0  0  0  0  0  0  0  0  0  0
   17.0505   -8.9307    8.2621 C   0  0  0  0  0  0  0  0  0  0  0  0
   19.0404   -7.9371    9.3332 C   0  0  0  0  0  0  0  0  0  0  0  0
 19 20  1  0  0  0
 20 18  1  0  0  0
 18  5  1  0  0  0
  5  6  2  0  0  0
  6  7  1  0  0  0
  6  1  1  0  0  0
  7  8  2  0  0  0
  8  9  1  0  0  0
  9 10  1  0  0  0
  9  5  1  0  0  0
 10 11  2  0  0  0
 11 12  1  0  0  0
 12 13  1  0  0  0
 13 14  2  0  0  0
 14 15  1  0  0  0
 14 10  1  0  0  0
  1  2  2  0  0  0
  1  3  1  0  0  0
  3 21  1  0  0  0
 21 22  2  0  0  0
 22 23  1  0  0  0
 22 24  1  0  0  0
 24 25  2  0  0  0
 25 26  1  0  0  0
 26 27  2  0  0  0
 27 30  1  0  0  0
 27 28  1  0  0  0
 30 31  1  0  0  0
 31 32  1  0  0  0
 31 33  1  0  0  0
 28 29  2  0  0  0
 29 24  1  0  0  0
 15 16  1  0  0  0
 15 17  1  0  0  0
  3  4  1  0  0  0
M  END
>  <minimizedAffinity>
-10.16432

>  <minimizedRMSD>
1.85901

$$$$
CHEMBL5169913


 31 33  0  0  0  0  0  0  0  0999 V2000
   16.1292   -8.3883   15.5766 C   0  0  0  0  0  0  0  0  0  0  0  0
   16.8004   -9.3132   16.3556 C   0  0  0  0  0  0  0  0  0  0  0  0
   16.3101   -9.0811   17.6307 C   0  0  0  0  0  0  0  0  0  0  0  0
   15.4071   -8.0809   17.5659 N   0  0  0  0  0  0  0  0  0  0  0  0
   15.2863   -7.6547   16.3209 N   0  0  0  0  0  0  0  0  0  0  0  0
   14.6667   -7.5419   18.6716 C   0  0  0  0  0  0  0  0  0  0  0  0
   15.0745   -7.7830   19.9899 C   0  0  0  0  0  0  0  0  0  0  0  0
   14.3501   -7.2564   21.0600 C   0  0  0  0  0  0  0  0  0  0  0  0
   13.2091   -6.4821   20.8314 C   0  0  0  0  0  0  0  0  0  0  0  0
   12.7829   -6.2285   19.5071 C   0  0  0  0  0  0  0  0  0  0  0  0
   13.5230   -6.7657   18.4424 C   0  0  0  0  0  0  0  0  0  0  0  0
   11.5570   -5.3979   19.2119 C   0  0  0  0  0  0  0  0  0  0  0  0
   10.4244   -6.0751   19.6264 F   0  0  0  0  0  0  0  0  0  0  0  0
   11.6385   -4.1917   19.8838 F   0  0  0  0  0  0  0  0  0  0  0  0
   11.4433   -5.1394   17.8558 F   0  0  0  0  0  0  0  0  0  0  0  0
   12.4990   -5.9631   21.9728 C   0  0  0  0  0  0  0  0  0  0  0  0
   11.9286   -5.5463   22.8895 N   0  0  0  0  0  0  0  0  0  0  0  0
   16.2745   -8.2414   14.0997 C   0  0  0  0  0  0  0  0  0  0  0  0
   15.8718   -9.5233   13.3826 C   0  0  0  0  0  0  0  0  0  0  0  0
   17.0922  -10.3078   12.9169 C   0  0  0  0  0  0  0  0  0  0  0  0
   17.6976   -9.6730   11.7539 N   0  0  0  0  0  0  0  0  0  0  0  0
   17.0985   -9.7035   10.4542 C   0  0  0  0  0  0  0  0  0  0  0  0
   16.0178  -10.3291   10.2731 O   0  0  0  0  0  0  0  0  0  0  0  0
   18.5553   -9.2031   11.8666 H   0  0  0  0  0  0  0  0  0  0  0  0
   17.7448   -9.0070    9.3283 C   0  0  0  0  0  0  0  0  0  0  0  0
   17.3411   -9.2626    8.0091 C   0  0  0  0  0  0  0  0  0  0  0  0
   17.9542   -8.6005    6.9414 C   0  0  0  0  0  0  0  0  0  0  0  0
   18.9752   -7.6780    7.1850 C   0  0  0  0  0  0  0  0  0  0  0  0
   19.3833   -7.4174    8.4958 C   0  0  0  0  0  0  0  0  0  0  0  0
   18.7702   -8.0795    9.5635 C   0  0  0  0  0  0  0  0  0  0  0  0
   19.5693   -7.0365    6.1505 F   0  0  0  0  0  0  0  0  0  0  0  0
 20 19  1  0  0  0
 19 18  1  0  0  0
 18  1  1  0  0  0
  1  2  1  0  0  0
  2  3  2  0  0  0
  3  4  1  0  0  0
  4  5  1  0  0  0
  4  6  1  0  0  0
  6  7  2  0  0  0
  7  8  1  0  0  0
  8  9  2  0  0  0
  9 10  1  0  0  0
 10 11  2  0  0  0
 10 12  1  0  0  0
 12 13  1  0  0  0
 12 14  1  0  0  0
 12 15  1  0  0  0
  9 16  1  0  0  0
 16 17  3  0  0  0
 20 21  1  0  0  0
 21 22  1  0  0  0
 22 23  2  0  0  0
 22 25  1  0  0  0
 25 26  2  0  0  0
 26 27  1  0  0  0
 27 28  2  0  0  0
 28 29  1  0  0  0
 29 30  2  0  0  0
 28 31  1  0  0  0
  5  1  2  0  0  0
 11  6  1  0  0  0
 30 25  1  0  0  0
 21 24  1  0  0  0
M  END
>  <minimizedAffinity>
-10.14964

>  <minimizedRMSD>
1.20123

$$$$
CHEMBL4981151 12418551 ChemDiv-8018-6093 MCULE-4888070917 MolPort-002-745-081 PubChem-5311701 ZINC000012418551 ZINC12418551


 37 39  0  0  0  0  0  0  0  0999 V2000
   17.5602  -10.5447   13.9207 N   0  0  0  0  0  0  0  0  0  0  0  0
   16.4152  -10.1220   13.1753 C   0  0  0  0  0  0  0  0  0  0  0  0
   15.3219   -9.8929   13.7599 O   0  0  0  0  0  0  0  0  0  0  0  0
   18.3921  -10.7442   13.4335 H   0  0  0  0  0  0  0  0  0  0  0  0
   16.5142   -9.9608   11.7228 C   0  0  0  0  0  0  0  0  0  0  0  0
   17.5124   -9.3029   11.1021 N   0  0  0  0  0  0  0  0  0  0  0  0
   17.1515   -9.4363    9.8074 C   0  0  0  0  0  0  0  0  0  0  0  0
   16.0060  -10.1323    9.6601 N   0  0  0  0  0  0  0  0  0  0  0  0
   15.6439  -10.4385   10.8683 O   0  0  0  0  0  0  0  0  0  0  0  0
   17.9229   -8.8838    8.6829 C   0  0  0  0  0  0  0  0  0  0  0  0
   18.9104   -7.9164    8.9107 C   0  0  0  0  0  0  0  0  0  0  0  0
   19.6444   -7.3926    7.8429 C   0  0  0  0  0  0  0  0  0  0  0  0
   19.4088   -7.8386    6.5349 C   0  0  0  0  0  0  0  0  0  0  0  0
   18.4061   -8.7913    6.3058 C   0  0  0  0  0  0  0  0  0  0  0  0
   17.6721   -9.3149    7.3736 C   0  0  0  0  0  0  0  0  0  0  0  0
   20.1606   -7.2376    5.3828 C   0  0  0  0  0  0  0  0  0  0  0  0
   19.8621   -5.8907    5.2958 F   0  0  0  0  0  0  0  0  0  0  0  0
   21.5245   -7.3877    5.5656 F   0  0  0  0  0  0  0  0  0  0  0  0
   19.8039   -7.8572    4.1975 F   0  0  0  0  0  0  0  0  0  0  0  0
   17.5486  -10.6928   15.3687 C   0  0  0  0  0  0  0  0  0  0  0  0
   18.0021   -9.4029   16.0319 C   0  0  0  0  0  0  0  0  0  0  0  0
   15.9695   -8.1409   16.8628 C   0  0  0  0  0  0  0  0  0  0  0  0
   15.7955   -7.6257   15.7242 O   0  0  0  0  0  0  0  0  0  0  0  0
   17.0699   -9.0294   17.0848 N   0  0  0  0  0  0  0  0  0  0  0  0
   17.2013   -9.4027   17.9863 H   0  0  0  0  0  0  0  0  0  0  0  0
   14.6197   -7.5401   20.3501 C   0  0  0  0  0  0  0  0  0  0  0  0
   15.4880   -7.8376   19.2876 C   0  0  0  0  0  0  0  0  0  0  0  0
   15.0430   -7.8253   17.9638 C   0  0  0  0  0  0  0  0  0  0  0  0
   13.7084   -7.5108   17.6985 C   0  0  0  0  0  0  0  0  0  0  0  0
   12.8191   -7.2095   18.7400 C   0  0  0  0  0  0  0  0  0  0  0  0
   13.2658   -7.2215   20.0725 C   0  0  0  0  0  0  0  0  0  0  0  0
   16.0178   -6.6057   22.1731 C   0  0  0  0  0  0  0  0  0  0  0  0
   15.0935   -7.5600   21.6671 O   0  0  0  0  0  0  0  0  0  0  0  0
   11.4816   -6.8942   18.4739 O   0  0  0  0  0  0  0  0  0  0  0  0
   10.5809   -7.8081   17.8628 C   0  0  0  0  0  0  0  0  0  0  0  0
   12.3258   -6.9108   21.0699 O   0  0  0  0  0  0  0  0  0  0  0  0
   12.1970   -5.6468   21.7050 C   0  0  0  0  0  0  0  0  0  0  0  0
 32 33  1  0  0  0
 33 26  1  0  0  0
 26 27  2  0  0  0
 27 28  1  0  0  0
 28 29  2  0  0  0
 28 22  1  0  0  0
 29 30  1  0  0  0
 30 34  1  0  0  0
 30 31  2  0  0  0
 34 35  1  0  0  0
 31 36  1  0  0  0
 31 26  1  0  0  0
 36 37  1  0  0  0
 22 23  2  0  0  0
 22 24  1  0  0  0
 24 21  1  0  0  0
 21 20  1  0  0  0
 20  1  1  0  0  0
  1  2  1  0  0  0
  2  3  2  0  0  0
  2  5  1  0  0  0
  5  6  2  0  0  0
  6  7  1  0  0  0
  7  8  2  0  0  0
  7 10  1  0  0  0
  8  9  1  0  0  0
  9  5  1  0  0  0
 10 11  2  0  0  0
 11 12  1  0  0  0
 12 13  2  0  0  0
 13 14  1  0  0  0
 13 16  1  0  0  0
 14 15  2  0  0  0
 15 10  1  0  0  0
 16 17  1  0  0  0
 16 18  1  0  0  0
 16 19  1  0  0  0
 24 25  1  0  0  0
  1  4  1  0  0  0
M  END
>  <minimizedAffinity>
-10.13731

>  <minimizedRMSD>
1.97593

$$$$
CHEMBL4476291 PubChem-155538166


 36 40  0  0  0  0  0  0  0  0999 V2000
   16.3689   -8.0660   16.0448 C   0  0  0  0  0  0  0  0  0  0  0  0
   16.3304   -8.1425   14.5601 C   0  0  0  0  0  0  0  0  0  0  0  0
   16.9452   -9.4734   14.4512 N   0  0  0  0  0  0  0  0  0  0  0  0
   17.0038   -9.4072   15.9176 C   0  0  0  0  0  0  0  0  0  0  0  0
   17.3164  -10.3983   13.4298 C   0  0  0  0  0  0  0  0  0  0  0  0
   17.8524  -11.4922   13.7479 O   0  0  0  0  0  0  0  0  0  0  0  0
   17.0800  -10.0915   12.0143 C   0  0  0  0  0  0  0  0  0  0  0  0
   17.9562   -9.5121   11.2292 O   0  0  0  0  0  0  0  0  0  0  0  0
   17.3595   -9.4237   10.0639 C   0  0  0  0  0  0  0  0  0  0  0  0
   16.1167   -9.9427   10.1124 N   0  0  0  0  0  0  0  0  0  0  0  0
   15.9394  -10.3676   11.3537 N   0  0  0  0  0  0  0  0  0  0  0  0
   17.9670   -8.8357    8.8625 C   0  0  0  0  0  0  0  0  0  0  0  0
   17.5996   -9.2862    7.5879 C   0  0  0  0  0  0  0  0  0  0  0  0
   18.1804   -8.7245    6.4471 C   0  0  0  0  0  0  0  0  0  0  0  0
   19.1333   -7.7079    6.5672 C   0  0  0  0  0  0  0  0  0  0  0  0
   19.5014   -7.2560    7.8449 C   0  0  0  0  0  0  0  0  0  0  0  0
   18.9206   -7.8176    8.9852 C   0  0  0  0  0  0  0  0  0  0  0  0
   19.6960   -7.1673    5.4078 O   0  0  0  0  0  0  0  0  0  0  0  0
   21.0951   -7.1709    5.1597 C   0  0  0  0  0  0  0  0  0  0  0  0
   15.0487   -8.2052   16.5573 O   0  0  0  0  0  0  0  0  0  0  0  0
   13.8840   -6.9249   20.3932 C   0  0  0  0  0  0  0  0  0  0  0  0
   13.0123   -6.7868   19.2961 C   0  0  0  0  0  0  0  0  0  0  0  0
   13.4171   -7.2189   18.0293 C   0  0  0  0  0  0  0  0  0  0  0  0
   14.6808   -7.7854   17.8396 C   0  0  0  0  0  0  0  0  0  0  0  0
   15.5478   -7.9181   18.9350 C   0  0  0  0  0  0  0  0  0  0  0  0
   15.1502   -7.4890   20.2031 C   0  0  0  0  0  0  0  0  0  0  0  0
   11.6528   -6.1933   19.4477 C   0  0  0  0  0  0  0  0  0  0  0  0
   13.4977   -6.4624   21.7627 C   0  0  0  0  0  0  0  0  0  0  0  0
   14.1736   -5.2118   22.0831 N   0  0  0  0  0  0  0  0  0  0  0  0
   15.0066   -5.4242   23.2579 C   0  0  0  0  0  0  0  0  0  0  0  0
   13.1917   -4.1343   22.2986 C   0  0  0  0  0  0  0  0  0  0  0  0
   11.8298   -4.5502   22.8909 C   0  0  0  0  0  0  0  0  0  0  0  0
   11.5768   -6.0356   23.0802 C   0  0  0  0  0  0  0  0  0  0  0  0
   11.3647   -3.7095   24.0454 C   0  0  0  0  0  0  0  0  0  0  0  0
   10.3239   -3.1377   23.2951 O   0  0  0  0  0  0  0  0  0  0  0  0
   10.6945   -3.8898   22.1674 C   0  0  0  0  0  0  0  0  0  0  0  0
 21 22  2  0  0  0
 22 23  1  0  0  0
 23 24  2  0  0  0
 24 25  1  0  0  0
 25 26  2  0  0  0
 24 20  1  0  0  0
 20  1  1  0  0  0
  1  2  1  0  0  0
  2  3  1  0  0  0
  3  4  1  0  0  0
  3  5  1  0  0  0
  5  6  2  0  0  0
  5  7  1  0  0  0
  7  8  1  0  0  0
  8  9  1  0  0  0
  9 10  2  0  0  0
 10 11  1  0  0  0
  9 12  1  0  0  0
 12 13  2  0  0  0
 13 14  1  0  0  0
 14 15  2  0  0  0
 15 16  1  0  0  0
 16 17  2  0  0  0
 15 18  1  0  0  0
 18 19  1  0  0  0
 22 27  1  0  0  0
 21 28  1  0  0  0
 28 29  1  0  0  0
 29 30  1  0  0  0
 29 31  1  0  0  0
 31 32  1  0  0  0
 32 33  1  0  0  0
 32 34  1  0  0  0
 34 35  1  0  0  0
 35 36  1  0  0  0
 26 21  1  0  0  0
  4  1  1  0  0  0
 11  7  2  0  0  0
 17 12  1  0  0  0
 36 32  1  0  0  0
M  END
>  <minimizedAffinity>
-10.12975

>  <minimizedRMSD>
1.83562

$$$$
CHEMBL178278 PubChem-160524662 PubChem-162204723 PubChem-44390867


 35 38  0  0  0  0  0  0  0  0999 V2000
   15.8869   -7.6663   18.7098 N   0  0  0  0  0  0  0  0  0  0  0  0
   15.5392   -8.4904   17.5901 C   0  0  0  0  0  0  0  0  0  0  0  0
   14.3355   -8.7717   17.3409 O   0  0  0  0  0  0  0  0  0  0  0  0
   16.5803   -8.9911   16.7497 N   0  0  0  0  0  0  0  0  0  0  0  0
   16.8453   -7.4850   18.8428 H   0  0  0  0  0  0  0  0  0  0  0  0
   17.5105   -8.7382   16.9497 H   0  0  0  0  0  0  0  0  0  0  0  0
   12.8419   -6.0975   20.2458 C   0  0  0  0  0  0  0  0  0  0  0  0
   13.6922   -6.6706   19.2973 C   0  0  0  0  0  0  0  0  0  0  0  0
   14.9847   -7.0781   19.6567 C   0  0  0  0  0  0  0  0  0  0  0  0
   15.4118   -6.9098   20.9776 C   0  0  0  0  0  0  0  0  0  0  0  0
   14.5677   -6.3428   21.9425 C   0  0  0  0  0  0  0  0  0  0  0  0
   13.2789   -5.9410   21.5660 C   0  0  0  0  0  0  0  0  0  0  0  0
   15.0065   -6.1624   23.3437 C   0  0  0  0  0  0  0  0  0  0  0  0
   14.1570   -6.0079   24.3789 N   0  0  0  0  0  0  0  0  0  0  0  0
   14.9286   -5.8780   25.4504 N   0  0  0  0  0  0  0  0  0  0  0  0
   16.2046   -5.9478   25.1016 N   0  0  0  0  0  0  0  0  0  0  0  0
   16.2761   -6.1246   23.7959 N   0  0  0  0  0  0  0  0  0  0  0  0
   17.5229   -6.2465   23.0587 C   0  0  0  0  0  0  0  0  0  0  0  0
   10.8324   -4.8251   20.9262 C   0  0  0  0  0  0  0  0  0  0  0  0
   11.4649   -5.6868   19.8488 C   0  0  0  0  0  0  0  0  0  0  0  0
   16.3235   -9.8597   15.6098 C   0  0  0  0  0  0  0  0  0  0  0  0
   16.8044  -11.2877   15.9071 C   0  0  0  0  0  0  0  0  0  0  0  0
   18.2805  -11.4645   15.5523 C   0  0  0  0  0  0  0  0  0  0  0  0
   18.5819  -11.0294   14.1073 C   0  0  0  0  0  0  0  0  0  0  0  0
   17.4532  -10.3391   13.4750 N   0  0  0  0  0  0  0  0  0  0  0  0
   16.9980   -9.2723   14.3647 C   0  0  0  0  0  0  0  0  0  0  0  0
   17.9693   -9.7062   12.2716 C   0  0  0  0  0  0  0  0  0  0  0  0
   16.9676   -9.8408   11.1314 C   0  0  0  0  0  0  0  0  0  0  0  0
   17.5133   -9.2767    9.8613 C   0  0  0  0  0  0  0  0  0  0  0  0
   18.5205   -8.3033    9.8893 C   0  0  0  0  0  0  0  0  0  0  0  0
   19.0191   -7.7771    8.6938 C   0  0  0  0  0  0  0  0  0  0  0  0
   18.5103   -8.2199    7.4690 C   0  0  0  0  0  0  0  0  0  0  0  0
   18.9938   -7.7103    6.3110 F   0  0  0  0  0  0  0  0  0  0  0  0
   17.5005   -9.1866    7.4395 C   0  0  0  0  0  0  0  0  0  0  0  0
   17.0014   -9.7133    8.6347 C   0  0  0  0  0  0  0  0  0  0  0  0
 19 20  1  0  0  0
 20  7  1  0  0  0
  7  8  2  0  0  0
  8  9  1  0  0  0
  9  1  1  0  0  0
  9 10  2  0  0  0
  1  2  1  0  0  0
  2  3  2  0  0  0
  2  4  1  0  0  0
 21  4  1  0  0  0
 21 22  1  0  0  0
 22 23  1  0  0  0
 23 24  1  0  0  0
 24 25  1  0  0  0
 25 27  1  0  0  0
 25 26  1  0  0  0
 27 28  1  0  0  0
 28 29  1  0  0  0
 29 30  2  0  0  0
 30 31  1  0  0  0
 31 32  2  0  0  0
 32 33  1  0  0  0
 32 34  1  0  0  0
 34 35  2  0  0  0
 35 29  1  0  0  0
 26 21  1  0  0  0
 10 11  1  0  0  0
 11 13  1  0  0  0
 11 12  2  0  0  0
 13 14  2  0  0  0
 14 15  1  0  0  0
 15 16  2  0  0  0
 16 17  1  0  0  0
 17 18  1  0  0  0
 17 13  1  0  0  0
 12  7  1  0  0  0
  1  5  1  0  0  0
  4  6  1  0  0  0
M  END
>  <minimizedAffinity>
-10.11201

>  <minimizedRMSD>
1.94756

$$$$
CHEMBL383105 NSC703558 PubChem-396779


 35 39  0  0  0  0  0  0  0  0999 V2000
   14.4854   -8.2234   17.4686 O   0  0  0  0  0  0  0  0  0  0  0  0
   13.0393   -6.9427   18.9174 C   0  0  0  0  0  0  0  0  0  0  0  0
   14.2782   -7.5433   18.6756 C   0  0  0  0  0  0  0  0  0  0  0  0
   15.2910   -7.4463   19.6388 C   0  0  0  0  0  0  0  0  0  0  0  0
   15.0864   -6.7823   20.8523 C   0  0  0  0  0  0  0  0  0  0  0  0
   13.8320   -6.1590   21.0967 C   0  0  0  0  0  0  0  0  0  0  0  0
   12.8316   -6.2507   20.1179 C   0  0  0  0  0  0  0  0  0  0  0  0
   13.5254   -5.3556   22.3044 C   0  0  0  0  0  0  0  0  0  0  0  0
   12.6930   -4.4112   22.2163 O   0  0  0  0  0  0  0  0  0  0  0  0
   14.1111   -5.6515   23.5772 N   0  0  0  0  0  0  0  0  0  0  0  0
   13.7890   -4.9129   24.7809 C   0  0  0  0  0  0  0  0  0  0  0  0
   14.3800   -5.7128   25.9256 C   0  0  0  0  0  0  0  0  0  0  0  0
   15.2716   -6.7768   25.2990 C   0  0  0  0  0  0  0  0  0  0  0  0
   14.9406   -6.8082   23.8188 C   0  0  0  0  0  0  0  0  0  0  0  0
   16.1970   -6.6834   23.0337 C   0  0  0  0  0  0  0  0  0  0  0  0
   16.2160   -6.6903   21.7366 N   0  0  0  0  0  0  0  0  0  0  0  0
   10.9031   -7.8904   18.0997 C   0  0  0  0  0  0  0  0  0  0  0  0
   12.0315   -7.0392   17.9516 O   0  0  0  0  0  0  0  0  0  0  0  0
   15.5688   -7.9420   16.5869 C   0  0  0  0  0  0  0  0  0  0  0  0
   16.6141   -9.0478   16.6498 C   0  0  0  0  0  0  0  0  0  0  0  0
   16.2662  -10.1816   15.6992 C   0  0  0  0  0  0  0  0  0  0  0  0
   16.4310   -9.7455   14.3214 N   0  0  0  0  0  0  0  0  0  0  0  0
   17.1834  -10.5027   13.3712 C   0  0  0  0  0  0  0  0  0  0  0  0
   17.7283  -11.5874   13.7122 O   0  0  0  0  0  0  0  0  0  0  0  0
   16.0112   -8.9025   14.0344 H   0  0  0  0  0  0  0  0  0  0  0  0
   17.3246  -10.0176   11.9931 C   0  0  0  0  0  0  0  0  0  0  0  0
   18.3986   -9.2495   11.5373 C   0  0  0  0  0  0  0  0  0  0  0  0
   18.0947   -9.0438   10.2120 C   0  0  0  0  0  0  0  0  0  0  0  0
   18.8002   -8.3426    9.2369 C   0  0  0  0  0  0  0  0  0  0  0  0
   18.2495   -8.2921    7.9438 C   0  0  0  0  0  0  0  0  0  0  0  0
   17.0248   -8.9345    7.6611 C   0  0  0  0  0  0  0  0  0  0  0  0
   16.3367   -9.6347    8.6683 C   0  0  0  0  0  0  0  0  0  0  0  0
   16.9074   -9.6667    9.9390 C   0  0  0  0  0  0  0  0  0  0  0  0
   16.4108  -10.2765   11.0250 N   0  0  0  0  0  0  0  0  0  0  0  0
   15.5761  -10.7928   11.1019 H   0  0  0  0  0  0  0  0  0  0  0  0
 17 18  1  0  0  0
 18  2  1  0  0  0
  2  3  2  0  0  0
  3  4  1  0  0  0
  3  1  1  0  0  0
  4  5  2  0  0  0
  5  6  1  0  0  0
  6  7  2  0  0  0
  6  8  1  0  0  0
  7  2  1  0  0  0
  8  9  2  0  0  0
  8 10  1  0  0  0
 10 11  1  0  0  0
 11 12  1  0  0  0
 12 13  1  0  0  0
 14 13  1  0  0  0
 14 15  1  0  0  0
 14 10  1  0  0  0
 15 16  2  0  0  0
 16  5  1  0  0  0
  1 19  1  0  0  0
 19 20  1  0  0  0
 20 21  1  0  0  0
 21 22  1  0  0  0
 22 23  1  0  0  0
 23 24  2  0  0  0
 23 26  1  0  0  0
 26 27  2  0  0  0
 27 28  1  0  0  0
 28 29  2  0  0  0
 29 30  1  0  0  0
 30 31  2  0  0  0
 31 32  1  0  0  0
 32 33  2  0  0  0
 33 34  1  0  0  0
 33 28  1  0  0  0
 34 26  1  0  0  0
 22 25  1  0  0  0
 34 35  1  0  0  0
M  END
>  <minimizedAffinity>
-10.02753

>  <minimizedRMSD>
1.60783

$$$$
CHEMBL4750370 ChemDiv-P162-0995 MCULE-5968246780 MolPort-010-920-381 PubChem-53162198 ZINC000065214663 ZINC65214663


 31 34  0  0  0  0  0  0  0  0999 V2000
   17.5083   -9.5458   16.1744 C   0  0  0  0  0  0  0  0  0  0  0  0
   17.6816  -10.0295   14.7764 C   0  0  0  0  0  0  0  0  0  0  0  0
   18.0822  -11.2725   14.4525 N   0  0  0  0  0  0  0  0  0  0  0  0
   18.0908  -11.3240   13.1295 N   0  0  0  0  0  0  0  0  0  0  0  0
   17.6912  -10.1103   12.7001 C   0  0  0  0  0  0  0  0  0  0  0  0
   17.4361   -9.3104   13.7086 O   0  0  0  0  0  0  0  0  0  0  0  0
   17.5565   -9.7328   11.2868 C   0  0  0  0  0  0  0  0  0  0  0  0
   16.4679  -10.1920   10.5305 C   0  0  0  0  0  0  0  0  0  0  0  0
   16.3374   -9.8334    9.1851 C   0  0  0  0  0  0  0  0  0  0  0  0
   17.2960   -9.0121    8.5868 C   0  0  0  0  0  0  0  0  0  0  0  0
   17.1764   -8.6586    7.2791 N   0  0  0  0  0  0  0  0  0  0  0  0
   18.0962   -7.8598    6.6723 C   0  0  0  0  0  0  0  0  0  0  0  0
   19.1962   -7.3804    7.3899 C   0  0  0  0  0  0  0  0  0  0  0  0
   19.3432   -7.7283    8.7345 C   0  0  0  0  0  0  0  0  0  0  0  0
   18.3930   -8.5477    9.3440 C   0  0  0  0  0  0  0  0  0  0  0  0
   18.5186   -8.9089   10.6873 C   0  0  0  0  0  0  0  0  0  0  0  0
   15.7975   -8.0966   17.3304 N   0  0  0  0  0  0  0  0  0  0  0  0
   16.0933   -9.1442   16.4041 C   0  0  0  0  0  0  0  0  0  0  0  0
   15.1671   -9.7551   15.8072 O   0  0  0  0  0  0  0  0  0  0  0  0
   16.5423   -7.6698   17.8124 H   0  0  0  0  0  0  0  0  0  0  0  0
   14.4415   -7.6330   17.5919 C   0  0  0  0  0  0  0  0  0  0  0  0
   14.0015   -6.5304   21.7232 C   0  0  0  0  0  0  0  0  0  0  0  0
   15.1436   -7.2247   21.2894 C   0  0  0  0  0  0  0  0  0  0  0  0
   15.2850   -7.5870   19.9483 C   0  0  0  0  0  0  0  0  0  0  0  0
   14.2858   -7.2621   19.0278 C   0  0  0  0  0  0  0  0  0  0  0  0
   13.1490   -6.5690   19.4509 C   0  0  0  0  0  0  0  0  0  0  0  0
   12.9985   -6.1998   20.7979 C   0  0  0  0  0  0  0  0  0  0  0  0
   14.8128   -6.4515   24.0610 C   0  0  0  0  0  0  0  0  0  0  0  0
   13.8438   -6.1601   23.0632 O   0  0  0  0  0  0  0  0  0  0  0  0
   11.8656   -5.5059   21.2367 O   0  0  0  0  0  0  0  0  0  0  0  0
   10.8369   -5.0769   20.3549 C   0  0  0  0  0  0  0  0  0  0  0  0
 28 29  1  0  0  0
 29 22  1  0  0  0
 22 23  2  0  0  0
 23 24  1  0  0  0
 24 25  2  0  0  0
 25 21  1  0  0  0
 25 26  1  0  0  0
 21 17  1  0  0  0
 17 18  1  0  0  0
 18 19  2  0  0  0
 18  1  1  0  0  0
  1  2  1  0  0  0
  2  3  2  0  0  0
  3  4  1  0  0  0
  4  5  2  0  0  0
  5  6  1  0  0  0
  5  7  1  0  0  0
  6  2  1  0  0  0
  7  8  2  0  0  0
  8  9  1  0  0  0
  9 10  2  0  0  0
 10 11  1  0  0  0
 11 12  2  0  0  0
 12 13  1  0  0  0
 13 14  2  0  0  0
 14 15  1  0  0  0
 15 16  2  0  0  0
 15 10  1  0  0  0
 16  7  1  0  0  0
 26 27  2  0  0  0
 27 30  1  0  0  0
 27 22  1  0  0  0
 30 31  1  0  0  0
 17 20  1  0  0  0
M  END
>  <minimizedAffinity>
-10.02528

>  <minimizedRMSD>
1.98061

$$$$
CHEMBL4632665 PubChem-154640819


 32 35  0  0  0  0  0  0  0  0999 V2000
   13.9287   -7.3703   17.7242 N   0  0  0  0  0  0  0  0  0  0  0  0
   15.0411   -7.8127   18.3683 C   0  0  0  0  0  0  0  0  0  0  0  0
   15.1815   -7.5823   19.6993 N   0  0  0  0  0  0  0  0  0  0  0  0
   14.2338   -6.9158   20.4160 C   0  0  0  0  0  0  0  0  0  0  0  0
   13.0761   -6.4519   19.7606 C   0  0  0  0  0  0  0  0  0  0  0  0
   12.9528   -6.7009   18.3879 C   0  0  0  0  0  0  0  0  0  0  0  0
   12.1146   -5.7809   20.4634 N   0  0  0  0  0  0  0  0  0  0  0  0
   12.2734   -5.5587   21.8015 C   0  0  0  0  0  0  0  0  0  0  0  0
   11.3878   -4.9392   22.4554 O   0  0  0  0  0  0  0  0  0  0  0  0
   13.4246   -6.0190   22.4579 C   0  0  0  0  0  0  0  0  0  0  0  0
   13.5596   -5.8070   23.6961 O   0  0  0  0  0  0  0  0  0  0  0  0
   14.3925   -6.6917   21.7617 N   0  0  0  0  0  0  0  0  0  0  0  0
   10.9091   -5.2949   19.7937 C   0  0  0  0  0  0  0  0  0  0  0  0
   15.5813   -7.1551   22.4966 C   0  0  0  0  0  0  0  0  0  0  0  0
   15.2662   -7.5129   23.9357 C   0  0  0  0  0  0  0  0  0  0  0  0
   16.5241   -7.1741   24.7011 C   0  0  0  0  0  0  0  0  0  0  0  0
   17.1538   -6.0120   23.9591 C   0  0  0  0  0  0  0  0  0  0  0  0
   16.6919   -6.1165   22.5164 C   0  0  0  0  0  0  0  0  0  0  0  0
   16.0770   -8.5217   17.6713 N   0  0  0  0  0  0  0  0  0  0  0  0
   16.7310   -9.0091   18.2226 H   0  0  0  0  0  0  0  0  0  0  0  0
   16.2475   -8.5870   16.2746 N   0  0  0  0  0  0  0  0  0  0  0  0
   16.6714   -9.6409   15.6515 C   0  0  0  0  0  0  0  0  0  0  0  0
   16.8318   -9.6571   14.1943 C   0  0  0  0  0  0  0  0  0  0  0  0
   18.0229  -10.0938   13.5964 C   0  0  0  0  0  0  0  0  0  0  0  0
   18.1493  -10.0992   12.2043 C   0  0  0  0  0  0  0  0  0  0  0  0
   17.0864   -9.6708   11.4018 C   0  0  0  0  0  0  0  0  0  0  0  0
   15.8989   -9.2314   11.9973 C   0  0  0  0  0  0  0  0  0  0  0  0
   15.7724   -9.2259   13.3895 C   0  0  0  0  0  0  0  0  0  0  0  0
   17.2488   -9.6662    9.6551 S   0  0  0  0  0  0  0  0  0  0  0  0
   18.0403  -10.8664    9.2171 O   0  0  0  0  0  0  0  0  0  0  0  0
   15.8880   -9.7236    9.0199 O   0  0  0  0  0  0  0  0  0  0  0  0
   18.0828   -8.1847    9.1384 C   0  0  0  0  0  0  0  0  0  0  0  0
  1  2  2  0  0  0
  2  3  1  0  0  0
  3  4  2  0  0  0
  4  5  1  0  0  0
  5  6  2  0  0  0
  5  7  1  0  0  0
  7  8  1  0  0  0
  8  9  2  0  0  0
  8 10  1  0  0  0
 10 11  2  0  0  0
 10 12  1  0  0  0
 12 14  1  0  0  0
 14 15  1  0  0  0
 15 16  1  0  0  0
 16 17  1  0  0  0
 17 18  1  0  0  0
  7 13  1  0  0  0
  2 19  1  0  0  0
 19 21  1  0  0  0
 21 22  2  0  0  0
 22 23  1  0  0  0
 23 24  2  0  0  0
 24 25  1  0  0  0
 25 26  2  0  0  0
 26 27  1  0  0  0
 27 28  2  0  0  0
 26 29  1  0  0  0
 29 30  2  0  0  0
 29 31  2  0  0  0
 29 32  1  0  0  0
  6  1  1  0  0  0
 18 14  1  0  0  0
 28 23  1  0  0  0
 12  4  1  0  0  0
 19 20  1  0  0  0
M  END
>  <minimizedAffinity>
-10.02473

>  <minimizedRMSD>
1.54127

$$$$
CHEMBL285192 PubChem-10386147


 33 35  0  0  0  0  0  0  0  0999 V2000
   15.9603   -8.3116   18.1677 N   0  0  0  0  0  0  0  0  0  0  0  0
   15.9044   -8.2409   16.7345 C   0  0  0  0  0  0  0  0  0  0  0  0
   14.9686   -7.6220   16.1582 O   0  0  0  0  0  0  0  0  0  0  0  0
   16.7165   -8.8092   18.5549 H   0  0  0  0  0  0  0  0  0  0  0  0
   12.7914   -6.9563   19.6859 C   0  0  0  0  0  0  0  0  0  0  0  0
   13.6865   -7.5233   18.7633 C   0  0  0  0  0  0  0  0  0  0  0  0
   15.0307   -7.7340   19.0944 C   0  0  0  0  0  0  0  0  0  0  0  0
   15.4818   -7.3797   20.3660 C   0  0  0  0  0  0  0  0  0  0  0  0
   14.6063   -6.8112   21.2924 C   0  0  0  0  0  0  0  0  0  0  0  0
   13.2652   -6.5827   20.9668 C   0  0  0  0  0  0  0  0  0  0  0  0
   10.7898   -7.5624   18.3551 C   0  0  0  0  0  0  0  0  0  0  0  0
   11.4449   -6.7823   19.3464 O   0  0  0  0  0  0  0  0  0  0  0  0
   12.4542   -5.9998   21.9527 O   0  0  0  0  0  0  0  0  0  0  0  0
   11.9234   -4.6808   21.8941 C   0  0  0  0  0  0  0  0  0  0  0  0
   12.9514   -3.6956   22.3331 C   0  0  0  0  0  0  0  0  0  0  0  0
   13.7211   -3.1693   21.4885 O   0  0  0  0  0  0  0  0  0  0  0  0
   13.0771   -3.3764   23.6783 O   0  0  0  0  0  0  0  0  0  0  0  0
   12.5043   -3.7678   24.3081 H   0  0  0  0  0  0  0  0  0  0  0  0
   16.9501   -8.8970   15.9298 C   0  0  0  0  0  0  0  0  0  0  0  0
   18.2804   -8.9082   16.3707 C   0  0  0  0  0  0  0  0  0  0  0  0
   19.2715   -9.5296   15.6076 C   0  0  0  0  0  0  0  0  0  0  0  0
   18.9384  -10.1442   14.3983 C   0  0  0  0  0  0  0  0  0  0  0  0
   17.6118  -10.1428   13.9431 C   0  0  0  0  0  0  0  0  0  0  0  0
   16.6263   -9.5169   14.7139 C   0  0  0  0  0  0  0  0  0  0  0  0
   17.2286  -10.7600   12.7056 N   0  0  0  0  0  0  0  0  0  0  0  0
   17.0108  -11.7193   12.7472 H   0  0  0  0  0  0  0  0  0  0  0  0
   17.1259  -10.1423   11.4151 C   0  0  0  0  0  0  0  0  0  0  0  0
   18.0875   -9.4050   10.9430 N   0  0  0  0  0  0  0  0  0  0  0  0
   17.9807   -8.7239    9.6546 C   0  0  0  0  0  0  0  0  0  0  0  0
   17.2233   -9.5924    8.6581 C   0  0  0  0  0  0  0  0  0  0  0  0
   15.8513   -9.9434    9.2307 C   0  0  0  0  0  0  0  0  0  0  0  0
   15.9571  -10.3838   10.6215 N   0  0  0  0  0  0  0  0  0  0  0  0
   15.1987  -10.8630   11.0269 H   0  0  0  0  0  0  0  0  0  0  0  0
 11 12  1  0  0  0
 12  5  1  0  0  0
  5  6  2  0  0  0
  6  7  1  0  0  0
  7  1  1  0  0  0
  7  8  2  0  0  0
  1  2  1  0  0  0
  2  3  2  0  0  0
  2 19  1  0  0  0
 19 20  2  0  0  0
 20 21  1  0  0  0
 21 22  2  0  0  0
 22 23  1  0  0  0
 23 25  1  0  0  0
 23 24  2  0  0  0
 25 27  1  0  0  0
 27 28  2  0  0  0
 28 29  1  0  0  0
 29 30  1  0  0  0
 30 31  1  0  0  0
 31 32  1  0  0  0
 32 27  1  0  0  0
 24 19  1  0  0  0
  8  9  1  0  0  0
  9 10  2  0  0  0
 10 13  1  0  0  0
 10  5  1  0  0  0
 13 14  1  0  0  0
 14 15  1  0  0  0
 15 16  2  0  0  0
 15 17  1  0  0  0
  1  4  1  0  0  0
 25 26  1  0  0  0
 32 33  1  0  0  0
 17 18  1  0  0  0
M  END
>  <minimizedAffinity>
-9.98534

>  <minimizedRMSD>
1.83028

$$$$
CHEMBL1719094


 31 33  0  0  0  0  0  0  0  0999 V2000
   14.7160   -7.8273   18.6485 C   0  0  0  0  0  0  0  0  0  0  0  0
   13.9661   -8.4172   17.8248 O   0  0  0  0  0  0  0  0  0  0  0  0
   16.1343   -8.0245   18.5863 N   0  0  0  0  0  0  0  0  0  0  0  0
   16.6724   -7.7479   19.3629 H   0  0  0  0  0  0  0  0  0  0  0  0
   12.8549   -4.7060   22.9688 O   0  0  0  0  0  0  0  0  0  0  0  0
   13.2619   -5.4480   21.8653 C   0  0  0  0  0  0  0  0  0  0  0  0
   14.3371   -6.2670   21.9691 N   0  0  0  0  0  0  0  0  0  0  0  0
   14.7637   -6.9976   20.9386 N   0  0  0  0  0  0  0  0  0  0  0  0
   14.1526   -6.9716   19.7221 C   0  0  0  0  0  0  0  0  0  0  0  0
   13.0258   -6.1329   19.5517 C   0  0  0  0  0  0  0  0  0  0  0  0
   12.5798   -5.3615   20.6498 C   0  0  0  0  0  0  0  0  0  0  0  0
   11.4669   -4.5207   20.5119 C   0  0  0  0  0  0  0  0  0  0  0  0
   10.7932   -4.4384   19.2919 C   0  0  0  0  0  0  0  0  0  0  0  0
   11.2279   -5.1949   18.2025 C   0  0  0  0  0  0  0  0  0  0  0  0
   12.3361   -6.0354   18.3318 C   0  0  0  0  0  0  0  0  0  0  0  0
   13.3226   -4.7745   23.7778 H   0  0  0  0  0  0  0  0  0  0  0  0
   16.8063   -8.5878   17.4867 N   0  0  0  0  0  0  0  0  0  0  0  0
   16.4389   -8.3663   16.1188 C   0  0  0  0  0  0  0  0  0  0  0  0
   15.6548   -7.4253   15.8179 O   0  0  0  0  0  0  0  0  0  0  0  0
   17.5783   -9.1713   17.6680 H   0  0  0  0  0  0  0  0  0  0  0  0
   17.0179   -9.2073   15.0566 C   0  0  0  0  0  0  0  0  0  0  0  0
   16.4926   -9.1704   13.7565 C   0  0  0  0  0  0  0  0  0  0  0  0
   17.0346   -9.9668   12.7421 C   0  0  0  0  0  0  0  0  0  0  0  0
   18.1160  -10.8101   13.0363 C   0  0  0  0  0  0  0  0  0  0  0  0
   18.6459  -10.8544   14.3280 C   0  0  0  0  0  0  0  0  0  0  0  0
   18.0983  -10.0556   15.3348 C   0  0  0  0  0  0  0  0  0  0  0  0
   16.4633   -9.8941   11.4286 N   0  0  0  0  0  0  0  0  0  0  0  0
   17.1410   -9.5367   10.2176 C   0  0  0  0  0  0  0  0  0  0  0  0
   18.3650   -9.2412   10.2143 O   0  0  0  0  0  0  0  0  0  0  0  0
   16.3832   -9.5147    8.9397 C   0  0  0  0  0  0  0  0  0  0  0  0
   15.5064  -10.1123   11.3509 H   0  0  0  0  0  0  0  0  0  0  0  0
  5  6  1  0  0  0
  6  7  2  0  0  0
  7  8  1  0  0  0
  8  9  2  0  0  0
  9 10  1  0  0  0
 10 11  2  0  0  0
 11 12  1  0  0  0
 12 13  2  0  0  0
 13 14  1  0  0  0
 14 15  2  0  0  0
  9  1  1  0  0  0
  1  2  2  0  0  0
  1  3  1  0  0  0
  3 17  1  0  0  0
 17 18  1  0  0  0
 18 19  2  0  0  0
 18 21  1  0  0  0
 21 22  2  0  0  0
 22 23  1  0  0  0
 23 27  1  0  0  0
 27 28  1  0  0  0
 28 29  2  0  0  0
 28 30  1  0  0  0
 23 24  2  0  0  0
 24 25  1  0  0  0
 25 26  2  0  0  0
 11  6  1  0  0  0
 26 21  1  0  0  0
 15 10  1  0  0  0
  5 16  1  0  0  0
  3  4  1  0  0  0
 17 20  1  0  0  0
 27 31  1  0  0  0
M  END
>  <minimizedAffinity>
-9.96586

>  <minimizedRMSD>
0.98188

$$$$
CHEMBL5012406 72139314 MCULE-8235426808 MolPort-020-181-693 PubChem-56919633 ZINC000072139314 ZINC72139314


 31 33  0  0  0  0  0  0  0  0999 V2000
   14.7755   -7.6402   18.2219 C   0  0  0  0  0  0  0  0  0  0  0  0
   13.9125   -7.4379   17.3246 O   0  0  0  0  0  0  0  0  0  0  0  0
   15.9834   -8.3579   17.9258 N   0  0  0  0  0  0  0  0  0  0  0  0
   16.6164   -8.4800   18.6699 H   0  0  0  0  0  0  0  0  0  0  0  0
   15.3455   -6.7184   21.8465 C   0  0  0  0  0  0  0  0  0  0  0  0
   15.5556   -7.1964   20.5452 C   0  0  0  0  0  0  0  0  0  0  0  0
   14.5427   -7.1346   19.5863 C   0  0  0  0  0  0  0  0  0  0  0  0
   13.3063   -6.5870   19.9383 C   0  0  0  0  0  0  0  0  0  0  0  0
   13.0681   -6.1007   21.2336 C   0  0  0  0  0  0  0  0  0  0  0  0
   14.1023   -6.1673   22.2019 C   0  0  0  0  0  0  0  0  0  0  0  0
   17.6872   -6.3332   22.5577 C   0  0  0  0  0  0  0  0  0  0  0  0
   16.3614   -6.7807   22.8074 O   0  0  0  0  0  0  0  0  0  0  0  0
   11.8195   -5.5573   21.5579 O   0  0  0  0  0  0  0  0  0  0  0  0
   10.9664   -4.9471   20.5981 C   0  0  0  0  0  0  0  0  0  0  0  0
   13.9555   -5.7062   23.5212 O   0  0  0  0  0  0  0  0  0  0  0  0
   14.1000   -4.3549   23.9344 C   0  0  0  0  0  0  0  0  0  0  0  0
   16.3654   -8.9157   16.6611 C   0  0  0  0  0  0  0  0  0  0  0  0
   16.1692   -8.2273   15.4552 C   0  0  0  0  0  0  0  0  0  0  0  0
   16.5543   -8.8044   14.2423 C   0  0  0  0  0  0  0  0  0  0  0  0
   17.1409  -10.0779   14.2175 C   0  0  0  0  0  0  0  0  0  0  0  0
   17.3355  -10.7626   15.4213 C   0  0  0  0  0  0  0  0  0  0  0  0
   16.9504  -10.1855   16.6349 C   0  0  0  0  0  0  0  0  0  0  0  0
   17.5501  -10.7057   12.9941 N   0  0  0  0  0  0  0  0  0  0  0  0
   17.9994  -11.5775   13.0800 H   0  0  0  0  0  0  0  0  0  0  0  0
   17.3790  -10.2073   11.6606 C   0  0  0  0  0  0  0  0  0  0  0  0
   16.2322  -10.4242   10.9594 N   0  0  0  0  0  0  0  0  0  0  0  0
   16.0744   -9.9599    9.7180 N   0  0  0  0  0  0  0  0  0  0  0  0
   17.0535   -9.2496    9.0998 C   0  0  0  0  0  0  0  0  0  0  0  0
   16.8507   -8.7447    7.7170 C   0  0  0  0  0  0  0  0  0  0  0  0
   18.2480   -8.9979    9.7708 C   0  0  0  0  0  0  0  0  0  0  0  0
   18.4116   -9.4830   11.0664 C   0  0  0  0  0  0  0  0  0  0  0  0
 11 12  1  0  0  0
 12  5  1  0  0  0
  5  6  2  0  0  0
  6  7  1  0  0  0
  7  8  2  0  0  0
  7  1  1  0  0  0
  8  9  1  0  0  0
  9 13  1  0  0  0
  9 10  2  0  0  0
 13 14  1  0  0  0
 10 15  1  0  0  0
 10  5  1  0  0  0
 15 16  1  0  0  0
  1  2  2  0  0  0
  1  3  1  0  0  0
  3 17  1  0  0  0
 17 18  2  0  0  0
 18 19  1  0  0  0
 19 20  2  0  0  0
 20 23  1  0  0  0
 20 21  1  0  0  0
 23 25  1  0  0  0
 25 26  2  0  0  0
 26 27  1  0  0  0
 27 28  2  0  0  0
 28 29  1  0  0  0
 28 30  1  0  0  0
 30 31  2  0  0  0
 31 25  1  0  0  0
 21 22  2  0  0  0
 22 17  1  0  0  0
  3  4  1  0  0  0
 23 24  1  0  0  0
M  END
>  <minimizedAffinity>
-9.95076

>  <minimizedRMSD>
1.95783

$$$$
CHEMBL1644305 PubChem-24949595


 30 32  0  0  0  0  0  0  0  0999 V2000
   16.7591   -9.3239   17.4056 C   0  0  0  0  0  0  0  0  0  0  0  0
   15.6873   -8.3235   17.0991 C   0  0  0  0  0  0  0  0  0  0  0  0
   15.4903   -7.8727   15.8894 N   0  0  0  0  0  0  0  0  0  0  0  0
   14.8708   -7.7826   18.2094 C   0  0  0  0  0  0  0  0  0  0  0  0
   15.3687   -7.7611   19.5205 C   0  0  0  0  0  0  0  0  0  0  0  0
   14.5949   -7.2514   20.5651 C   0  0  0  0  0  0  0  0  0  0  0  0
   13.3066   -6.7516   20.3187 C   0  0  0  0  0  0  0  0  0  0  0  0
   12.8026   -6.7739   19.0085 C   0  0  0  0  0  0  0  0  0  0  0  0
   11.4397   -6.2556   18.7052 C   0  0  0  0  0  0  0  0  0  0  0  0
   13.5815   -7.2852   17.9663 C   0  0  0  0  0  0  0  0  0  0  0  0
   12.5163   -6.2389   21.3567 O   0  0  0  0  0  0  0  0  0  0  0  0
   12.9966   -5.3065   22.3201 C   0  0  0  0  0  0  0  0  0  0  0  0
   12.7248   -3.9121   21.8703 C   0  0  0  0  0  0  0  0  0  0  0  0
   11.5493   -3.5566   21.5963 O   0  0  0  0  0  0  0  0  0  0  0  0
   13.7719   -3.0122   21.7264 O   0  0  0  0  0  0  0  0  0  0  0  0
   14.6476   -3.2759   21.9301 H   0  0  0  0  0  0  0  0  0  0  0  0
   16.1296   -8.2731   14.7252 O   0  0  0  0  0  0  0  0  0  0  0  0
   15.9497   -9.5453   14.1161 C   0  0  0  0  0  0  0  0  0  0  0  0
   16.8610   -9.6716   12.9455 C   0  0  0  0  0  0  0  0  0  0  0  0
   16.6553   -9.0645   11.7620 N   0  0  0  0  0  0  0  0  0  0  0  0
   17.7471   -9.4159   11.0437 C   0  0  0  0  0  0  0  0  0  0  0  0
   18.5823  -10.1753   11.7224 O   0  0  0  0  0  0  0  0  0  0  0  0
   18.0588  -10.3453   12.9090 C   0  0  0  0  0  0  0  0  0  0  0  0
   18.6818  -11.1340   14.0073 C   0  0  0  0  0  0  0  0  0  0  0  0
   17.9788   -8.9917    9.6555 C   0  0  0  0  0  0  0  0  0  0  0  0
   17.3142   -9.6278    8.5977 C   0  0  0  0  0  0  0  0  0  0  0  0
   17.5376   -9.2210    7.2788 C   0  0  0  0  0  0  0  0  0  0  0  0
   18.4266   -8.1764    7.0107 C   0  0  0  0  0  0  0  0  0  0  0  0
   19.0923   -7.5383    8.0612 C   0  0  0  0  0  0  0  0  0  0  0  0
   18.8689   -7.9449    9.3801 C   0  0  0  0  0  0  0  0  0  0  0  0
  1  2  1  0  0  0
  2  3  2  0  0  0
  2  4  1  0  0  0
  3 17  1  0  0  0
 17 18  1  0  0  0
 18 19  1  0  0  0
 19 20  1  0  0  0
 20 21  2  0  0  0
 21 25  1  0  0  0
 21 22  1  0  0  0
 25 26  2  0  0  0
 26 27  1  0  0  0
 27 28  2  0  0  0
 28 29  1  0  0  0
 29 30  2  0  0  0
 30 25  1  0  0  0
 22 23  1  0  0  0
 23 24  1  0  0  0
 23 19  2  0  0  0
  4  5  2  0  0  0
  5  6  1  0  0  0
  6  7  2  0  0  0
  7 11  1  0  0  0
  7  8  1  0  0  0
 11 12  1  0  0  0
 12 13  1  0  0  0
 13 14  2  0  0  0
 13 15  1  0  0  0
  8  9  1  0  0  0
  8 10  2  0  0  0
 10  4  1  0  0  0
 15 16  1  0  0  0
M  END
>  <minimizedAffinity>
-9.88189

>  <minimizedRMSD>
1.90191

$$$$
CHEMBL1426740 2916859 ChemDiv-E200-0329 MCULE-4258205514 MolPort-007-724-649 PubChem-3626966 ZINC000002916859 ZINC02916859


 31 33  0  0  0  0  0  0  0  0999 V2000
   16.3792   -9.2270   15.6897 C   0  0  0  0  0  0  0  0  0  0  0  0
   17.0600  -10.3134   16.2363 C   0  0  0  0  0  0  0  0  0  0  0  0
   17.7167  -11.1861   15.4370 N   0  0  0  0  0  0  0  0  0  0  0  0
   17.7331  -11.0338   14.0899 C   0  0  0  0  0  0  0  0  0  0  0  0
   18.3449  -11.8847   13.3882 O   0  0  0  0  0  0  0  0  0  0  0  0
   17.0800   -9.9786   13.5043 N   0  0  0  0  0  0  0  0  0  0  0  0
   16.4059   -9.0726   14.2875 C   0  0  0  0  0  0  0  0  0  0  0  0
   15.8211   -8.0892   13.7528 O   0  0  0  0  0  0  0  0  0  0  0  0
   18.1922  -11.9470   15.8420 H   0  0  0  0  0  0  0  0  0  0  0  0
   17.1027   -9.8219   12.0689 C   0  0  0  0  0  0  0  0  0  0  0  0
   18.1714   -9.1619   11.4441 C   0  0  0  0  0  0  0  0  0  0  0  0
   18.1995   -9.0073   10.0548 C   0  0  0  0  0  0  0  0  0  0  0  0
   19.3566   -8.2988    9.4360 C   0  0  0  0  0  0  0  0  0  0  0  0
   17.1461   -9.5182    9.2745 C   0  0  0  0  0  0  0  0  0  0  0  0
   17.1347   -9.3761    7.7900 C   0  0  0  0  0  0  0  0  0  0  0  0
   16.0802  -10.1763    9.8947 C   0  0  0  0  0  0  0  0  0  0  0  0
   16.0573  -10.3282   11.2830 C   0  0  0  0  0  0  0  0  0  0  0  0
   15.6934   -8.5354   18.0152 N   0  0  0  0  0  0  0  0  0  0  0  0
   15.6720   -8.2925   16.5994 C   0  0  0  0  0  0  0  0  0  0  0  0
   15.0561   -7.2948   16.1359 O   0  0  0  0  0  0  0  0  0  0  0  0
   16.1892   -9.3304   18.3174 H   0  0  0  0  0  0  0  0  0  0  0  0
   13.9047   -6.1998   21.0807 C   0  0  0  0  0  0  0  0  0  0  0  0
   13.2142   -6.3994   19.8757 C   0  0  0  0  0  0  0  0  0  0  0  0
   13.8024   -7.1709   18.8604 C   0  0  0  0  0  0  0  0  0  0  0  0
   15.0696   -7.7435   19.0353 C   0  0  0  0  0  0  0  0  0  0  0  0
   15.7499   -7.5396   20.2380 C   0  0  0  0  0  0  0  0  0  0  0  0
   15.1742   -6.7742   21.2542 C   0  0  0  0  0  0  0  0  0  0  0  0
   13.9577   -5.1543   23.3245 C   0  0  0  0  0  0  0  0  0  0  0  0
   13.3131   -5.4301   22.0884 O   0  0  0  0  0  0  0  0  0  0  0  0
   11.9496   -5.8246   19.7085 O   0  0  0  0  0  0  0  0  0  0  0  0
   11.6494   -4.9200   18.6544 C   0  0  0  0  0  0  0  0  0  0  0  0
 28 29  1  0  0  0
 29 22  1  0  0  0
 22 23  2  0  0  0
 23 30  1  0  0  0
 23 24  1  0  0  0
 30 31  1  0  0  0
 24 25  2  0  0  0
 25 18  1  0  0  0
 25 26  1  0  0  0
 18 19  1  0  0  0
 19 20  2  0  0  0
 19  1  1  0  0  0
  1  2  2  0  0  0
  2  3  1  0  0  0
  3  4  1  0  0  0
  4  5  2  0  0  0
  4  6  1  0  0  0
  6  7  1  0  0  0
  6 10  1  0  0  0
  7  8  2  0  0  0
  7  1  1  0  0  0
 10 11  2  0  0  0
 11 12  1  0  0  0
 12 13  1  0  0  0
 12 14  2  0  0  0
 14 15  1  0  0  0
 14 16  1  0  0  0
 16 17  2  0  0  0
 17 10  1  0  0  0
 26 27  2  0  0  0
 27 22  1  0  0  0
 18 21  1  0  0  0
  3  9  1  0  0  0
M  END
>  <minimizedAffinity>
-9.84209

>  <minimizedRMSD>
0.95695

$$$$
CHEMBL5290104


 34 36  0  0  0  0  0  0  0  0999 V2000
   16.6359   -9.9389   17.0272 O   0  0  0  0  0  0  0  0  0  0  0  0
   16.4514   -9.2647   15.9779 C   0  0  0  0  0  0  0  0  0  0  0  0
   15.6628   -8.0640   16.0014 N   0  0  0  0  0  0  0  0  0  0  0  0
   15.5560   -7.5806   15.1504 H   0  0  0  0  0  0  0  0  0  0  0  0
   17.0496   -9.7086   14.7116 C   0  0  0  0  0  0  0  0  0  0  0  0
   16.3695   -9.6235   13.5345 N   0  0  0  0  0  0  0  0  0  0  0  0
   17.0961  -10.0838   12.4980 C   0  0  0  0  0  0  0  0  0  0  0  0
   18.6084  -10.6061   13.0115 S   0  0  0  0  0  0  0  0  0  0  0  0
   18.3402  -10.2392   14.6330 C   0  0  0  0  0  0  0  0  0  0  0  0
   16.5938  -10.0860   11.1541 N   0  0  0  0  0  0  0  0  0  0  0  0
   15.7345  -10.5467   11.0179 H   0  0  0  0  0  0  0  0  0  0  0  0
   17.1830   -9.5028    9.9832 C   0  0  0  0  0  0  0  0  0  0  0  0
   16.7239   -9.9150    8.7281 C   0  0  0  0  0  0  0  0  0  0  0  0
   17.2731   -9.3784    7.5602 C   0  0  0  0  0  0  0  0  0  0  0  0
   18.2932   -8.4203    7.6323 C   0  0  0  0  0  0  0  0  0  0  0  0
   18.7562   -8.0078    8.8902 C   0  0  0  0  0  0  0  0  0  0  0  0
   18.2051   -8.5465   10.0559 C   0  0  0  0  0  0  0  0  0  0  0  0
   18.8546   -7.8717    6.4323 N   0  0  0  0  0  0  0  0  0  0  0  0
   19.4133   -6.7550    6.4458 O   0  0  0  0  0  0  0  0  0  0  0  0
   18.7865   -8.5725    5.2501 O   0  0  0  0  0  0  0  0  0  0  0  0
   15.0291   -7.5172   17.1340 N   0  0  0  0  0  0  0  0  0  0  0  0
   15.1761   -7.9886   18.3321 C   0  0  0  0  0  0  0  0  0  0  0  0
   14.4952   -7.3850   19.4815 C   0  0  0  0  0  0  0  0  0  0  0  0
   14.9991   -7.6062   20.7608 C   0  0  0  0  0  0  0  0  0  0  0  0
   14.3742   -7.0452   21.8840 C   0  0  0  0  0  0  0  0  0  0  0  0
   13.2260   -6.2490   21.7273 C   0  0  0  0  0  0  0  0  0  0  0  0
   12.7092   -6.0202   20.4260 C   0  0  0  0  0  0  0  0  0  0  0  0
   13.3548   -6.5945   19.3193 C   0  0  0  0  0  0  0  0  0  0  0  0
   11.5681   -5.2315   20.2386 O   0  0  0  0  0  0  0  0  0  0  0  0
   11.2696   -4.5788   19.0114 C   0  0  0  0  0  0  0  0  0  0  0  0
   12.6475   -5.7164   22.8919 O   0  0  0  0  0  0  0  0  0  0  0  0
   12.8769   -4.4070   23.3920 C   0  0  0  0  0  0  0  0  0  0  0  0
   14.8781   -7.2656   23.1713 O   0  0  0  0  0  0  0  0  0  0  0  0
   16.1876   -6.8767   23.5638 C   0  0  0  0  0  0  0  0  0  0  0  0
  1  2  2  0  0  0
  2  5  1  0  0  0
  5  6  1  0  0  0
  6  7  2  0  0  0
  7 10  1  0  0  0
 10 12  1  0  0  0
 12 13  2  0  0  0
 13 14  1  0  0  0
 14 15  2  0  0  0
 15 16  1  0  0  0
 16 17  2  0  0  0
 15 18  1  0  0  0
 18 19  2  0  0  0
 18 20  1  0  0  0
  7  8  1  0  0  0
  8  9  1  0  0  0
  2  3  1  0  0  0
  3 21  1  0  0  0
 21 22  2  0  0  0
 22 23  1  0  0  0
 23 24  2  0  0  0
 24 25  1  0  0  0
 25 26  2  0  0  0
 26 27  1  0  0  0
 27 28  2  0  0  0
 27 29  1  0  0  0
 29 30  1  0  0  0
 26 31  1  0  0  0
 31 32  1  0  0  0
 25 33  1  0  0  0
 33 34  1  0  0  0
  9  5  2  0  0  0
 28 23  1  0  0  0
 17 12  1  0  0  0
 10 11  1  0  0  0
  3  4  1  0  0  0
M  CHG 1  18   1
M  CHG 1  20  -1
M  END
>  <minimizedAffinity>
-9.82261

>  <minimizedRMSD>
1.57983

$$$$
CHEMBL3958430 PubChem-134154740 PubChem-165000792 PubChem-165032294


 37 41  0  0  0  0  0  0  0  0999 V2000
   15.1337   -7.9139   18.3919 C   0  0  0  0  0  0  0  0  0  0  0  0
   15.2348   -7.6084   19.7112 N   0  0  0  0  0  0  0  0  0  0  0  0
   14.3003   -6.8442   20.3455 C   0  0  0  0  0  0  0  0  0  0  0  0
   13.1974   -6.3645   19.6151 C   0  0  0  0  0  0  0  0  0  0  0  0
   13.1138   -6.6910   18.2568 C   0  0  0  0  0  0  0  0  0  0  0  0
   14.0739   -7.4537   17.6756 N   0  0  0  0  0  0  0  0  0  0  0  0
   12.2266   -5.5757   20.2491 C   0  0  0  0  0  0  0  0  0  0  0  0
   12.3632   -5.2822   21.6234 C   0  0  0  0  0  0  0  0  0  0  0  0
   13.4915   -5.7761   22.3170 C   0  0  0  0  0  0  0  0  0  0  0  0
   13.6231   -5.5184   23.5467 O   0  0  0  0  0  0  0  0  0  0  0  0
   14.4350   -6.5437   21.6739 N   0  0  0  0  0  0  0  0  0  0  0  0
   11.0915   -5.0118   19.4452 C   0  0  0  0  0  0  0  0  0  0  0  0
   15.6146   -7.0666   22.3847 C   0  0  0  0  0  0  0  0  0  0  0  0
   16.6262   -5.9802   22.6951 C   0  0  0  0  0  0  0  0  0  0  0  0
   17.2645   -6.4078   23.9959 C   0  0  0  0  0  0  0  0  0  0  0  0
   16.1891   -7.1675   24.7470 C   0  0  0  0  0  0  0  0  0  0  0  0
   15.2492   -7.7383   23.6995 C   0  0  0  0  0  0  0  0  0  0  0  0
   11.3544   -4.4627   22.3475 C   0  0  0  0  0  0  0  0  0  0  0  0
   11.3695   -3.2075   22.2439 O   0  0  0  0  0  0  0  0  0  0  0  0
   10.3392   -5.0906   23.2413 C   0  0  0  0  0  0  0  0  0  0  0  0
   16.1397   -8.7369   17.7870 N   0  0  0  0  0  0  0  0  0  0  0  0
   16.7363   -9.2210   18.4026 H   0  0  0  0  0  0  0  0  0  0  0  0
   16.3750   -8.9344   16.3860 C   0  0  0  0  0  0  0  0  0  0  0  0
   15.9774   -7.9950   15.4242 C   0  0  0  0  0  0  0  0  0  0  0  0
   16.2366   -8.2165   14.0693 C   0  0  0  0  0  0  0  0  0  0  0  0
   16.8983   -9.3819   13.6507 C   0  0  0  0  0  0  0  0  0  0  0  0
   17.2996  -10.3163   14.6192 C   0  0  0  0  0  0  0  0  0  0  0  0
   17.0404  -10.0926   15.9739 C   0  0  0  0  0  0  0  0  0  0  0  0
   17.1748   -9.6071   12.2557 N   0  0  0  0  0  0  0  0  0  0  0  0
   18.4842   -9.2831   11.6905 C   0  0  0  0  0  0  0  0  0  0  0  0
   18.3053   -8.7005   10.2911 C   0  0  0  0  0  0  0  0  0  0  0  0
   17.5179   -9.6152    9.4664 N   0  0  0  0  0  0  0  0  0  0  0  0
   16.1736   -9.7094   10.0321 C   0  0  0  0  0  0  0  0  0  0  0  0
   16.2349  -10.3501   11.4160 C   0  0  0  0  0  0  0  0  0  0  0  0
   15.2991  -10.5494    9.1257 C   0  0  0  0  0  0  0  0  0  0  0  0
   19.6639   -8.4889    9.6570 C   0  0  0  0  0  0  0  0  0  0  0  0
   17.9547  -10.5370    9.4619 H   0  0  0  0  0  0  0  0  0  0  0  0
  1  2  2  0  0  0
  2  3  1  0  0  0
  3  4  2  0  0  0
  4  5  1  0  0  0
  5  6  2  0  0  0
  4  7  1  0  0  0
  7  8  2  0  0  0
  8  9  1  0  0  0
  9 10  2  0  0  0
  9 11  1  0  0  0
 11 13  1  0  0  0
 13 14  1  0  0  0
 14 15  1  0  0  0
 15 16  1  0  0  0
 16 17  1  0  0  0
  8 18  1  0  0  0
 18 19  2  0  0  0
 18 20  1  0  0  0
  7 12  1  0  0  0
  1 21  1  0  0  0
 21 23  1  0  0  0
 23 24  2  0  0  0
 24 25  1  0  0  0
 25 26  2  0  0  0
 26 27  1  0  0  0
 27 28  2  0  0  0
 26 29  1  0  0  0
 29 30  1  0  0  0
 30 31  1  0  0  0
 31 32  1  0  0  0
 32 33  1  0  0  0
 33 34  1  0  0  0
 33 35  1  0  0  0
 31 36  1  0  0  0
  6  1  1  0  0  0
 17 13  1  0  0  0
 28 23  1  0  0  0
 34 29  1  0  0  0
 11  3  1  0  0  0
 21 22  1  0  0  0
 32 37  1  0  0  0
M  END
>  <minimizedAffinity>
-9.80556

>  <minimizedRMSD>
1.81542

$$$$
CHEMBL3397978 PubChem-137007148


 32 34  0  0  0  0  0  0  0  0999 V2000
   17.8317   -9.0620   15.2361 C   0  0  0  0  0  0  0  0  0  0  0  0
   18.4940   -9.0302   16.3064 O   0  0  0  0  0  0  0  0  0  0  0  0
   16.5141   -8.4884   15.1669 N   0  0  0  0  0  0  0  0  0  0  0  0
   16.0449   -8.5451   14.3032 H   0  0  0  0  0  0  0  0  0  0  0  0
   15.8361   -7.8531   16.2251 N   0  0  0  0  0  0  0  0  0  0  0  0
   15.4400   -8.4711   17.2930 C   0  0  0  0  0  0  0  0  0  0  0  0
   14.7370   -7.7666   18.3695 C   0  0  0  0  0  0  0  0  0  0  0  0
   13.4960   -7.1621   18.1547 C   0  0  0  0  0  0  0  0  0  0  0  0
   12.8301   -6.4888   19.1913 C   0  0  0  0  0  0  0  0  0  0  0  0
   13.4305   -6.4234   20.4751 C   0  0  0  0  0  0  0  0  0  0  0  0
   14.6792   -7.0344   20.6852 C   0  0  0  0  0  0  0  0  0  0  0  0
   15.3220   -7.7004   19.6314 C   0  0  0  0  0  0  0  0  0  0  0  0
   15.2642   -6.9662   21.9551 O   0  0  0  0  0  0  0  0  0  0  0  0
   16.5870   -6.4926   22.1701 C   0  0  0  0  0  0  0  0  0  0  0  0
   12.8397   -5.7716   21.5709 O   0  0  0  0  0  0  0  0  0  0  0  0
   12.9481   -4.3833   21.8503 C   0  0  0  0  0  0  0  0  0  0  0  0
   11.5872   -5.8910   18.9523 O   0  0  0  0  0  0  0  0  0  0  0  0
   11.4466   -4.5705   18.4449 C   0  0  0  0  0  0  0  0  0  0  0  0
   18.4488   -9.7118   14.0365 C   0  0  0  0  0  0  0  0  0  0  0  0
   17.4566  -10.5575   13.2527 C   0  0  0  0  0  0  0  0  0  0  0  0
   18.2445   -7.9880    7.3968 C   0  0  0  0  0  0  0  0  0  0  0  0
   19.3366   -7.6647    8.2087 C   0  0  0  0  0  0  0  0  0  0  0  0
   19.3850   -8.1121    9.5327 C   0  0  0  0  0  0  0  0  0  0  0  0
   18.3400   -8.8842   10.0480 C   0  0  0  0  0  0  0  0  0  0  0  0
   17.2377   -9.2123    9.2317 C   0  0  0  0  0  0  0  0  0  0  0  0
   17.1958   -8.7605    7.9051 C   0  0  0  0  0  0  0  0  0  0  0  0
   16.2132   -9.9913    9.7857 C   0  0  0  0  0  0  0  0  0  0  0  0
   15.2065  -10.3169    9.1008 O   0  0  0  0  0  0  0  0  0  0  0  0
   16.3062  -10.4030   11.0774 N   0  0  0  0  0  0  0  0  0  0  0  0
   17.3744  -10.0692   11.8501 C   0  0  0  0  0  0  0  0  0  0  0  0
   18.3843   -9.3208   11.3326 N   0  0  0  0  0  0  0  0  0  0  0  0
   15.5862  -10.9537   11.4614 H   0  0  0  0  0  0  0  0  0  0  0  0
 21 22  2  0  0  0
 22 23  1  0  0  0
 23 24  2  0  0  0
 24 25  1  0  0  0
 25 26  2  0  0  0
 25 27  1  0  0  0
 27 28  2  0  0  0
 27 29  1  0  0  0
 29 30  1  0  0  0
 30 31  2  0  0  0
 30 20  1  0  0  0
 20 19  1  0  0  0
 19  1  1  0  0  0
  1  2  2  0  0  0
  1  3  1  0  0  0
  3  5  1  0  0  0
  5  6  2  0  0  0
  6  7  1  0  0  0
  7  8  2  0  0  0
  8  9  1  0  0  0
  9 10  2  0  0  0
 10 11  1  0  0  0
 11 12  2  0  0  0
 11 13  1  0  0  0
 13 14  1  0  0  0
 10 15  1  0  0  0
 15 16  1  0  0  0
  9 17  1  0  0  0
 17 18  1  0  0  0
 26 21  1  0  0  0
 12  7  1  0  0  0
 31 24  1  0  0  0
 29 32  1  0  0  0
  3  4  1  0  0  0
M  END
>  <minimizedAffinity>
-9.79981

>  <minimizedRMSD>
1.35773

$$$$
CHEMBL2095009 ChemDiv-F532-0932 MCULE-5681469875 MolPort-007-802-950 PubChem-46321312 ZINC000032996302 ZINC32996302


 30 32  0  0  0  0  0  0  0  0999 V2000
   15.5461   -7.9271   19.5391 N   0  0  0  0  0  0  0  0  0  0  0  0
   15.4071   -8.0331   18.1165 C   0  0  0  0  0  0  0  0  0  0  0  0
   14.4077   -7.5378   17.5295 O   0  0  0  0  0  0  0  0  0  0  0  0
   16.4274   -8.7137   17.3748 N   0  0  0  0  0  0  0  0  0  0  0  0
   16.3499   -8.3354   19.9347 H   0  0  0  0  0  0  0  0  0  0  0  0
   17.1808   -9.0771   17.8941 H   0  0  0  0  0  0  0  0  0  0  0  0
   12.5254   -6.1661   20.9328 C   0  0  0  0  0  0  0  0  0  0  0  0
   13.4014   -6.7879   20.0293 C   0  0  0  0  0  0  0  0  0  0  0  0
   14.6377   -7.2889   20.4470 C   0  0  0  0  0  0  0  0  0  0  0  0
   15.0018   -7.1661   21.7860 C   0  0  0  0  0  0  0  0  0  0  0  0
   14.1472   -6.5498   22.7117 C   0  0  0  0  0  0  0  0  0  0  0  0
   12.9037   -6.0451   22.2943 C   0  0  0  0  0  0  0  0  0  0  0  0
   11.1773   -4.6341   19.5236 C   0  0  0  0  0  0  0  0  0  0  0  0
   11.2936   -5.6737   20.4863 O   0  0  0  0  0  0  0  0  0  0  0  0
   14.5139   -6.4268   24.0570 O   0  0  0  0  0  0  0  0  0  0  0  0
   15.5592   -7.1903   24.6440 C   0  0  0  0  0  0  0  0  0  0  0  0
   12.0935   -5.4391   23.2696 O   0  0  0  0  0  0  0  0  0  0  0  0
   11.9285   -4.0385   23.4383 C   0  0  0  0  0  0  0  0  0  0  0  0
   16.4669   -8.9215   15.9562 C   0  0  0  0  0  0  0  0  0  0  0  0
   16.9703  -10.1314   15.4675 C   0  0  0  0  0  0  0  0  0  0  0  0
   17.0253  -10.3712   14.0915 C   0  0  0  0  0  0  0  0  0  0  0  0
   16.5761   -9.4009   13.1861 C   0  0  0  0  0  0  0  0  0  0  0  0
   16.0716   -8.1883   13.6735 C   0  0  0  0  0  0  0  0  0  0  0  0
   16.0173   -7.9500   15.0495 C   0  0  0  0  0  0  0  0  0  0  0  0
   16.6338   -9.6531   11.7377 C   0  0  0  0  0  0  0  0  0  0  0  0
   15.7376  -10.4106   11.0727 N   0  0  0  0  0  0  0  0  0  0  0  0
   16.1321  -10.3857    9.8366 O   0  0  0  0  0  0  0  0  0  0  0  0
   17.2128   -9.6543    9.7363 C   0  0  0  0  0  0  0  0  0  0  0  0
   17.9388   -9.4062    8.4629 C   0  0  0  0  0  0  0  0  0  0  0  0
   17.5903   -9.1516   10.9262 N   0  0  0  0  0  0  0  0  0  0  0  0
 13 14  1  0  0  0
 14  7  1  0  0  0
  7  8  2  0  0  0
  8  9  1  0  0  0
  9  1  1  0  0  0
  1  2  1  0  0  0
  2  3  2  0  0  0
  2  4  1  0  0  0
  4 19  1  0  0  0
 19 20  2  0  0  0
 20 21  1  0  0  0
 21 22  2  0  0  0
 22 23  1  0  0  0
 23 24  2  0  0  0
 22 25  1  0  0  0
 25 26  2  0  0  0
 26 27  1  0  0  0
 27 28  1  0  0  0
 28 29  1  0  0  0
 28 30  2  0  0  0
  9 10  2  0  0  0
 10 11  1  0  0  0
 11 15  1  0  0  0
 15 16  1  0  0  0
 11 12  2  0  0  0
 12 17  1  0  0  0
 17 18  1  0  0  0
 12  7  1  0  0  0
 24 19  1  0  0  0
 30 25  1  0  0  0
  1  5  1  0  0  0
  4  6  1  0  0  0
M  END
>  <minimizedAffinity>
-9.76254

>  <minimizedRMSD>
1.59227

$$$$
CHEMBL1459606 1158656 JGZTUYOMPVPVRV-UHFFFAOYSA-N LN01832031 MCULE-2355487414 MolPort-001-508-929 PubChem-1327711 ZINC000001158656 ZINC01158656


 28 30  0  0  0  0  0  0  0  0999 V2000
   17.4040   -9.7997   13.4700 C   0  0  0  0  0  0  0  0  0  0  0  0
   18.3979  -10.5862   14.0744 C   0  0  0  0  0  0  0  0  0  0  0  0
   18.5314  -10.6186   15.4643 C   0  0  0  0  0  0  0  0  0  0  0  0
   17.6723   -9.8648   16.2663 C   0  0  0  0  0  0  0  0  0  0  0  0
   16.6733   -9.0730   15.6850 C   0  0  0  0  0  0  0  0  0  0  0  0
   16.5465   -9.0464   14.2888 C   0  0  0  0  0  0  0  0  0  0  0  0
   16.9864   -9.6990    9.1895 C   0  0  0  0  0  0  0  0  0  0  0  0
   15.9021  -10.0549    9.9961 C   0  0  0  0  0  0  0  0  0  0  0  0
   16.0374  -10.0878   11.3867 C   0  0  0  0  0  0  0  0  0  0  0  0
   17.2615   -9.7646   11.9947 C   0  0  0  0  0  0  0  0  0  0  0  0
   18.3478   -9.4077   11.1796 C   0  0  0  0  0  0  0  0  0  0  0  0
   18.2130   -9.3747    9.7893 C   0  0  0  0  0  0  0  0  0  0  0  0
   17.7330   -9.0254    6.9296 C   0  0  0  0  0  0  0  0  0  0  0  0
   16.8192   -9.6756    7.8023 O   0  0  0  0  0  0  0  0  0  0  0  0
   15.7666   -8.2774   16.5312 C   0  0  0  0  0  0  0  0  0  0  0  0
   14.9333   -7.4979   15.9938 O   0  0  0  0  0  0  0  0  0  0  0  0
   15.8398   -8.3965   17.9605 N   0  0  0  0  0  0  0  0  0  0  0  0
   16.5116   -9.0220   18.3164 H   0  0  0  0  0  0  0  0  0  0  0  0
   15.0375   -7.7004   18.9240 C   0  0  0  0  0  0  0  0  0  0  0  0
   13.7745   -7.1837   18.6043 C   0  0  0  0  0  0  0  0  0  0  0  0
   13.0090   -6.5059   19.5670 C   0  0  0  0  0  0  0  0  0  0  0  0
   13.5157   -6.3443   20.8653 C   0  0  0  0  0  0  0  0  0  0  0  0
   14.7813   -6.8628   21.1837 C   0  0  0  0  0  0  0  0  0  0  0  0
   15.5343   -7.5351   20.2189 C   0  0  0  0  0  0  0  0  0  0  0  0
   11.7475   -5.9872   19.2554 O   0  0  0  0  0  0  0  0  0  0  0  0
   11.5709   -4.7699   18.5435 C   0  0  0  0  0  0  0  0  0  0  0  0
   12.7479   -5.6680   21.8197 O   0  0  0  0  0  0  0  0  0  0  0  0
   13.2749   -5.2395   23.0681 C   0  0  0  0  0  0  0  0  0  0  0  0
 13 14  1  0  0  0
 14  7  1  0  0  0
  7  8  2  0  0  0
  8  9  1  0  0  0
  9 10  2  0  0  0
 10 11  1  0  0  0
 10  1  1  0  0  0
 11 12  2  0  0  0
 12  7  1  0  0  0
  1  2  2  0  0  0
  2  3  1  0  0  0
  3  4  2  0  0  0
  4  5  1  0  0  0
  5  6  2  0  0  0
  5 15  1  0  0  0
  6  1  1  0  0  0
 15 16  2  0  0  0
 15 17  1  0  0  0
 17 19  1  0  0  0
 19 20  2  0  0  0
 20 21  1  0  0  0
 21 25  1  0  0  0
 21 22  2  0  0  0
 25 26  1  0  0  0
 22 27  1  0  0  0
 22 23  1  0  0  0
 27 28  1  0  0  0
 23 24  2  0  0  0
 24 19  1  0  0  0
 17 18  1  0  0  0
M  END
>  <minimizedAffinity>
-9.75726

>  <minimizedRMSD>
1.51398

$$$$
CHEMBL4514116 PubChem-155539009


 32 33  0  0  0  0  0  0  0  0999 V2000
   17.2784   -9.2036   16.4055 C   0  0  0  0  0  0  0  0  0  0  0  0
   16.9636  -10.6815   16.5686 C   0  0  0  0  0  0  0  0  0  0  0  0
   18.4538   -8.9141   17.1034 O   0  0  0  0  0  0  0  0  0  0  0  0
   18.6641   -7.9722   17.0058 H   0  0  0  0  0  0  0  0  0  0  0  0
   16.1387   -8.3920   16.9544 C   0  0  0  0  0  0  0  0  0  0  0  0
   15.4005   -7.7437   16.1625 O   0  0  0  0  0  0  0  0  0  0  0  0
   15.8990   -8.3589   18.3701 N   0  0  0  0  0  0  0  0  0  0  0  0
   16.5105   -8.8867   18.9329 H   0  0  0  0  0  0  0  0  0  0  0  0
   14.8626   -7.6379   19.0501 C   0  0  0  0  0  0  0  0  0  0  0  0
   15.0720   -7.2499   20.3747 C   0  0  0  0  0  0  0  0  0  0  0  0
   14.0861   -6.5466   21.0688 C   0  0  0  0  0  0  0  0  0  0  0  0
   12.8767   -6.2214   20.4474 C   0  0  0  0  0  0  0  0  0  0  0  0
   12.6482   -6.6068   19.1062 C   0  0  0  0  0  0  0  0  0  0  0  0
   13.6512   -7.3132   18.4248 C   0  0  0  0  0  0  0  0  0  0  0  0
   11.3584   -6.2785   18.3931 C   0  0  0  0  0  0  0  0  0  0  0  0
   11.3236   -4.9293   18.0903 F   0  0  0  0  0  0  0  0  0  0  0  0
   11.2426   -6.9971   17.2144 F   0  0  0  0  0  0  0  0  0  0  0  0
   10.2838   -6.5912   19.2057 F   0  0  0  0  0  0  0  0  0  0  0  0
   11.8932   -5.4944   21.2096 C   0  0  0  0  0  0  0  0  0  0  0  0
   11.1034   -4.9105   21.8217 N   0  0  0  0  0  0  0  0  0  0  0  0
   17.4732   -8.8613   14.9296 C   0  0  0  0  0  0  0  0  0  0  0  0
   16.9876   -9.9037   14.0876 O   0  0  0  0  0  0  0  0  0  0  0  0
   16.9825   -9.8149   12.6920 C   0  0  0  0  0  0  0  0  0  0  0  0
   15.7986   -9.9492   11.9496 C   0  0  0  0  0  0  0  0  0  0  0  0
   15.8269   -9.8571   10.5557 C   0  0  0  0  0  0  0  0  0  0  0  0
   17.0389   -9.6414    9.8850 C   0  0  0  0  0  0  0  0  0  0  0  0
   18.2161   -9.4849   10.6302 C   0  0  0  0  0  0  0  0  0  0  0  0
   18.1877   -9.5772   12.0246 C   0  0  0  0  0  0  0  0  0  0  0  0
   17.0617   -9.4902    8.3917 C   0  0  0  0  0  0  0  0  0  0  0  0
   16.0926   -8.5813    8.0098 F   0  0  0  0  0  0  0  0  0  0  0  0
   16.8081  -10.7054    7.7794 F   0  0  0  0  0  0  0  0  0  0  0  0
   18.2994   -9.0347    7.9714 F   0  0  0  0  0  0  0  0  0  0  0  0
 22 21  1  0  0  0
 21  1  1  0  0  0
  1  5  1  0  0  0
  5  6  2  0  0  0
  5  7  1  0  0  0
  7  9  1  0  0  0
  9 10  2  0  0  0
 10 11  1  0  0  0
 11 12  2  0  0  0
 12 13  1  0  0  0
 13 14  2  0  0  0
 13 15  1  0  0  0
 15 16  1  0  0  0
 15 17  1  0  0  0
 15 18  1  0  0  0
 12 19  1  0  0  0
 19 20  3  0  0  0
  1  2  1  0  0  0
  1  3  1  0  0  0
 22 23  1  0  0  0
 23 24  2  0  0  0
 24 25  1  0  0  0
 25 26  2  0  0  0
 26 27  1  0  0  0
 27 28  2  0  0  0
 26 29  1  0  0  0
 29 30  1  0  0  0
 29 31  1  0  0  0
 29 32  1  0  0  0
 14  9  1  0  0  0
 28 23  1  0  0  0
  7  8  1  0  0  0
  3  4  1  0  0  0
M  END
>  <minimizedAffinity>
-9.75536

>  <minimizedRMSD>
1.82805

$$$$
CHEMBL372712 PubChem-11283656 PubChem-5330296


 37 41  0  0  0  0  0  0  0  0999 V2000
   12.2171   -5.5747   21.7653 C   0  0  0  0  0  0  0  0  0  0  0  0
   12.0546   -5.8047   20.3820 C   0  0  0  0  0  0  0  0  0  0  0  0
   10.7932   -5.4063   19.6733 C   0  0  0  0  0  0  0  0  0  0  0  0
   13.0670   -6.4653   19.6717 C   0  0  0  0  0  0  0  0  0  0  0  0
   12.9641   -6.7169   18.2989 C   0  0  0  0  0  0  0  0  0  0  0  0
   13.9626   -7.3608   17.6445 N   0  0  0  0  0  0  0  0  0  0  0  0
   15.0781   -7.7761   18.3008 C   0  0  0  0  0  0  0  0  0  0  0  0
   15.1973   -7.5450   19.6336 N   0  0  0  0  0  0  0  0  0  0  0  0
   14.2251   -6.9014   20.3409 C   0  0  0  0  0  0  0  0  0  0  0  0
   14.3700   -6.6894   21.6853 N   0  0  0  0  0  0  0  0  0  0  0  0
   13.3928   -6.0351   22.3996 C   0  0  0  0  0  0  0  0  0  0  0  0
   13.5496   -5.8280   23.6359 O   0  0  0  0  0  0  0  0  0  0  0  0
   15.5977   -7.1806   22.3345 C   0  0  0  0  0  0  0  0  0  0  0  0
   16.6569   -6.1025   22.4550 C   0  0  0  0  0  0  0  0  0  0  0  0
   17.4007   -6.4339   23.7280 C   0  0  0  0  0  0  0  0  0  0  0  0
   16.3831   -7.0959   24.6357 C   0  0  0  0  0  0  0  0  0  0  0  0
   15.3376   -7.7238   23.7310 C   0  0  0  0  0  0  0  0  0  0  0  0
   11.1153   -3.3798   22.6086 C   0  0  0  0  0  0  0  0  0  0  0  0
   11.1791   -4.8687   22.5625 C   0  0  0  0  0  0  0  0  0  0  0  0
   10.3551   -5.5276   23.2510 O   0  0  0  0  0  0  0  0  0  0  0  0
   16.1368   -8.4578   17.6140 N   0  0  0  0  0  0  0  0  0  0  0  0
   16.8922   -8.7591   18.1687 H   0  0  0  0  0  0  0  0  0  0  0  0
   16.2225   -8.7516   16.2123 C   0  0  0  0  0  0  0  0  0  0  0  0
   16.0468   -7.7623   15.2370 C   0  0  0  0  0  0  0  0  0  0  0  0
   16.1379   -8.1009   13.8873 C   0  0  0  0  0  0  0  0  0  0  0  0
   16.4032   -9.4229   13.5055 C   0  0  0  0  0  0  0  0  0  0  0  0
   16.5736  -10.3819   14.5144 C   0  0  0  0  0  0  0  0  0  0  0  0
   16.4794  -10.0298   15.8246 N   0  0  0  0  0  0  0  0  0  0  0  0
   16.5030   -9.7851   12.1152 N   0  0  0  0  0  0  0  0  0  0  0  0
   15.2979  -10.1170   11.3489 C   0  0  0  0  0  0  0  0  0  0  0  0
   15.6383  -10.3173    9.8778 C   0  0  0  0  0  0  0  0  0  0  0  0
   16.5093   -9.2288    9.4400 N   0  0  0  0  0  0  0  0  0  0  0  0
   17.8378   -9.3085   10.0712 C   0  0  0  0  0  0  0  0  0  0  0  0
   18.7619  -10.1298    9.1933 C   0  0  0  0  0  0  0  0  0  0  0  0
   18.4046   -7.9079   10.1759 C   0  0  0  0  0  0  0  0  0  0  0  0
   17.8164   -9.9289   11.4805 C   0  0  0  0  0  0  0  0  0  0  0  0
   16.0775   -8.3389    9.6893 H   0  0  0  0  0  0  0  0  0  0  0  0
 18 19  1  0  0  0
 19 20  2  0  0  0
 19  1  1  0  0  0
  1  2  2  0  0  0
  2  3  1  0  0  0
  2  4  1  0  0  0
  4  5  2  0  0  0
  5  6  1  0  0  0
  6  7  2  0  0  0
  7 21  1  0  0  0
  7  8  1  0  0  0
 21 23  1  0  0  0
 23 24  2  0  0  0
 24 25  1  0  0  0
 25 26  2  0  0  0
 26 29  1  0  0  0
 26 27  1  0  0  0
 29 30  1  0  0  0
 30 31  1  0  0  0
 31 32  1  0  0  0
 32 33  1  0  0  0
 33 34  1  0  0  0
 33 35  1  0  0  0
 33 36  1  0  0  0
 36 29  1  0  0  0
 27 28  2  0  0  0
 28 23  1  0  0  0
  8  9  2  0  0  0
  9 10  1  0  0  0
  9  4  1  0  0  0
 10 13  1  0  0  0
 10 11  1  0  0  0
 13 14  1  0  0  0
 14 15  1  0  0  0
 15 16  1  0  0  0
 16 17  1  0  0  0
 17 13  1  0  0  0
 11 12  2  0  0  0
 11  1  1  0  0  0
 21 22  1  0  0  0
 32 37  1  0  0  0
M  END
>  <minimizedAffinity>
-9.69185

>  <minimizedRMSD>
1.92460

$$$$
CHEMBL3670643 PubChem-71225855


 34 39  0  0  0  0  0  0  0  0999 V2000
   15.8501   -7.9886   16.7721 O   0  0  0  0  0  0  0  0  0  0  0  0
   11.5171   -6.5550   18.5384 C   0  0  0  0  0  0  0  0  0  0  0  0
   12.9071   -7.0314   18.7928 C   0  0  0  0  0  0  0  0  0  0  0  0
   13.7386   -7.2919   17.6991 C   0  0  0  0  0  0  0  0  0  0  0  0
   15.0495   -7.7383   17.8913 C   0  0  0  0  0  0  0  0  0  0  0  0
   15.5304   -7.9219   19.1967 C   0  0  0  0  0  0  0  0  0  0  0  0
   14.7053   -7.6640   20.2937 C   0  0  0  0  0  0  0  0  0  0  0  0
   13.3916   -7.2243   20.1006 C   0  0  0  0  0  0  0  0  0  0  0  0
   12.5451   -6.9370   21.2990 C   0  0  0  0  0  0  0  0  0  0  0  0
   12.5722   -5.5117   21.5993 N   0  0  0  0  0  0  0  0  0  0  0  0
   12.1827   -5.3571   22.9986 C   0  0  0  0  0  0  0  0  0  0  0  0
   13.5775   -4.9741   23.4215 C   0  0  0  0  0  0  0  0  0  0  0  0
   14.2419   -5.9379   24.3698 C   0  0  0  0  0  0  0  0  0  0  0  0
   14.9331   -5.0225   25.3303 C   0  0  0  0  0  0  0  0  0  0  0  0
   14.2157   -3.7021   25.1480 C   0  0  0  0  0  0  0  0  0  0  0  0
   13.6861   -3.6413   23.8467 O   0  0  0  0  0  0  0  0  0  0  0  0
   13.9423   -5.1646   21.9725 C   0  0  0  0  0  0  0  0  0  0  0  0
   16.1327   -9.3008   16.2994 C   0  0  0  0  0  0  0  0  0  0  0  0
   16.9614   -9.2121   15.0678 C   0  0  0  0  0  0  0  0  0  0  0  0
   15.9044   -9.6228   14.1323 N   0  0  0  0  0  0  0  0  0  0  0  0
   15.0764   -9.7294   15.3410 C   0  0  0  0  0  0  0  0  0  0  0  0
   15.7398   -9.8292   12.7299 C   0  0  0  0  0  0  0  0  0  0  0  0
   14.6243  -10.2074   12.2848 O   0  0  0  0  0  0  0  0  0  0  0  0
   16.8530   -9.6057   11.8001 C   0  0  0  0  0  0  0  0  0  0  0  0
   16.7103   -9.1810   10.5676 O   0  0  0  0  0  0  0  0  0  0  0  0
   17.9303   -9.1169   10.0888 C   0  0  0  0  0  0  0  0  0  0  0  0
   18.8362   -9.4977   11.0110 N   0  0  0  0  0  0  0  0  0  0  0  0
   18.1502   -9.8086   12.0998 N   0  0  0  0  0  0  0  0  0  0  0  0
   18.2652   -8.6858    8.7248 C   0  0  0  0  0  0  0  0  0  0  0  0
   19.1512   -7.6202    8.5141 C   0  0  0  0  0  0  0  0  0  0  0  0
   19.4671   -7.2134    7.2143 C   0  0  0  0  0  0  0  0  0  0  0  0
   18.8987   -7.8697    6.1189 C   0  0  0  0  0  0  0  0  0  0  0  0
   18.0146   -8.9329    6.3230 C   0  0  0  0  0  0  0  0  0  0  0  0
   17.6986   -9.3400    7.6227 C   0  0  0  0  0  0  0  0  0  0  0  0
  2  3  1  0  0  0
  3  4  2  0  0  0
  4  5  1  0  0  0
  5  1  1  0  0  0
  1 18  1  0  0  0
 18 19  1  0  0  0
 19 20  1  0  0  0
 20 21  1  0  0  0
 20 22  1  0  0  0
 22 23  2  0  0  0
 22 24  1  0  0  0
 24 25  1  0  0  0
 25 26  1  0  0  0
 26 27  2  0  0  0
 27 28  1  0  0  0
 26 29  1  0  0  0
 29 30  2  0  0  0
 30 31  1  0  0  0
 31 32  2  0  0  0
 32 33  1  0  0  0
 33 34  2  0  0  0
  5  6  2  0  0  0
  6  7  1  0  0  0
  7  8  2  0  0  0
  8  9  1  0  0  0
  9 10  1  0  0  0
 10 11  1  0  0  0
 11 12  1  0  0  0
 12 13  1  0  0  0
 13 14  1  0  0  0
 14 15  1  0  0  0
 15 16  1  0  0  0
 12 17  1  0  0  0
  8  3  1  0  0  0
 17 10  1  0  0  0
 21 18  1  0  0  0
 28 24  2  0  0  0
 34 29  1  0  0  0
 16 12  1  0  0  0
M  END
>  <minimizedAffinity>
-9.69009

>  <minimizedRMSD>
1.77824

$$$$
CHEMBL5089822


 41 46  0  0  0  0  0  0  0  0999 V2000
   13.7296   -7.7728   17.3932 C   0  0  0  0  0  0  0  0  0  0  0  0
   13.5239   -5.8747   20.4302 C   0  0  0  0  0  0  0  0  0  0  0  0
   12.0588   -6.2741   20.3604 C   0  0  0  0  0  0  0  0  0  0  0  0
   11.9587   -7.1057   19.1198 C   0  0  0  0  0  0  0  0  0  0  0  0
   13.2231   -6.7186   18.3739 C   0  0  0  0  0  0  0  0  0  0  0  0
   14.2122   -6.3658   19.3036 O   0  0  0  0  0  0  0  0  0  0  0  0
   11.9737   -8.4547   19.4843 O   0  0  0  0  0  0  0  0  0  0  0  0
   11.2853   -5.1374   20.2164 F   0  0  0  0  0  0  0  0  0  0  0  0
   12.7640   -8.6371   20.0164 H   0  0  0  0  0  0  0  0  0  0  0  0
   14.5906   -3.8456   24.1653 C   0  0  0  0  0  0  0  0  0  0  0  0
   15.1055   -4.6488   25.1496 N   0  0  0  0  0  0  0  0  0  0  0  0
   15.2803   -5.9881   24.9505 C   0  0  0  0  0  0  0  0  0  0  0  0
   14.9197   -6.5177   23.7181 C   0  0  0  0  0  0  0  0  0  0  0  0
   14.4140   -5.7025   22.7586 C   0  0  0  0  0  0  0  0  0  0  0  0
   14.2386   -4.3720   22.9541 N   0  0  0  0  0  0  0  0  0  0  0  0
   14.1284   -6.3950   21.6507 N   0  0  0  0  0  0  0  0  0  0  0  0
   14.4474   -7.6859   21.9175 C   0  0  0  0  0  0  0  0  0  0  0  0
   14.9591   -7.8058   23.2166 C   0  0  0  0  0  0  0  0  0  0  0  0
   15.8130   -6.8099   25.9835 N   0  0  0  0  0  0  0  0  0  0  0  0
   16.0619   -6.4129   26.8493 H   0  0  0  0  0  0  0  0  0  0  0  0
   15.9326   -7.7753   25.8321 H   0  0  0  0  0  0  0  0  0  0  0  0
   15.1194   -7.5981   17.1395 O   0  0  0  0  0  0  0  0  0  0  0  0
   15.8684   -8.5014   16.3820 C   0  0  0  0  0  0  0  0  0  0  0  0
   16.5126   -9.5599   17.0350 C   0  0  0  0  0  0  0  0  0  0  0  0
   17.2705  -10.4855   16.3101 C   0  0  0  0  0  0  0  0  0  0  0  0
   17.3854  -10.3525   14.9250 C   0  0  0  0  0  0  0  0  0  0  0  0
   16.7425   -9.2932   14.2589 C   0  0  0  0  0  0  0  0  0  0  0  0
   15.9866   -8.3716   14.9874 C   0  0  0  0  0  0  0  0  0  0  0  0
   16.8609   -9.1731   12.9120 N   0  0  0  0  0  0  0  0  0  0  0  0
   17.5956  -10.0672   12.1928 C   0  0  0  0  0  0  0  0  0  0  0  0
   18.2210  -11.0970   12.8249 N   0  0  0  0  0  0  0  0  0  0  0  0
   18.1302  -11.2559   14.1716 C   0  0  0  0  0  0  0  0  0  0  0  0
   17.7169   -9.9340   10.7758 N   0  0  0  0  0  0  0  0  0  0  0  0
   18.1006  -10.6807   10.2615 H   0  0  0  0  0  0  0  0  0  0  0  0
   17.2950   -8.7368   10.0623 C   0  0  0  0  0  0  0  0  0  0  0  0
   18.4302   -8.2231    9.1958 C   0  0  0  0  0  0  0  0  0  0  0  0
   17.6680   -8.6255    7.9489 C   0  0  0  0  0  0  0  0  0  0  0  0
   16.5312   -9.1329    8.8144 C   0  0  0  0  0  0  0  0  0  0  0  0
   18.3342   -9.7489    7.3129 N   0  0  0  0  0  0  0  0  0  0  0  0
   18.5366  -10.4641    8.0114 H   0  0  0  0  0  0  0  0  0  0  0  0
   19.2059   -9.4315    6.8888 H   0  0  0  0  0  0  0  0  0  0  0  0
 10 11  2  0  0  0
 11 12  1  0  0  0
 12 13  2  0  0  0
 13 14  1  0  0  0
 14 15  2  0  0  0
 14 16  1  0  0  0
 16 17  1  0  0  0
 17 18  2  0  0  0
  2 16  1  0  0  0
  2  3  1  0  0  0
  3  4  1  0  0  0
  4  5  1  0  0  0
  5  6  1  0  0  0
  5  1  1  0  0  0
  1 22  1  0  0  0
 22 23  1  0  0  0
 23 24  2  0  0  0
 24 25  1  0  0  0
 25 26  2  0  0  0
 26 27  1  0  0  0
 27 28  2  0  0  0
 27 29  1  0  0  0
 29 30  2  0  0  0
 30 31  1  0  0  0
 31 32  2  0  0  0
 30 33  1  0  0  0
 35 33  1  0  0  0
 35 36  1  0  0  0
 36 37  1  0  0  0
 37 38  1  0  0  0
 37 39  1  0  0  0
  4  7  1  0  0  0
  3  8  1  0  0  0
 12 19  1  0  0  0
 15 10  1  0  0  0
  6  2  1  0  0  0
 28 23  1  0  0  0
 38 35  1  0  0  0
 18 13  1  0  0  0
 32 26  1  0  0  0
 33 34  1  0  0  0
 39 40  1  0  0  0
 39 41  1  0  0  0
  7  9  1  0  0  0
 19 20  1  0  0  0
 19 21  1  0  0  0
M  END
>  <minimizedAffinity>
-9.68409

>  <minimizedRMSD>
1.90116

$$$$
CHEMBL4743703 PubChem-156169155


 33 37  0  0  0  0  0  0  0  0999 V2000
   15.8367   -9.6411   15.6384 C   0  0  0  0  0  0  0  0  0  0  0  0
   16.5455   -8.5460   16.4202 C   0  0  0  0  0  0  0  0  0  0  0  0
   16.8107  -10.0040   16.7437 C   0  0  0  0  0  0  0  0  0  0  0  0
   16.4846   -9.8109   14.3027 C   0  0  0  0  0  0  0  0  0  0  0  0
   15.8495   -9.6934   13.0759 C   0  0  0  0  0  0  0  0  0  0  0  0
   16.7100   -9.9629   11.9988 C   0  0  0  0  0  0  0  0  0  0  0  0
   18.0130  -10.3065   12.3608 C   0  0  0  0  0  0  0  0  0  0  0  0
   18.0779  -10.2687   14.0415 S   0  0  0  0  0  0  0  0  0  0  0  0
   16.2700   -9.8931   10.5976 C   0  0  0  0  0  0  0  0  0  0  0  0
   15.0757  -10.1670   10.2988 O   0  0  0  0  0  0  0  0  0  0  0  0
   17.1985   -9.5183    9.5750 N   0  0  0  0  0  0  0  0  0  0  0  0
   18.1344   -9.3474    9.8284 H   0  0  0  0  0  0  0  0  0  0  0  0
   16.8191   -9.3785    8.1761 C   0  0  0  0  0  0  0  0  0  0  0  0
   17.9182   -8.7311    7.4056 C   0  0  0  0  0  0  0  0  0  0  0  0
   18.7331   -7.8273    8.0119 N   0  0  0  0  0  0  0  0  0  0  0  0
   19.7273   -7.2120    7.3198 C   0  0  0  0  0  0  0  0  0  0  0  0
   19.9192   -7.5015    5.9695 C   0  0  0  0  0  0  0  0  0  0  0  0
   19.0701   -8.4266    5.3641 C   0  0  0  0  0  0  0  0  0  0  0  0
   18.0869   -9.0220    6.0885 N   0  0  0  0  0  0  0  0  0  0  0  0
   15.5797   -7.9122   17.3763 C   0  0  0  0  0  0  0  0  0  0  0  0
   14.5045   -7.4432   16.9177 O   0  0  0  0  0  0  0  0  0  0  0  0
   15.8733   -7.8259   18.7797 N   0  0  0  0  0  0  0  0  0  0  0  0
   16.7350   -8.1938   19.0819 H   0  0  0  0  0  0  0  0  0  0  0  0
   15.0222   -7.2515   19.7775 C   0  0  0  0  0  0  0  0  0  0  0  0
   15.4730   -7.0815   21.3967 S   0  0  0  0  0  0  0  0  0  0  0  0
   14.0202   -6.3801   21.8528 C   0  0  0  0  0  0  0  0  0  0  0  0
   13.1763   -6.2721   20.7592 C   0  0  0  0  0  0  0  0  0  0  0  0
   13.7303   -6.7634   19.5701 C   0  0  0  0  0  0  0  0  0  0  0  0
   11.9039   -5.7115   20.9173 C   0  0  0  0  0  0  0  0  0  0  0  0
   11.5288   -5.2742   22.1978 C   0  0  0  0  0  0  0  0  0  0  0  0
   12.3886   -5.3969   23.2540 N   0  0  0  0  0  0  0  0  0  0  0  0
   13.6308   -5.9415   23.1129 C   0  0  0  0  0  0  0  0  0  0  0  0
   10.9565   -5.5714   19.7757 C   0  0  0  0  0  0  0  0  0  0  0  0
  1  2  1  0  0  0
  2  3  1  0  0  0
  2 20  1  0  0  0
 20 21  2  0  0  0
 20 22  1  0  0  0
 22 24  1  0  0  0
 24 25  1  0  0  0
 25 26  1  0  0  0
 26 27  2  0  0  0
 27 28  1  0  0  0
 27 29  1  0  0  0
 29 30  2  0  0  0
 30 31  1  0  0  0
 31 32  2  0  0  0
 29 33  1  0  0  0
  1  4  1  0  0  0
  4  5  2  0  0  0
  5  6  1  0  0  0
  6  7  2  0  0  0
  7  8  1  0  0  0
  6  9  1  0  0  0
  9 10  2  0  0  0
  9 11  1  0  0  0
 11 13  1  0  0  0
 13 14  1  0  0  0
 14 15  2  0  0  0
 15 16  1  0  0  0
 16 17  2  0  0  0
 17 18  1  0  0  0
 18 19  2  0  0  0
  3  1  1  0  0  0
 28 24  2  0  0  0
  8  4  1  0  0  0
 19 14  1  0  0  0
 32 26  1  0  0  0
 22 23  1  0  0  0
 11 12  1  0  0  0
M  END
>  <minimizedAffinity>
-9.67988

>  <minimizedRMSD>
1.37978

$$$$
CHEMBL190627 13641693 MCULE-8327424938 MolPort-049-247-923 PubChem-144762764 PubChem-145330774 PubChem-154688658 PubChem-5330298


 35 39  0  0  0  0  0  0  0  0999 V2000
   12.4324   -5.3699   21.5154 C   0  0  0  0  0  0  0  0  0  0  0  0
   12.2845   -5.6611   20.1420 C   0  0  0  0  0  0  0  0  0  0  0  0
   11.1276   -5.1174   19.3555 C   0  0  0  0  0  0  0  0  0  0  0  0
   13.2630   -6.4270   19.4925 C   0  0  0  0  0  0  0  0  0  0  0  0
   13.1685   -6.7501   18.1341 C   0  0  0  0  0  0  0  0  0  0  0  0
   14.1357   -7.4913   17.5378 N   0  0  0  0  0  0  0  0  0  0  0  0
   15.2123   -7.9339   18.2397 C   0  0  0  0  0  0  0  0  0  0  0  0
   15.3257   -7.6300   19.5584 N   0  0  0  0  0  0  0  0  0  0  0  0
   14.3832   -6.8887   20.2078 C   0  0  0  0  0  0  0  0  0  0  0  0
   14.5274   -6.5924   21.5364 N   0  0  0  0  0  0  0  0  0  0  0  0
   13.5761   -5.8473   22.1944 C   0  0  0  0  0  0  0  0  0  0  0  0
   13.7138   -5.5964   23.4248 O   0  0  0  0  0  0  0  0  0  0  0  0
   15.7233   -7.0983   22.2317 C   0  0  0  0  0  0  0  0  0  0  0  0
   15.4458   -7.4386   23.6827 C   0  0  0  0  0  0  0  0  0  0  0  0
   16.7450   -7.1539   24.3993 C   0  0  0  0  0  0  0  0  0  0  0  0
   17.3952   -6.0199   23.6316 C   0  0  0  0  0  0  0  0  0  0  0  0
   16.8722   -6.1024   22.2084 C   0  0  0  0  0  0  0  0  0  0  0  0
   10.4364   -5.2163   23.1689 C   0  0  0  0  0  0  0  0  0  0  0  0
   11.4192   -4.5696   22.2531 C   0  0  0  0  0  0  0  0  0  0  0  0
   11.4037   -3.3148   22.1426 O   0  0  0  0  0  0  0  0  0  0  0  0
   16.2351   -8.7173   17.6132 N   0  0  0  0  0  0  0  0  0  0  0  0
   16.9081   -9.1248   18.2051 H   0  0  0  0  0  0  0  0  0  0  0  0
   16.3740   -8.9655   16.2091 C   0  0  0  0  0  0  0  0  0  0  0  0
   16.9688  -10.1556   15.7864 C   0  0  0  0  0  0  0  0  0  0  0  0
   17.1090  -10.4054   14.4210 C   0  0  0  0  0  0  0  0  0  0  0  0
   16.6552   -9.4711   13.4799 C   0  0  0  0  0  0  0  0  0  0  0  0
   16.0667   -8.2879   13.9496 C   0  0  0  0  0  0  0  0  0  0  0  0
   15.9399   -8.0642   15.2848 N   0  0  0  0  0  0  0  0  0  0  0  0
   16.8016   -9.7134   12.0687 N   0  0  0  0  0  0  0  0  0  0  0  0
   15.7107  -10.2820   11.2849 C   0  0  0  0  0  0  0  0  0  0  0  0
   15.6020   -9.5444    9.9473 C   0  0  0  0  0  0  0  0  0  0  0  0
   16.8862   -9.4754    9.2356 N   0  0  0  0  0  0  0  0  0  0  0  0
   17.2948  -10.8085    8.8079 C   0  0  0  0  0  0  0  0  0  0  0  0
   17.9316   -8.8709   10.0734 C   0  0  0  0  0  0  0  0  0  0  0  0
   18.0994   -9.5915   11.4143 C   0  0  0  0  0  0  0  0  0  0  0  0
 18 19  1  0  0  0
 19 20  2  0  0  0
 19  1  1  0  0  0
  1  2  2  0  0  0
  2  3  1  0  0  0
  2  4  1  0  0  0
  4  5  2  0  0  0
  5  6  1  0  0  0
  6  7  2  0  0  0
  7 21  1  0  0  0
  7  8  1  0  0  0
 21 23  1  0  0  0
 23 24  2  0  0  0
 24 25  1  0  0  0
 25 26  2  0  0  0
 26 29  1  0  0  0
 26 27  1  0  0  0
 29 30  1  0  0  0
 30 31  1  0  0  0
 31 32  1  0  0  0
 32 33  1  0  0  0
 32 34  1  0  0  0
 34 35  1  0  0  0
 35 29  1  0  0  0
 27 28  2  0  0  0
 28 23  1  0  0  0
  8  9  2  0  0  0
  9 10  1  0  0  0
  9  4  1  0  0  0
 10 13  1  0  0  0
 10 11  1  0  0  0
 13 14  1  0  0  0
 14 15  1  0  0  0
 15 16  1  0  0  0
 16 17  1  0  0  0
 17 13  1  0  0  0
 11 12  2  0  0  0
 11  1  1  0  0  0
 21 22  1  0  0  0
M  END
>  <minimizedAffinity>
-9.67067

>  <minimizedRMSD>
1.99755

$$$$
CHEMBL2031255 PubChem-57326303


 35 38  0  0  0  0  0  0  0  0999 V2000
   17.1641   -8.8495   16.6797 C   0  0  0  0  0  0  0  0  0  0  0  0
   18.7589   -8.4772   16.7266 S   0  0  0  0  0  0  0  0  0  0  0  0
   15.0937   -7.7691   17.7044 C   0  0  0  0  0  0  0  0  0  0  0  0
   14.5742   -7.5231   16.5816 O   0  0  0  0  0  0  0  0  0  0  0  0
   16.3524   -8.4521   17.7897 N   0  0  0  0  0  0  0  0  0  0  0  0
   16.6872   -8.6661   18.6905 H   0  0  0  0  0  0  0  0  0  0  0  0
   14.1301   -7.5156   21.3585 C   0  0  0  0  0  0  0  0  0  0  0  0
   14.7799   -7.8923   20.1724 C   0  0  0  0  0  0  0  0  0  0  0  0
   14.3973   -7.3630   18.9378 C   0  0  0  0  0  0  0  0  0  0  0  0
   13.3486   -6.4416   18.8892 C   0  0  0  0  0  0  0  0  0  0  0  0
   12.6818   -6.0478   20.0579 C   0  0  0  0  0  0  0  0  0  0  0  0
   13.0654   -6.5804   21.3007 C   0  0  0  0  0  0  0  0  0  0  0  0
   15.4612   -7.4176   23.4492 C   0  0  0  0  0  0  0  0  0  0  0  0
   14.5365   -8.0612   22.5819 O   0  0  0  0  0  0  0  0  0  0  0  0
   11.6323   -5.1234   20.0092 O   0  0  0  0  0  0  0  0  0  0  0  0
   10.2801   -5.5028   19.7899 C   0  0  0  0  0  0  0  0  0  0  0  0
   12.3570   -6.1462   22.4339 O   0  0  0  0  0  0  0  0  0  0  0  0
   12.7016   -5.0223   23.2310 C   0  0  0  0  0  0  0  0  0  0  0  0
   16.5517   -9.3637   15.4850 N   0  0  0  0  0  0  0  0  0  0  0  0
   15.5798   -9.2279   15.4052 H   0  0  0  0  0  0  0  0  0  0  0  0
   17.1826  -10.0501   14.3953 C   0  0  0  0  0  0  0  0  0  0  0  0
   18.0360  -11.1430   14.6009 C   0  0  0  0  0  0  0  0  0  0  0  0
   18.6037  -11.8089   13.5132 C   0  0  0  0  0  0  0  0  0  0  0  0
   18.3139  -11.3929   12.2118 C   0  0  0  0  0  0  0  0  0  0  0  0
   17.4506  -10.3103   11.9843 C   0  0  0  0  0  0  0  0  0  0  0  0
   16.8859   -9.6510   13.0881 C   0  0  0  0  0  0  0  0  0  0  0  0
   17.1365   -9.8767   10.6465 N   0  0  0  0  0  0  0  0  0  0  0  0
   16.0195  -10.1992    9.9429 C   0  0  0  0  0  0  0  0  0  0  0  0
   15.9982   -9.6426    8.7028 N   0  0  0  0  0  0  0  0  0  0  0  0
   17.1508   -8.9536    8.6479 C   0  0  0  0  0  0  0  0  0  0  0  0
   17.6291   -8.1895    7.5864 C   0  0  0  0  0  0  0  0  0  0  0  0
   18.8705   -7.5494    7.7559 C   0  0  0  0  0  0  0  0  0  0  0  0
   19.5899   -7.6872    8.9633 C   0  0  0  0  0  0  0  0  0  0  0  0
   19.0761   -8.4663   10.0160 C   0  0  0  0  0  0  0  0  0  0  0  0
   17.8423   -9.0882    9.8149 C   0  0  0  0  0  0  0  0  0  0  0  0
 13 14  1  0  0  0
 14  7  1  0  0  0
  7  8  2  0  0  0
  8  9  1  0  0  0
  9  3  1  0  0  0
  9 10  2  0  0  0
  3  4  2  0  0  0
  3  5  1  0  0  0
  5  1  1  0  0  0
  1  2  2  0  0  0
  1 19  1  0  0  0
 19 21  1  0  0  0
 21 22  2  0  0  0
 22 23  1  0  0  0
 23 24  2  0  0  0
 24 25  1  0  0  0
 25 27  1  0  0  0
 25 26  2  0  0  0
 27 28  1  0  0  0
 28 29  2  0  0  0
 29 30  1  0  0  0
 30 31  2  0  0  0
 31 32  1  0  0  0
 32 33  2  0  0  0
 33 34  1  0  0  0
 34 35  2  0  0  0
 35 27  1  0  0  0
 35 30  1  0  0  0
 26 21  1  0  0  0
 10 11  1  0  0  0
 11 15  1  0  0  0
 11 12  2  0  0  0
 15 16  1  0  0  0
 12 17  1  0  0  0
 12  7  1  0  0  0
 17 18  1  0  0  0
  5  6  1  0  0  0
 19 20  1  0  0  0
M  END
>  <minimizedAffinity>
-9.67048

>  <minimizedRMSD>
1.56145

$$$$
CHEMBL3191366 ChemDiv-8004-1562 MCULE-7210820117 MolPort-002-690-368 PubChem-9597568 ZINC01052634


 34 36  0  0  0  0  0  0  0  0999 V2000
   13.1406   -6.5576   19.0454 C   0  0  0  0  0  0  0  0  0  0  0  0
   13.6088   -6.7569   20.3622 C   0  0  0  0  0  0  0  0  0  0  0  0
   14.7662   -7.5129   20.5761 C   0  0  0  0  0  0  0  0  0  0  0  0
   15.4830   -8.0365   19.4985 C   0  0  0  0  0  0  0  0  0  0  0  0
   15.0464   -7.8161   18.1912 C   0  0  0  0  0  0  0  0  0  0  0  0
   13.8739   -7.0834   17.9688 C   0  0  0  0  0  0  0  0  0  0  0  0
   15.8201   -8.3735   17.0774 C   0  0  0  0  0  0  0  0  0  0  0  0
   15.7504   -7.8698   15.8854 N   0  0  0  0  0  0  0  0  0  0  0  0
   16.4727   -8.3740   14.7868 N   0  0  0  0  0  0  0  0  0  0  0  0
   16.9015   -9.7334   14.6203 C   0  0  0  0  0  0  0  0  0  0  0  0
   16.6060  -10.6220   15.4624 O   0  0  0  0  0  0  0  0  0  0  0  0
   16.7035   -7.7389   14.0709 H   0  0  0  0  0  0  0  0  0  0  0  0
   17.6727  -10.1093   13.4062 C   0  0  0  0  0  0  0  0  0  0  0  0
   16.7586  -10.3296   12.2959 N   0  0  0  0  0  0  0  0  0  0  0  0
   15.9383  -10.8492   12.4581 H   0  0  0  0  0  0  0  0  0  0  0  0
   16.9984   -9.8254   10.9804 C   0  0  0  0  0  0  0  0  0  0  0  0
   18.1034   -9.0052   10.7053 C   0  0  0  0  0  0  0  0  0  0  0  0
   18.3193   -8.5273    9.4096 C   0  0  0  0  0  0  0  0  0  0  0  0
   19.4923   -7.6611    9.1233 C   0  0  0  0  0  0  0  0  0  0  0  0
   17.4328   -8.8659    8.3834 C   0  0  0  0  0  0  0  0  0  0  0  0
   16.3304   -9.6821    8.6531 C   0  0  0  0  0  0  0  0  0  0  0  0
   16.1148  -10.1607    9.9491 C   0  0  0  0  0  0  0  0  0  0  0  0
   11.9406   -5.8714   18.8260 O   0  0  0  0  0  0  0  0  0  0  0  0
    9.9109   -5.5302   20.0557 C   0  0  0  0  0  0  0  0  0  0  0  0
   10.6663   -6.4349   19.1054 C   0  0  0  0  0  0  0  0  0  0  0  0
   12.9307   -6.2561   21.4811 O   0  0  0  0  0  0  0  0  0  0  0  0
   13.3347   -5.1340   22.2171 C   0  0  0  0  0  0  0  0  0  0  0  0
   13.7023   -4.0804   21.6271 O   0  0  0  0  0  0  0  0  0  0  0  0
   13.3767   -5.2055   23.6861 C   0  0  0  0  0  0  0  0  0  0  0  0
   14.4920   -5.7470   24.3425 C   0  0  0  0  0  0  0  0  0  0  0  0
   14.5271   -5.8116   25.7384 C   0  0  0  0  0  0  0  0  0  0  0  0
   13.4469   -5.3360   26.4872 C   0  0  0  0  0  0  0  0  0  0  0  0
   12.3329   -4.7942   25.8405 C   0  0  0  0  0  0  0  0  0  0  0  0
   12.2982   -4.7289   24.4444 C   0  0  0  0  0  0  0  0  0  0  0  0
 24 25  1  0  0  0
 25 23  1  0  0  0
 23  1  1  0  0  0
  1  2  2  0  0  0
  2 26  1  0  0  0
  2  3  1  0  0  0
 26 27  1  0  0  0
 27 28  2  0  0  0
 27 29  1  0  0  0
 29 30  2  0  0  0
 30 31  1  0  0  0
 31 32  2  0  0  0
 32 33  1  0  0  0
 33 34  2  0  0  0
 34 29  1  0  0  0
  3  4  2  0  0  0
  4  5  1  0  0  0
  5  7  1  0  0  0
  5  6  2  0  0  0
  7  8  2  0  0  0
  8  9  1  0  0  0
  9 10  1  0  0  0
 10 11  2  0  0  0
 10 13  1  0  0  0
 13 14  1  0  0  0
 14 16  1  0  0  0
 16 17  2  0  0  0
 17 18  1  0  0  0
 18 19  1  0  0  0
 18 20  2  0  0  0
 20 21  1  0  0  0
 21 22  2  0  0  0
 22 16  1  0  0  0
  6  1  1  0  0  0
  9 12  1  0  0  0
 14 15  1  0  0  0
M  END
>  <minimizedAffinity>
-9.66389

>  <minimizedRMSD>
1.68504

$$$$
CHEMBL5289211


 31 33  0  0  0  0  0  0  0  0999 V2000
   16.4621   -9.3036   15.9439 C   0  0  0  0  0  0  0  0  0  0  0  0
   16.6087   -9.9943   16.9884 O   0  0  0  0  0  0  0  0  0  0  0  0
   15.6939   -8.0898   15.9637 N   0  0  0  0  0  0  0  0  0  0  0  0
   15.6157   -7.5945   15.1165 H   0  0  0  0  0  0  0  0  0  0  0  0
   17.1711  -10.1064   12.4726 C   0  0  0  0  0  0  0  0  0  0  0  0
   16.4252   -9.6516   13.4979 N   0  0  0  0  0  0  0  0  0  0  0  0
   17.0834   -9.7423   14.6869 C   0  0  0  0  0  0  0  0  0  0  0  0
   18.3743  -10.2748   14.6300 C   0  0  0  0  0  0  0  0  0  0  0  0
   18.6718  -10.6356   13.0121 S   0  0  0  0  0  0  0  0  0  0  0  0
   16.6896  -10.1115   11.1210 N   0  0  0  0  0  0  0  0  0  0  0  0
   15.8592  -10.6165   10.9635 H   0  0  0  0  0  0  0  0  0  0  0  0
   18.2831   -8.5202   10.0708 C   0  0  0  0  0  0  0  0  0  0  0  0
   17.2622   -9.4757    9.9696 C   0  0  0  0  0  0  0  0  0  0  0  0
   16.7803   -9.8262    8.7040 C   0  0  0  0  0  0  0  0  0  0  0  0
   17.3090   -9.2321    7.5547 C   0  0  0  0  0  0  0  0  0  0  0  0
   18.3311   -8.2757    7.6592 C   0  0  0  0  0  0  0  0  0  0  0  0
   18.8136   -7.9244    8.9232 C   0  0  0  0  0  0  0  0  0  0  0  0
   18.8813   -7.6629    6.5300 O   0  0  0  0  0  0  0  0  0  0  0  0
   19.1035   -8.3584    5.3108 C   0  0  0  0  0  0  0  0  0  0  0  0
   15.0430   -7.5457   17.0877 N   0  0  0  0  0  0  0  0  0  0  0  0
   15.2127   -7.9863   18.2944 C   0  0  0  0  0  0  0  0  0  0  0  0
   14.5119   -7.3867   19.4342 C   0  0  0  0  0  0  0  0  0  0  0  0
   13.3472   -6.6272   19.2561 C   0  0  0  0  0  0  0  0  0  0  0  0
   12.6888   -6.0600   20.3598 C   0  0  0  0  0  0  0  0  0  0  0  0
   13.2089   -6.2609   21.6465 C   0  0  0  0  0  0  0  0  0  0  0  0
   14.3704   -7.0183   21.8246 C   0  0  0  0  0  0  0  0  0  0  0  0
   15.0196   -7.5792   20.7218 C   0  0  0  0  0  0  0  0  0  0  0  0
   12.5745   -5.7095   22.7526 O   0  0  0  0  0  0  0  0  0  0  0  0
   11.7956   -5.2008   22.6407 H   0  0  0  0  0  0  0  0  0  0  0  0
   11.5255   -5.2994   20.2010 O   0  0  0  0  0  0  0  0  0  0  0  0
   11.2423   -4.5663   19.0170 C   0  0  0  0  0  0  0  0  0  0  0  0
 12 13  2  0  0  0
 13 14  1  0  0  0
 14 15  2  0  0  0
 15 16  1  0  0  0
 16 17  2  0  0  0
 16 18  1  0  0  0
 18 19  1  0  0  0
 13 10  1  0  0  0
 10  5  1  0  0  0
  5  6  2  0  0  0
  6  7  1  0  0  0
  7  8  2  0  0  0
  8  9  1  0  0  0
  7  1  1  0  0  0
  1  2  2  0  0  0
  1  3  1  0  0  0
  3 20  1  0  0  0
 20 21  2  0  0  0
 21 22  1  0  0  0
 22 23  2  0  0  0
 23 24  1  0  0  0
 24 25  2  0  0  0
 25 26  1  0  0  0
 26 27  2  0  0  0
 25 28  1  0  0  0
 24 30  1  0  0  0
 30 31  1  0  0  0
 17 12  1  0  0  0
  9  5  1  0  0  0
 27 22  1  0  0  0
 10 11  1  0  0  0
  3  4  1  0  0  0
 28 29  1  0  0  0
M  END
>  <minimizedAffinity>
-9.66148

>  <minimizedRMSD>
1.48641

$$$$
CHEMBL1085465 PubChem-46889869


 32 34  0  0  0  0  0  0  0  0999 V2000
   14.3458   -7.6140   18.4450 C   0  0  0  0  0  0  0  0  0  0  0  0
   13.3947   -7.3742   17.6528 O   0  0  0  0  0  0  0  0  0  0  0  0
   13.0701   -6.8441   20.5261 C   0  0  0  0  0  0  0  0  0  0  0  0
   13.0975   -6.5022   21.8849 C   0  0  0  0  0  0  0  0  0  0  0  0
   14.2943   -6.5152   22.6089 C   0  0  0  0  0  0  0  0  0  0  0  0
   15.4789   -6.8813   21.9625 C   0  0  0  0  0  0  0  0  0  0  0  0
   15.4647   -7.2315   20.6122 C   0  0  0  0  0  0  0  0  0  0  0  0
   14.2719   -7.2237   19.8743 C   0  0  0  0  0  0  0  0  0  0  0  0
   14.3023   -6.1577   23.9970 N   0  0  0  0  0  0  0  0  0  0  0  0
   15.3051   -6.5650   24.9631 C   0  0  0  0  0  0  0  0  0  0  0  0
   14.8262   -5.9169   26.2615 C   0  0  0  0  0  0  0  0  0  0  0  0
   13.5765   -5.2074   25.8446 C   0  0  0  0  0  0  0  0  0  0  0  0
   13.3239   -5.3650   24.5924 N   0  0  0  0  0  0  0  0  0  0  0  0
   11.7451   -6.8178   19.8242 C   0  0  0  0  0  0  0  0  0  0  0  0
   11.5649   -4.6143   18.6604 C   0  0  0  0  0  0  0  0  0  0  0  0
   11.1185   -5.4307   19.8590 C   0  0  0  0  0  0  0  0  0  0  0  0
   15.4883   -8.2600   17.9700 O   0  0  0  0  0  0  0  0  0  0  0  0
   15.7417   -8.3537   16.6187 N   0  0  0  0  0  0  0  0  0  0  0  0
   16.5026   -9.2874   16.1384 C   0  0  0  0  0  0  0  0  0  0  0  0
   17.0955  -10.2440   17.0167 N   0  0  0  0  0  0  0  0  0  0  0  0
   16.9260  -10.1944   17.9852 H   0  0  0  0  0  0  0  0  0  0  0  0
   17.6738  -10.9533   16.6538 H   0  0  0  0  0  0  0  0  0  0  0  0
   16.7574   -9.3627   14.6868 C   0  0  0  0  0  0  0  0  0  0  0  0
   17.8923  -10.0291   14.2037 C   0  0  0  0  0  0  0  0  0  0  0  0
   18.1397  -10.1018   12.8302 C   0  0  0  0  0  0  0  0  0  0  0  0
   17.2621   -9.4980   11.9192 C   0  0  0  0  0  0  0  0  0  0  0  0
   16.1159   -8.8496   12.3992 C   0  0  0  0  0  0  0  0  0  0  0  0
   15.8685   -8.7771   13.7726 C   0  0  0  0  0  0  0  0  0  0  0  0
   17.4991   -9.6207   10.4419 C   0  0  0  0  0  0  0  0  0  0  0  0
   16.4715  -10.3504    9.8736 F   0  0  0  0  0  0  0  0  0  0  0  0
   17.5422   -8.3676    9.8553 F   0  0  0  0  0  0  0  0  0  0  0  0
   18.7000  -10.2638   10.1961 F   0  0  0  0  0  0  0  0  0  0  0  0
 15 16  1  0  0  0
 16 14  1  0  0  0
 14  3  1  0  0  0
  3  4  2  0  0  0
  4  5  1  0  0  0
  5  9  1  0  0  0
  5  6  2  0  0  0
  9 10  1  0  0  0
 10 11  1  0  0  0
 11 12  1  0  0  0
 12 13  2  0  0  0
 13  9  1  0  0  0
  6  7  1  0  0  0
  7  8  2  0  0  0
  8  1  1  0  0  0
  8  3  1  0  0  0
  1  2  2  0  0  0
  1 17  1  0  0  0
 17 18  1  0  0  0
 18 19  2  0  0  0
 19 20  1  0  0  0
 19 23  1  0  0  0
 23 24  2  0  0  0
 24 25  1  0  0  0
 25 26  2  0  0  0
 26 29  1  0  0  0
 26 27  1  0  0  0
 29 30  1  0  0  0
 29 31  1  0  0  0
 29 32  1  0  0  0
 27 28  2  0  0  0
 28 23  1  0  0  0
 20 21  1  0  0  0
 20 22  1  0  0  0
M  END
>  <minimizedAffinity>
-9.62473

>  <minimizedRMSD>
1.98034

$$$$
CHEMBL5274508


 34 37  0  0  0  0  0  0  0  0999 V2000
   16.1754   -8.0074   15.1711 C   0  0  0  0  0  0  0  0  0  0  0  0
   16.4974   -6.7890   15.1379 O   0  0  0  0  0  0  0  0  0  0  0  0
   15.4394   -8.5191   16.2821 N   0  0  0  0  0  0  0  0  0  0  0  0
   15.1904   -9.4714   16.3008 H   0  0  0  0  0  0  0  0  0  0  0  0
   16.5612   -8.8950   14.0631 C   0  0  0  0  0  0  0  0  0  0  0  0
   17.5234   -9.8896   14.0684 C   0  0  0  0  0  0  0  0  0  0  0  0
   17.5321  -10.4382   12.8133 C   0  0  0  0  0  0  0  0  0  0  0  0
   16.6186   -9.8345   12.0323 N   0  0  0  0  0  0  0  0  0  0  0  0
   16.0165   -8.8794   12.7787 C   0  0  0  0  0  0  0  0  0  0  0  0
   18.4016  -11.4743   12.4690 C   0  0  0  0  0  0  0  0  0  0  0  0
   19.2789  -11.9458   13.4615 C   0  0  0  0  0  0  0  0  0  0  0  0
   19.2693  -11.3807   14.7549 C   0  0  0  0  0  0  0  0  0  0  0  0
   18.3826  -10.3365   15.0723 C   0  0  0  0  0  0  0  0  0  0  0  0
   16.3554  -10.1010   10.6248 C   0  0  0  0  0  0  0  0  0  0  0  0
   17.2722   -9.2969    9.7667 C   0  0  0  0  0  0  0  0  0  0  0  0
   16.9335   -9.0329    8.4349 C   0  0  0  0  0  0  0  0  0  0  0  0
   17.7803   -8.2562    7.6382 C   0  0  0  0  0  0  0  0  0  0  0  0
   18.9636   -7.7382    8.1738 C   0  0  0  0  0  0  0  0  0  0  0  0
   19.2994   -7.9950    9.5067 C   0  0  0  0  0  0  0  0  0  0  0  0
   18.4527   -8.7716   10.3036 C   0  0  0  0  0  0  0  0  0  0  0  0
   15.0660   -7.6891   17.3448 N   0  0  0  0  0  0  0  0  0  0  0  0
   14.9822   -8.1701   18.5416 C   0  0  0  0  0  0  0  0  0  0  0  0
   14.5941   -7.3293   19.6785 C   0  0  0  0  0  0  0  0  0  0  0  0
   15.5430   -7.0222   20.6502 C   0  0  0  0  0  0  0  0  0  0  0  0
   15.2076   -6.2210   21.7515 C   0  0  0  0  0  0  0  0  0  0  0  0
   13.9019   -5.7172   21.8846 C   0  0  0  0  0  0  0  0  0  0  0  0
   12.9316   -6.0274   20.8971 C   0  0  0  0  0  0  0  0  0  0  0  0
   13.2947   -6.8318   19.8053 C   0  0  0  0  0  0  0  0  0  0  0  0
   11.6233   -5.5405   21.0027 O   0  0  0  0  0  0  0  0  0  0  0  0
   10.8026   -5.2712   19.8735 C   0  0  0  0  0  0  0  0  0  0  0  0
   13.6301   -4.9213   23.0104 O   0  0  0  0  0  0  0  0  0  0  0  0
   13.5011   -3.5069   22.9984 C   0  0  0  0  0  0  0  0  0  0  0  0
   16.1589   -5.9106   22.7302 O   0  0  0  0  0  0  0  0  0  0  0  0
   17.4960   -6.3904   22.6854 C   0  0  0  0  0  0  0  0  0  0  0  0
  5  6  1  0  0  0
  6  7  2  0  0  0
  7  8  1  0  0  0
  8  9  1  0  0  0
  8 14  1  0  0  0
 14 15  1  0  0  0
 15 16  2  0  0  0
 16 17  1  0  0  0
 17 18  2  0  0  0
 18 19  1  0  0  0
 19 20  2  0  0  0
  7 10  1  0  0  0
 10 11  2  0  0  0
 11 12  1  0  0  0
 12 13  2  0  0  0
  5  1  1  0  0  0
  1  2  2  0  0  0
  1  3  1  0  0  0
  3 21  1  0  0  0
 21 22  2  0  0  0
 22 23  1  0  0  0
 23 24  2  0  0  0
 24 25  1  0  0  0
 25 26  2  0  0  0
 26 27  1  0  0  0
 27 28  2  0  0  0
 27 29  1  0  0  0
 29 30  1  0  0  0
 26 31  1  0  0  0
 31 32  1  0  0  0
 25 33  1  0  0  0
 33 34  1  0  0  0
  9  5  2  0  0  0
 20 15  1  0  0  0
 28 23  1  0  0  0
 13  6  1  0  0  0
  3  4  1  0  0  0
M  END
>  <minimizedAffinity>
-9.60653

>  <minimizedRMSD>
1.11580

$$$$
CHEMBL4750233 PubChem-162515951


 33 37  0  0  0  0  0  0  0  0999 V2000
   14.1734   -7.1680   17.8474 N   0  0  0  0  0  0  0  0  0  0  0  0
   15.1184   -7.8353   18.5586 C   0  0  0  0  0  0  0  0  0  0  0  0
   15.1225   -7.7512   19.9124 N   0  0  0  0  0  0  0  0  0  0  0  0
   14.1935   -7.0181   20.5935 C   0  0  0  0  0  0  0  0  0  0  0  0
   13.1961   -6.3341   19.8777 C   0  0  0  0  0  0  0  0  0  0  0  0
   13.2176   -6.4345   18.4787 C   0  0  0  0  0  0  0  0  0  0  0  0
   12.1168   -5.6377   20.5209 N   0  0  0  0  0  0  0  0  0  0  0  0
   12.3171   -4.6163   21.5107 C   0  0  0  0  0  0  0  0  0  0  0  0
   11.4961   -3.6605   21.5789 O   0  0  0  0  0  0  0  0  0  0  0  0
   13.4230   -4.6487   22.4831 C   0  0  0  0  0  0  0  0  0  0  0  0
   14.2412   -5.7528   22.7318 C   0  0  0  0  0  0  0  0  0  0  0  0
   14.2391   -6.9963   22.0234 N   0  0  0  0  0  0  0  0  0  0  0  0
   14.6424   -8.2034   22.7254 C   0  0  0  0  0  0  0  0  0  0  0  0
   15.2527   -5.3913   24.0311 S   0  0  0  0  0  0  0  0  0  0  0  0
   14.6129   -3.8459   24.2167 C   0  0  0  0  0  0  0  0  0  0  0  0
   13.6347   -3.6000   23.3287 N   0  0  0  0  0  0  0  0  0  0  0  0
   15.0438   -2.8690   25.2494 C   0  0  0  0  0  0  0  0  0  0  0  0
   10.7733   -5.8052   19.9709 C   0  0  0  0  0  0  0  0  0  0  0  0
   16.1181   -8.6273   17.9012 N   0  0  0  0  0  0  0  0  0  0  0  0
   16.7763   -9.0806   18.4761 H   0  0  0  0  0  0  0  0  0  0  0  0
   16.2499   -8.8219   16.4854 C   0  0  0  0  0  0  0  0  0  0  0  0
   16.6163  -10.0828   16.0071 C   0  0  0  0  0  0  0  0  0  0  0  0
   16.7101  -10.2923   14.6275 C   0  0  0  0  0  0  0  0  0  0  0  0
   16.4314   -9.2485   13.7246 C   0  0  0  0  0  0  0  0  0  0  0  0
   16.0710   -7.9969   14.2523 C   0  0  0  0  0  0  0  0  0  0  0  0
   15.9854   -7.8138   15.5999 N   0  0  0  0  0  0  0  0  0  0  0  0
   16.5142   -9.4555   12.2973 N   0  0  0  0  0  0  0  0  0  0  0  0
   15.3086   -9.9158   11.5713 C   0  0  0  0  0  0  0  0  0  0  0  0
   15.4854   -9.8428   10.0476 C   0  0  0  0  0  0  0  0  0  0  0  0
   16.7981  -10.3451    9.6599 N   0  0  0  0  0  0  0  0  0  0  0  0
   17.7511   -9.3536   10.1333 C   0  0  0  0  0  0  0  0  0  0  0  0
   17.8396   -9.4319   11.6558 C   0  0  0  0  0  0  0  0  0  0  0  0
   16.8594  -10.3230    8.2047 C   0  0  0  0  0  0  0  0  0  0  0  0
  1  2  2  0  0  0
  2  3  1  0  0  0
  3  4  2  0  0  0
  4  5  1  0  0  0
  5  6  2  0  0  0
  5  7  1  0  0  0
  7  8  1  0  0  0
  8  9  2  0  0  0
  8 10  1  0  0  0
 10 11  2  0  0  0
 11 12  1  0  0  0
 12 13  1  0  0  0
 11 14  1  0  0  0
 14 15  1  0  0  0
 15 16  2  0  0  0
 15 17  1  0  0  0
  7 18  1  0  0  0
  2 19  1  0  0  0
 19 21  1  0  0  0
 21 22  2  0  0  0
 22 23  1  0  0  0
 23 24  2  0  0  0
 24 25  1  0  0  0
 25 26  2  0  0  0
 24 27  1  0  0  0
 27 28  1  0  0  0
 28 29  1  0  0  0
 29 30  1  0  0  0
 30 31  1  0  0  0
 31 32  1  0  0  0
 30 33  1  0  0  0
  6  1  1  0  0  0
 16 10  1  0  0  0
 26 21  1  0  0  0
 32 27  1  0  0  0
 12  4  1  0  0  0
 19 20  1  0  0  0
M  END
>  <minimizedAffinity>
-9.60070

>  <minimizedRMSD>
1.50657

$$$$
CHEMBL5005466 33300398 ChemDiv-M115-0203 MCULE-6156431352 MolPort-009-713-229 PubChem-49661455 ZINC000033300398 ZINC33300398


 30 33  0  0  0  0  0  0  0  0999 V2000
   15.0419   -7.7870   18.0232 C   0  0  0  0  0  0  0  0  0  0  0  0
   14.4279   -7.3059   16.9239 N   0  0  0  0  0  0  0  0  0  0  0  0
   14.9752   -7.9396   15.9324 O   0  0  0  0  0  0  0  0  0  0  0  0
   15.8820   -8.7718   16.3836 C   0  0  0  0  0  0  0  0  0  0  0  0
   15.9722   -8.7195   17.7278 N   0  0  0  0  0  0  0  0  0  0  0  0
   16.6921   -9.6474   15.5152 C   0  0  0  0  0  0  0  0  0  0  0  0
   16.6856   -9.4186   14.1738 N   0  0  0  0  0  0  0  0  0  0  0  0
   17.3898  -10.1622   13.3127 N   0  0  0  0  0  0  0  0  0  0  0  0
   18.1536  -11.1972   13.7664 C   0  0  0  0  0  0  0  0  0  0  0  0
   18.2036  -11.4839   15.1268 C   0  0  0  0  0  0  0  0  0  0  0  0
   17.4690  -10.7065   16.0153 C   0  0  0  0  0  0  0  0  0  0  0  0
   17.5150  -10.9668   17.2469 O   0  0  0  0  0  0  0  0  0  0  0  0
   17.3336   -9.8599   11.9039 C   0  0  0  0  0  0  0  0  0  0  0  0
   18.3682   -9.1465   11.2733 C   0  0  0  0  0  0  0  0  0  0  0  0
   18.3107   -8.8549    9.9072 C   0  0  0  0  0  0  0  0  0  0  0  0
   19.4352   -8.0953    9.2886 C   0  0  0  0  0  0  0  0  0  0  0  0
   17.2045   -9.2793    9.1497 C   0  0  0  0  0  0  0  0  0  0  0  0
   17.1011   -8.9908    7.6902 C   0  0  0  0  0  0  0  0  0  0  0  0
   16.1726   -9.9886    9.7693 C   0  0  0  0  0  0  0  0  0  0  0  0
   16.2359  -10.2769   11.1345 C   0  0  0  0  0  0  0  0  0  0  0  0
   14.1382   -6.4993   22.0087 C   0  0  0  0  0  0  0  0  0  0  0  0
   13.1760   -6.3703   20.9952 C   0  0  0  0  0  0  0  0  0  0  0  0
   13.4811   -6.7951   19.6916 C   0  0  0  0  0  0  0  0  0  0  0  0
   14.7331   -7.3453   19.3920 C   0  0  0  0  0  0  0  0  0  0  0  0
   15.6878   -7.4710   20.4072 C   0  0  0  0  0  0  0  0  0  0  0  0
   15.3934   -7.0515   21.7060 C   0  0  0  0  0  0  0  0  0  0  0  0
   14.7069   -6.2543   24.4060 C   0  0  0  0  0  0  0  0  0  0  0  0
   13.8268   -6.0739   23.3047 O   0  0  0  0  0  0  0  0  0  0  0  0
   11.9277   -5.8192   21.3041 O   0  0  0  0  0  0  0  0  0  0  0  0
   11.0823   -5.2318   20.3243 C   0  0  0  0  0  0  0  0  0  0  0  0
 27 28  1  0  0  0
 28 21  1  0  0  0
 21 22  2  0  0  0
 22 29  1  0  0  0
 22 23  1  0  0  0
 29 30  1  0  0  0
 23 24  2  0  0  0
 24 25  1  0  0  0
 24  1  1  0  0  0
 25 26  2  0  0  0
 26 21  1  0  0  0
  1  2  2  0  0  0
  2  3  1  0  0  0
  3  4  1  0  0  0
  4  5  2  0  0  0
  4  6  1  0  0  0
  5  1  1  0  0  0
  6  7  2  0  0  0
  7  8  1  0  0  0
  8  9  1  0  0  0
  8 13  1  0  0  0
  9 10  2  0  0  0
 10 11  1  0  0  0
 11 12  2  0  0  0
 11  6  1  0  0  0
 13 14  2  0  0  0
 14 15  1  0  0  0
 15 16  1  0  0  0
 15 17  2  0  0  0
 17 18  1  0  0  0
 17 19  1  0  0  0
 19 20  2  0  0  0
 20 13  1  0  0  0
M  END
>  <minimizedAffinity>
-9.59675

>  <minimizedRMSD>
1.89676

$$$$
CHEMBL107921 PubChem-10785980


 29 32  0  0  0  0  0  0  0  0999 V2000
   15.5661   -7.7340   17.3153 N   0  0  0  0  0  0  0  0  0  0  0  0
   16.3528   -7.1651   17.6283 H   0  0  0  0  0  0  0  0  0  0  0  0
   14.6453   -7.9642   18.4159 C   0  0  0  0  0  0  0  0  0  0  0  0
   12.3371   -5.7397   22.1338 C   0  0  0  0  0  0  0  0  0  0  0  0
   13.4437   -5.9584   22.9591 C   0  0  0  0  0  0  0  0  0  0  0  0
   14.6555   -6.4009   22.4337 C   0  0  0  0  0  0  0  0  0  0  0  0
   14.7732   -6.6443   21.0699 C   0  0  0  0  0  0  0  0  0  0  0  0
   13.6764   -6.4771   20.2139 C   0  0  0  0  0  0  0  0  0  0  0  0
   12.4475   -5.9985   20.7415 C   0  0  0  0  0  0  0  0  0  0  0  0
   11.2435   -5.8997   19.8427 C   0  0  0  0  0  0  0  0  0  0  0  0
   11.6385   -5.6115   18.4029 C   0  0  0  0  0  0  0  0  0  0  0  0
   12.5647   -6.7178   17.9342 C   0  0  0  0  0  0  0  0  0  0  0  0
   13.8742   -6.6875   18.7200 C   0  0  0  0  0  0  0  0  0  0  0  0
   10.9429   -3.9439   23.1689 C   0  0  0  0  0  0  0  0  0  0  0  0
   11.1663   -5.2831   22.7575 O   0  0  0  0  0  0  0  0  0  0  0  0
   16.0330   -9.0376   16.8824 C   0  0  0  0  0  0  0  0  0  0  0  0
   17.1903   -8.8733   15.9114 C   0  0  0  0  0  0  0  0  0  0  0  0
   16.9237   -9.6134   14.6909 N   0  0  0  0  0  0  0  0  0  0  0  0
   16.0753   -8.7628   13.8556 C   0  0  0  0  0  0  0  0  0  0  0  0
   15.7652   -9.4745   12.5413 C   0  0  0  0  0  0  0  0  0  0  0  0
   17.0245   -9.8393   11.8939 N   0  0  0  0  0  0  0  0  0  0  0  0
   18.0134  -10.5479   12.7023 C   0  0  0  0  0  0  0  0  0  0  0  0
   18.2111   -9.7976   14.0181 C   0  0  0  0  0  0  0  0  0  0  0  0
   17.3037   -9.4608   10.5335 C   0  0  0  0  0  0  0  0  0  0  0  0
   16.4687   -9.8852    9.4884 C   0  0  0  0  0  0  0  0  0  0  0  0
   16.7430   -9.5234    8.1679 C   0  0  0  0  0  0  0  0  0  0  0  0
   17.8554   -8.7305    7.8776 C   0  0  0  0  0  0  0  0  0  0  0  0
   18.6938   -8.2998    8.9074 C   0  0  0  0  0  0  0  0  0  0  0  0
   18.4191   -8.6636   10.2282 C   0  0  0  0  0  0  0  0  0  0  0  0
 14 15  1  0  0  0
 15  4  1  0  0  0
  4  5  2  0  0  0
  5  6  1  0  0  0
  6  7  2  0  0  0
  7  8  1  0  0  0
  8  9  2  0  0  0
  9 10  1  0  0  0
  9  4  1  0  0  0
 10 11  1  0  0  0
 11 12  1  0  0  0
 12 13  1  0  0  0
 13  3  1  0  0  0
 13  8  1  0  0  0
  3  1  1  0  0  0
  1 16  1  0  0  0
 16 17  1  0  0  0
 17 18  1  0  0  0
 18 19  1  0  0  0
 19 20  1  0  0  0
 20 21  1  0  0  0
 21 24  1  0  0  0
 21 22  1  0  0  0
 24 25  2  0  0  0
 25 26  1  0  0  0
 26 27  2  0  0  0
 27 28  1  0  0  0
 28 29  2  0  0  0
 29 24  1  0  0  0
 22 23  1  0  0  0
 23 18  1  0  0  0
  1  2  1  0  0  0
M  END
>  <minimizedAffinity>
-9.58418

>  <minimizedRMSD>
1.80544

$$$$
CHEMBL4519421 PubChem-155541845


 34 35  0  0  0  0  0  0  0  0999 V2000
   17.1360   -9.2014   16.2692 C   0  0  0  0  0  0  0  0  0  0  0  0
   16.7545  -10.6670   16.4016 C   0  0  0  0  0  0  0  0  0  0  0  0
   18.3504   -9.0085   16.9302 O   0  0  0  0  0  0  0  0  0  0  0  0
   18.6134   -8.0776   16.8582 H   0  0  0  0  0  0  0  0  0  0  0  0
   16.0714   -8.3394   16.8969 C   0  0  0  0  0  0  0  0  0  0  0  0
   15.3202   -7.6414   16.1618 O   0  0  0  0  0  0  0  0  0  0  0  0
   15.9154   -8.3218   18.3247 N   0  0  0  0  0  0  0  0  0  0  0  0
   16.5282   -8.8930   18.8418 H   0  0  0  0  0  0  0  0  0  0  0  0
   14.9610   -7.5597   19.0761 C   0  0  0  0  0  0  0  0  0  0  0  0
   15.2521   -7.2373   20.4001 C   0  0  0  0  0  0  0  0  0  0  0  0
   14.3511   -6.4893   21.1571 C   0  0  0  0  0  0  0  0  0  0  0  0
   13.1390   -6.0442   20.6092 C   0  0  0  0  0  0  0  0  0  0  0  0
   12.8170   -6.3972   19.2690 C   0  0  0  0  0  0  0  0  0  0  0  0
   13.7462   -7.1396   18.5227 C   0  0  0  0  0  0  0  0  0  0  0  0
   11.5131   -6.0176   18.6066 C   0  0  0  0  0  0  0  0  0  0  0  0
   10.4552   -6.2317   19.4721 F   0  0  0  0  0  0  0  0  0  0  0  0
   11.5489   -4.6862   18.2351 F   0  0  0  0  0  0  0  0  0  0  0  0
   11.2955   -6.7805   17.4706 F   0  0  0  0  0  0  0  0  0  0  0  0
   12.2685   -5.2560   21.4397 N   0  0  0  0  0  0  0  0  0  0  0  0
   12.1399   -4.0294   21.2514 O   0  0  0  0  0  0  0  0  0  0  0  0
   11.7489   -5.8033   22.5904 O   0  0  0  0  0  0  0  0  0  0  0  0
   17.3338   -8.8299   14.7978 C   0  0  0  0  0  0  0  0  0  0  0  0
   16.6552   -9.7290   13.9233 O   0  0  0  0  0  0  0  0  0  0  0  0
   16.8612   -9.7488   12.5405 C   0  0  0  0  0  0  0  0  0  0  0  0
   18.1410   -9.5976   11.9838 C   0  0  0  0  0  0  0  0  0  0  0  0
   18.3126   -9.6209   10.5975 C   0  0  0  0  0  0  0  0  0  0  0  0
   17.2068   -9.7941    9.7498 C   0  0  0  0  0  0  0  0  0  0  0  0
   15.9329   -9.9419   10.3077 C   0  0  0  0  0  0  0  0  0  0  0  0
   15.7609   -9.9189   11.6948 C   0  0  0  0  0  0  0  0  0  0  0  0
   17.3406   -9.8232    8.3556 O   0  0  0  0  0  0  0  0  0  0  0  0
   17.6380   -8.6802    7.5566 C   0  0  0  0  0  0  0  0  0  0  0  0
   18.1008   -9.0992    6.3243 F   0  0  0  0  0  0  0  0  0  0  0  0
   18.6154   -7.9152    8.1676 F   0  0  0  0  0  0  0  0  0  0  0  0
   16.4973   -7.9193    7.3734 F   0  0  0  0  0  0  0  0  0  0  0  0
 23 22  1  0  0  0
 22  1  1  0  0  0
  1  5  1  0  0  0
  5  6  2  0  0  0
  5  7  1  0  0  0
  7  9  1  0  0  0
  9 10  2  0  0  0
 10 11  1  0  0  0
 11 12  2  0  0  0
 12 13  1  0  0  0
 13 14  2  0  0  0
 13 15  1  0  0  0
 15 16  1  0  0  0
 15 17  1  0  0  0
 15 18  1  0  0  0
 12 19  1  0  0  0
 19 20  2  0  0  0
 19 21  1  0  0  0
  1  2  1  0  0  0
  1  3  1  0  0  0
 23 24  1  0  0  0
 24 25  2  0  0  0
 25 26  1  0  0  0
 26 27  2  0  0  0
 27 28  1  0  0  0
 28 29  2  0  0  0
 27 30  1  0  0  0
 30 31  1  0  0  0
 31 32  1  0  0  0
 31 33  1  0  0  0
 31 34  1  0  0  0
 14  9  1  0  0  0
 29 24  1  0  0  0
  7  8  1  0  0  0
  3  4  1  0  0  0
M  CHG 1  19   1
M  CHG 1  21  -1
M  END
>  <minimizedAffinity>
-9.57913

>  <minimizedRMSD>
1.89478

$$$$
CHEMBL1442074 4384099 ChemDiv-D069-0267 LN00736934 MCULE-6732382946 MolPort-002-017-312 PubChem-3159518 ZINC000004384099 ZINC04384099


 29 31  0  0  0  0  0  0  0  0999 V2000
   15.6303   -8.2976   16.9753 C   0  0  0  0  0  0  0  0  0  0  0  0
   15.8348   -7.5766   15.8539 N   0  0  0  0  0  0  0  0  0  0  0  0
   16.4912   -8.3691   15.0631 O   0  0  0  0  0  0  0  0  0  0  0  0
   16.6880   -9.5183   15.6587 C   0  0  0  0  0  0  0  0  0  0  0  0
   16.1540   -9.5401   16.8940 N   0  0  0  0  0  0  0  0  0  0  0  0
   13.5375   -6.8136   20.4072 C   0  0  0  0  0  0  0  0  0  0  0  0
   12.9570   -6.7115   19.1336 C   0  0  0  0  0  0  0  0  0  0  0  0
   13.6506   -7.2008   18.0145 C   0  0  0  0  0  0  0  0  0  0  0  0
   14.9133   -7.7888   18.1549 C   0  0  0  0  0  0  0  0  0  0  0  0
   15.4863   -7.8874   19.4278 C   0  0  0  0  0  0  0  0  0  0  0  0
   14.8042   -7.4038   20.5459 C   0  0  0  0  0  0  0  0  0  0  0  0
   13.1844   -5.1075   22.1667 C   0  0  0  0  0  0  0  0  0  0  0  0
   12.8405   -6.3240   21.5173 O   0  0  0  0  0  0  0  0  0  0  0  0
   11.6947   -6.1223   19.0030 O   0  0  0  0  0  0  0  0  0  0  0  0
   11.5126   -4.7828   18.5643 C   0  0  0  0  0  0  0  0  0  0  0  0
   17.3894  -10.6733   15.0368 C   0  0  0  0  0  0  0  0  0  0  0  0
   18.3289  -10.1774   13.9481 C   0  0  0  0  0  0  0  0  0  0  0  0
   17.6388   -9.9920   12.6322 C   0  0  0  0  0  0  0  0  0  0  0  0
   16.4301  -10.3226   12.4805 O   0  0  0  0  0  0  0  0  0  0  0  0
   18.3643   -9.3915   11.5552 N   0  0  0  0  0  0  0  0  0  0  0  0
   19.2374   -8.9871   11.7636 H   0  0  0  0  0  0  0  0  0  0  0  0
   17.9148   -9.3347   10.1950 C   0  0  0  0  0  0  0  0  0  0  0  0
   18.5852   -8.5760    9.2062 C   0  0  0  0  0  0  0  0  0  0  0  0
   19.7719   -7.7348    9.5600 C   0  0  0  0  0  0  0  0  0  0  0  0
   18.0840   -8.5597    7.8882 C   0  0  0  0  0  0  0  0  0  0  0  0
   18.7566   -7.7842    6.8052 C   0  0  0  0  0  0  0  0  0  0  0  0
   16.9205   -9.2660    7.5735 C   0  0  0  0  0  0  0  0  0  0  0  0
   16.2455   -9.9865    8.5582 C   0  0  0  0  0  0  0  0  0  0  0  0
   16.7385  -10.0140    9.8628 C   0  0  0  0  0  0  0  0  0  0  0  0
 12 13  1  0  0  0
 13  6  1  0  0  0
  6  7  2  0  0  0
  7 14  1  0  0  0
  7  8  1  0  0  0
 14 15  1  0  0  0
  8  9  2  0  0  0
  9 10  1  0  0  0
  9  1  1  0  0  0
 10 11  2  0  0  0
 11  6  1  0  0  0
  1  2  2  0  0  0
  2  3  1  0  0  0
  3  4  1  0  0  0
  4 16  1  0  0  0
  4  5  2  0  0  0
 16 17  1  0  0  0
 17 18  1  0  0  0
 18 19  2  0  0  0
 18 20  1  0  0  0
 20 22  1  0  0  0
 22 23  2  0  0  0
 23 24  1  0  0  0
 23 25  1  0  0  0
 25 26  1  0  0  0
 25 27  2  0  0  0
 27 28  1  0  0  0
 28 29  2  0  0  0
 29 22  1  0  0  0
  5  1  1  0  0  0
 20 21  1  0  0  0
M  END
>  <minimizedAffinity>
-9.56793

>  <minimizedRMSD>
1.86004

$$$$
CHEMBL3664170 PubChem-72188230


 36 41  0  0  0  0  0  0  0  0999 V2000
   15.0342   -6.6309   22.4872 C   0  0  0  0  0  0  0  0  0  0  0  0
   15.8094   -7.2428   21.4982 C   0  0  0  0  0  0  0  0  0  0  0  0
   15.0197   -7.1656   20.3765 C   0  0  0  0  0  0  0  0  0  0  0  0
   15.2681   -7.6136   19.0819 C   0  0  0  0  0  0  0  0  0  0  0  0
   14.2683   -7.4158   18.1048 C   0  0  0  0  0  0  0  0  0  0  0  0
   13.0609   -6.7751   18.4610 C   0  0  0  0  0  0  0  0  0  0  0  0
   12.8411   -6.3320   19.7765 C   0  0  0  0  0  0  0  0  0  0  0  0
   13.8517   -6.5446   20.7147 C   0  0  0  0  0  0  0  0  0  0  0  0
   13.8359   -6.2077   22.0133 N   0  0  0  0  0  0  0  0  0  0  0  0
   11.3362   -5.5415   20.2072 Cl  0  0  0  0  0  0  0  0  0  0  0  0
   13.1164   -5.7552   22.5102 H   0  0  0  0  0  0  0  0  0  0  0  0
   20.0406   -5.8355   25.4962 C   0  0  0  0  0  0  0  0  0  0  0  0
   19.4179   -7.0769   25.0513 N   0  0  0  0  0  0  0  0  0  0  0  0
   18.2728   -7.4021   25.9152 C   0  0  0  0  0  0  0  0  0  0  0  0
   17.1191   -6.4091   25.7518 C   0  0  0  0  0  0  0  0  0  0  0  0
   16.7796   -6.3040   24.3400 N   0  0  0  0  0  0  0  0  0  0  0  0
   17.8693   -5.9690   23.4343 C   0  0  0  0  0  0  0  0  0  0  0  0
   19.0172   -6.9615   23.6407 C   0  0  0  0  0  0  0  0  0  0  0  0
   15.4151   -6.4698   23.9081 C   0  0  0  0  0  0  0  0  0  0  0  0
   14.4975   -6.4913   24.7732 O   0  0  0  0  0  0  0  0  0  0  0  0
   14.4403   -7.8406   16.7454 N   0  0  0  0  0  0  0  0  0  0  0  0
   13.7027   -7.6326   16.1273 H   0  0  0  0  0  0  0  0  0  0  0  0
   15.5626   -8.5334   16.1832 C   0  0  0  0  0  0  0  0  0  0  0  0
   16.5757   -8.9914   16.9673 N   0  0  0  0  0  0  0  0  0  0  0  0
   17.6347   -9.6505   16.4302 C   0  0  0  0  0  0  0  0  0  0  0  0
   17.6958   -9.8666   15.0560 C   0  0  0  0  0  0  0  0  0  0  0  0
   16.6509   -9.3910   14.2586 C   0  0  0  0  0  0  0  0  0  0  0  0
   15.6092   -8.7378   14.8406 N   0  0  0  0  0  0  0  0  0  0  0  0
   16.6695   -9.5877   12.8017 C   0  0  0  0  0  0  0  0  0  0  0  0
   17.7464   -9.3604   11.9671 C   0  0  0  0  0  0  0  0  0  0  0  0
   17.3252   -9.6536   10.7252 N   0  0  0  0  0  0  0  0  0  0  0  0
   16.0477  -10.0700   10.8206 C   0  0  0  0  0  0  0  0  0  0  0  0
   15.6099  -10.0309   12.0949 N   0  0  0  0  0  0  0  0  0  0  0  0
   18.1378   -9.6386    9.5140 C   0  0  0  0  0  0  0  0  0  0  0  0
   18.6267   -8.2278    9.2316 C   0  0  0  0  0  0  0  0  0  0  0  0
   17.4652   -8.7921    8.4461 C   0  0  0  0  0  0  0  0  0  0  0  0
 12 13  1  0  0  0
 13 14  1  0  0  0
 14 15  1  0  0  0
 15 16  1  0  0  0
 16 17  1  0  0  0
 16 19  1  0  0  0
 17 18  1  0  0  0
 18 13  1  0  0  0
 19 20  2  0  0  0
 19  1  1  0  0  0
  1  2  2  0  0  0
  2  3  1  0  0  0
  3  4  2  0  0  0
  4  5  1  0  0  0
  5  6  2  0  0  0
  5 21  1  0  0  0
  6  7  1  0  0  0
  7  8  2  0  0  0
  7 10  1  0  0  0
  8  9  1  0  0  0
  8  3  1  0  0  0
  9  1  1  0  0  0
 21 23  1  0  0  0
 23 24  2  0  0  0
 24 25  1  0  0  0
 25 26  2  0  0  0
 26 27  1  0  0  0
 27 28  2  0  0  0
 27 29  1  0  0  0
 28 23  1  0  0  0
 29 30  2  0  0  0
 30 31  1  0  0  0
 31 32  1  0  0  0
 31 34  1  0  0  0
 32 33  2  0  0  0
 33 29  1  0  0  0
 34 35  1  0  0  0
 35 36  1  0  0  0
 36 34  1  0  0  0
  9 11  1  0  0  0
 21 22  1  0  0  0
M  END
>  <minimizedAffinity>
-9.56655

>  <minimizedRMSD>
1.77130

$$$$
CHEMBL3397055 PubChem-137007144


 32 34  0  0  0  0  0  0  0  0999 V2000
   16.8468   -8.8311   14.8968 C   0  0  0  0  0  0  0  0  0  0  0  0
   15.9494   -8.1843   14.2898 O   0  0  0  0  0  0  0  0  0  0  0  0
   16.8088   -8.9409   16.3180 N   0  0  0  0  0  0  0  0  0  0  0  0
   17.5127   -9.4475   16.7839 H   0  0  0  0  0  0  0  0  0  0  0  0
   15.7866   -8.3396   17.0608 N   0  0  0  0  0  0  0  0  0  0  0  0
   15.8966   -8.2325   18.3442 C   0  0  0  0  0  0  0  0  0  0  0  0
   14.8444   -7.6082   19.1526 C   0  0  0  0  0  0  0  0  0  0  0  0
   13.6933   -7.0730   18.5619 C   0  0  0  0  0  0  0  0  0  0  0  0
   12.6962   -6.4790   19.3510 C   0  0  0  0  0  0  0  0  0  0  0  0
   12.8604   -6.4242   20.7429 C   0  0  0  0  0  0  0  0  0  0  0  0
   14.0105   -6.9579   21.3430 C   0  0  0  0  0  0  0  0  0  0  0  0
   14.9981   -7.5485   20.5389 C   0  0  0  0  0  0  0  0  0  0  0  0
   11.8773   -5.8375   21.5325 O   0  0  0  0  0  0  0  0  0  0  0  0
   11.1080   -5.4802   21.1344 H   0  0  0  0  0  0  0  0  0  0  0  0
   14.1508   -6.8910   22.7335 O   0  0  0  0  0  0  0  0  0  0  0  0
   15.3134   -7.3465   23.4120 C   0  0  0  0  0  0  0  0  0  0  0  0
   11.5403   -5.9398   18.7759 O   0  0  0  0  0  0  0  0  0  0  0  0
   11.4396   -4.5771   18.3855 C   0  0  0  0  0  0  0  0  0  0  0  0
   17.9630   -9.4937   14.1501 C   0  0  0  0  0  0  0  0  0  0  0  0
   17.4738  -10.6029   13.2304 C   0  0  0  0  0  0  0  0  0  0  0  0
   18.2425   -7.9683    7.4008 C   0  0  0  0  0  0  0  0  0  0  0  0
   19.3384   -7.6562    8.2120 C   0  0  0  0  0  0  0  0  0  0  0  0
   19.3915   -8.1191    9.5304 C   0  0  0  0  0  0  0  0  0  0  0  0
   18.3474   -8.8955   10.0411 C   0  0  0  0  0  0  0  0  0  0  0  0
   17.2411   -9.2124    9.2257 C   0  0  0  0  0  0  0  0  0  0  0  0
   17.1946   -8.7450    7.9046 C   0  0  0  0  0  0  0  0  0  0  0  0
   16.2174   -9.9956    9.7750 C   0  0  0  0  0  0  0  0  0  0  0  0
   15.2073  -10.3114    9.0906 O   0  0  0  0  0  0  0  0  0  0  0  0
   16.3149  -10.4220   11.0616 N   0  0  0  0  0  0  0  0  0  0  0  0
   17.3870  -10.0990   11.8336 C   0  0  0  0  0  0  0  0  0  0  0  0
   18.3961   -9.3467   11.3205 N   0  0  0  0  0  0  0  0  0  0  0  0
   15.5953  -10.9756   11.4423 H   0  0  0  0  0  0  0  0  0  0  0  0
 21 22  2  0  0  0
 22 23  1  0  0  0
 23 24  2  0  0  0
 24 25  1  0  0  0
 25 26  2  0  0  0
 25 27  1  0  0  0
 27 28  2  0  0  0
 27 29  1  0  0  0
 29 30  1  0  0  0
 30 31  2  0  0  0
 30 20  1  0  0  0
 20 19  1  0  0  0
 19  1  1  0  0  0
  1  2  2  0  0  0
  1  3  1  0  0  0
  3  5  1  0  0  0
  5  6  2  0  0  0
  6  7  1  0  0  0
  7  8  2  0  0  0
  8  9  1  0  0  0
  9 10  2  0  0  0
 10 11  1  0  0  0
 11 12  2  0  0  0
 11 15  1  0  0  0
 15 16  1  0  0  0
 10 13  1  0  0  0
  9 17  1  0  0  0
 17 18  1  0  0  0
 26 21  1  0  0  0
 12  7  1  0  0  0
 31 24  1  0  0  0
 29 32  1  0  0  0
  3  4  1  0  0  0
 13 14  1  0  0  0
M  END
>  <minimizedAffinity>
-9.55021

>  <minimizedRMSD>
1.69277

$$$$
CHEMBL4950666 6783118 ChemDiv-E240-0284 MCULE-2328504924 MolPort-002-780-059 PubChem-17096107 ZINC000006783118 ZINC06783118


 30 33  0  0  0  0  0  0  0  0999 V2000
   14.9828   -7.6531   18.3213 C   0  0  0  0  0  0  0  0  0  0  0  0
   14.4273   -7.3827   17.1245 N   0  0  0  0  0  0  0  0  0  0  0  0
   15.2265   -7.8712   16.2259 O   0  0  0  0  0  0  0  0  0  0  0  0
   16.2678   -8.4438   16.7816 C   0  0  0  0  0  0  0  0  0  0  0  0
   16.1767   -8.3380   18.1586 C   0  0  0  0  0  0  0  0  0  0  0  0
   17.3742   -9.0931   16.0486 C   0  0  0  0  0  0  0  0  0  0  0  0
   18.5066   -9.1514   16.6016 O   0  0  0  0  0  0  0  0  0  0  0  0
   17.2029   -9.6465   14.7295 N   0  0  0  0  0  0  0  0  0  0  0  0
   18.3809  -10.1516   14.0125 C   0  0  0  0  0  0  0  0  0  0  0  0
   17.9931  -10.7773   12.6747 C   0  0  0  0  0  0  0  0  0  0  0  0
   17.0684   -9.8905   11.9653 N   0  0  0  0  0  0  0  0  0  0  0  0
   15.8960   -9.3581   12.6726 C   0  0  0  0  0  0  0  0  0  0  0  0
   15.8730   -9.8022   14.1351 C   0  0  0  0  0  0  0  0  0  0  0  0
   17.3364   -9.4978   10.6052 C   0  0  0  0  0  0  0  0  0  0  0  0
   18.4556   -8.7058   10.2958 C   0  0  0  0  0  0  0  0  0  0  0  0
   18.7159   -8.3256    8.9763 C   0  0  0  0  0  0  0  0  0  0  0  0
   17.8602   -8.7332    7.9503 C   0  0  0  0  0  0  0  0  0  0  0  0
   18.1123   -8.3648    6.6716 F   0  0  0  0  0  0  0  0  0  0  0  0
   16.7448   -9.5211    8.2432 C   0  0  0  0  0  0  0  0  0  0  0  0
   16.4843   -9.9012    9.5628 C   0  0  0  0  0  0  0  0  0  0  0  0
   13.2286   -6.5103   22.0629 C   0  0  0  0  0  0  0  0  0  0  0  0
   12.6194   -6.1324   20.8566 C   0  0  0  0  0  0  0  0  0  0  0  0
   13.2026   -6.5122   19.6365 C   0  0  0  0  0  0  0  0  0  0  0  0
   14.3840   -7.2633   19.6092 C   0  0  0  0  0  0  0  0  0  0  0  0
   14.9859   -7.6367   20.8170 C   0  0  0  0  0  0  0  0  0  0  0  0
   14.4134   -7.2636   22.0344 C   0  0  0  0  0  0  0  0  0  0  0  0
   13.1702   -5.0942   24.0931 C   0  0  0  0  0  0  0  0  0  0  0  0
   12.6414   -6.1282   23.2741 O   0  0  0  0  0  0  0  0  0  0  0  0
   11.4389   -5.3821   20.8926 O   0  0  0  0  0  0  0  0  0  0  0  0
   10.8670   -4.7916   19.7334 C   0  0  0  0  0  0  0  0  0  0  0  0
 27 28  1  0  0  0
 28 21  1  0  0  0
 21 22  2  0  0  0
 22 29  1  0  0  0
 22 23  1  0  0  0
 29 30  1  0  0  0
 23 24  2  0  0  0
 24 25  1  0  0  0
 24  1  1  0  0  0
 25 26  2  0  0  0
 26 21  1  0  0  0
  1  2  2  0  0  0
  2  3  1  0  0  0
  3  4  1  0  0  0
  4  5  2  0  0  0
  4  6  1  0  0  0
  5  1  1  0  0  0
  6  7  2  0  0  0
  6  8  1  0  0  0
  8  9  1  0  0  0
  9 10  1  0  0  0
 10 11  1  0  0  0
 11 12  1  0  0  0
 11 14  1  0  0  0
 12 13  1  0  0  0
 13  8  1  0  0  0
 14 15  2  0  0  0
 15 16  1  0  0  0
 16 17  2  0  0  0
 17 18  1  0  0  0
 17 19  1  0  0  0
 19 20  2  0  0  0
 20 14  1  0  0  0
M  END
>  <minimizedAffinity>
-9.54389

>  <minimizedRMSD>
1.27139

$$$$
CHEMBL1714386 LN00968124 MolPort-001-513-726 PubChem-9637201 ZINC04523889


 31 32  0  0  0  0  0  0  0  0999 V2000
   15.8891   -8.3532   16.3015 N   0  0  0  0  0  0  0  0  0  0  0  0
   16.5907   -9.5717   16.0130 C   0  0  0  0  0  0  0  0  0  0  0  0
   16.9632  -10.3471   16.9329 O   0  0  0  0  0  0  0  0  0  0  0  0
   15.6033   -7.8068   15.5341 H   0  0  0  0  0  0  0  0  0  0  0  0
   14.3618   -7.6556   17.9907 C   0  0  0  0  0  0  0  0  0  0  0  0
   15.5741   -7.8713   17.5867 N   0  0  0  0  0  0  0  0  0  0  0  0
   14.7796   -6.9183   21.6603 C   0  0  0  0  0  0  0  0  0  0  0  0
   15.0069   -7.3822   20.3545 C   0  0  0  0  0  0  0  0  0  0  0  0
   14.0817   -7.1518   19.3388 C   0  0  0  0  0  0  0  0  0  0  0  0
   12.9093   -6.4486   19.6237 C   0  0  0  0  0  0  0  0  0  0  0  0
   12.6566   -5.9742   20.9189 C   0  0  0  0  0  0  0  0  0  0  0  0
   13.5876   -6.2040   21.9469 C   0  0  0  0  0  0  0  0  0  0  0  0
   16.9452   -6.4398   22.7713 C   0  0  0  0  0  0  0  0  0  0  0  0
   15.7252   -7.1618   22.6635 O   0  0  0  0  0  0  0  0  0  0  0  0
   11.4829   -5.2691   21.2096 O   0  0  0  0  0  0  0  0  0  0  0  0
   10.4816   -5.0040   20.2363 C   0  0  0  0  0  0  0  0  0  0  0  0
   13.2760   -5.7026   23.2222 O   0  0  0  0  0  0  0  0  0  0  0  0
   13.7623   -4.4815   23.7605 C   0  0  0  0  0  0  0  0  0  0  0  0
   16.8522   -9.9435   14.5968 C   0  0  0  0  0  0  0  0  0  0  0  0
   16.2073   -8.9291   13.6701 C   0  0  0  0  0  0  0  0  0  0  0  0
   16.0020   -9.5261   12.3223 C   0  0  0  0  0  0  0  0  0  0  0  0
   14.9128  -10.1012   12.0579 O   0  0  0  0  0  0  0  0  0  0  0  0
   17.0463   -9.4599   11.3476 N   0  0  0  0  0  0  0  0  0  0  0  0
   17.9055   -9.0539   11.6046 H   0  0  0  0  0  0  0  0  0  0  0  0
   16.8935   -9.9674    9.9907 C   0  0  0  0  0  0  0  0  0  0  0  0
   17.6873   -9.1428    9.0349 C   0  0  0  0  0  0  0  0  0  0  0  0
   17.4957   -9.2912    7.6568 C   0  0  0  0  0  0  0  0  0  0  0  0
   18.2295   -8.5093    6.7594 C   0  0  0  0  0  0  0  0  0  0  0  0
   19.1543   -7.5764    7.2390 C   0  0  0  0  0  0  0  0  0  0  0  0
   19.3447   -7.4245    8.6159 C   0  0  0  0  0  0  0  0  0  0  0  0
   18.6110   -8.2063    9.5135 C   0  0  0  0  0  0  0  0  0  0  0  0
 13 14  1  0  0  0
 14  7  1  0  0  0
  7  8  2  0  0  0
  8  9  1  0  0  0
  9  5  1  0  0  0
  9 10  2  0  0  0
  5  6  2  0  0  0
  6  1  1  0  0  0
  1  2  1  0  0  0
  2  3  2  0  0  0
  2 19  1  0  0  0
 19 20  1  0  0  0
 20 21  1  0  0  0
 21 22  2  0  0  0
 21 23  1  0  0  0
 23 25  1  0  0  0
 25 26  1  0  0  0
 26 27  2  0  0  0
 27 28  1  0  0  0
 28 29  2  0  0  0
 29 30  1  0  0  0
 30 31  2  0  0  0
 31 26  1  0  0  0
 10 11  1  0  0  0
 11 15  1  0  0  0
 11 12  2  0  0  0
 15 16  1  0  0  0
 12 17  1  0  0  0
 12  7  1  0  0  0
 17 18  1  0  0  0
  1  4  1  0  0  0
 23 24  1  0  0  0
M  END
>  <minimizedAffinity>
-9.53099

>  <minimizedRMSD>
1.24569

$$$$
CHEMBL2132514 ChemDiv-E200-0322 MCULE-2971471216 MolPort-007-724-648 PubChem-4113294 ZINC000002973342 ZINC02973342


 31 33  0  0  0  0  0  0  0  0999 V2000
   16.3496   -9.2191   15.9562 C   0  0  0  0  0  0  0  0  0  0  0  0
   16.9791  -10.3415   16.4912 C   0  0  0  0  0  0  0  0  0  0  0  0
   17.5791  -11.2444   15.6810 N   0  0  0  0  0  0  0  0  0  0  0  0
   17.5861  -11.0887   14.3341 C   0  0  0  0  0  0  0  0  0  0  0  0
   18.1439  -11.9678   13.6223 O   0  0  0  0  0  0  0  0  0  0  0  0
   16.9807   -9.9994   13.7599 N   0  0  0  0  0  0  0  0  0  0  0  0
   16.3645   -9.0623   14.5543 C   0  0  0  0  0  0  0  0  0  0  0  0
   15.8219   -8.0496   14.0299 O   0  0  0  0  0  0  0  0  0  0  0  0
   18.0195  -12.0305   16.0778 H   0  0  0  0  0  0  0  0  0  0  0  0
   16.9921   -9.8398   12.3247 C   0  0  0  0  0  0  0  0  0  0  0  0
   18.0925   -9.2498   11.6851 C   0  0  0  0  0  0  0  0  0  0  0  0
   18.1098   -9.0930   10.2960 C   0  0  0  0  0  0  0  0  0  0  0  0
   19.3017   -8.4604    9.6612 C   0  0  0  0  0  0  0  0  0  0  0  0
   17.0133   -9.5307    9.5307 C   0  0  0  0  0  0  0  0  0  0  0  0
   16.9889   -9.3833    8.0469 C   0  0  0  0  0  0  0  0  0  0  0  0
   15.9157  -10.1191   10.1656 C   0  0  0  0  0  0  0  0  0  0  0  0
   15.9038  -10.2736   11.5537 C   0  0  0  0  0  0  0  0  0  0  0  0
   15.8837   -8.3924   18.2925 N   0  0  0  0  0  0  0  0  0  0  0  0
   15.7023   -8.2531   16.8766 C   0  0  0  0  0  0  0  0  0  0  0  0
   15.0296   -7.2872   16.4237 O   0  0  0  0  0  0  0  0  0  0  0  0
   16.5912   -9.0047   18.5987 H   0  0  0  0  0  0  0  0  0  0  0  0
   13.7186   -6.3950   21.3507 C   0  0  0  0  0  0  0  0  0  0  0  0
   13.0275   -6.9411   20.2592 C   0  0  0  0  0  0  0  0  0  0  0  0
   13.7142   -7.6137   19.2346 C   0  0  0  0  0  0  0  0  0  0  0  0
   15.1207   -7.7144   19.2986 C   0  0  0  0  0  0  0  0  0  0  0  0
   15.7996   -7.1957   20.4059 C   0  0  0  0  0  0  0  0  0  0  0  0
   15.1056   -6.5357   21.4216 C   0  0  0  0  0  0  0  0  0  0  0  0
   11.7469   -5.1814   22.2207 C   0  0  0  0  0  0  0  0  0  0  0  0
   13.0528   -5.7194   22.3770 O   0  0  0  0  0  0  0  0  0  0  0  0
   13.0148   -8.2077   18.1777 O   0  0  0  0  0  0  0  0  0  0  0  0
   11.6042   -8.1105   18.0338 C   0  0  0  0  0  0  0  0  0  0  0  0
 28 29  1  0  0  0
 29 22  1  0  0  0
 22 23  2  0  0  0
 23 24  1  0  0  0
 24 30  1  0  0  0
 24 25  2  0  0  0
 30 31  1  0  0  0
 25 18  1  0  0  0
 25 26  1  0  0  0
 18 19  1  0  0  0
 19 20  2  0  0  0
 19  1  1  0  0  0
  1  2  2  0  0  0
  2  3  1  0  0  0
  3  4  1  0  0  0
  4  5  2  0  0  0
  4  6  1  0  0  0
  6  7  1  0  0  0
  6 10  1  0  0  0
  7  8  2  0  0  0
  7  1  1  0  0  0
 10 11  2  0  0  0
 11 12  1  0  0  0
 12 13  1  0  0  0
 12 14  2  0  0  0
 14 15  1  0  0  0
 14 16  1  0  0  0
 16 17  2  0  0  0
 17 10  1  0  0  0
 26 27  2  0  0  0
 27 22  1  0  0  0
 18 21  1  0  0  0
  3  9  1  0  0  0
M  END
>  <minimizedAffinity>
-9.48407

>  <minimizedRMSD>
1.85914

$$$$
CHEMBL204820 PubChem-11799306


 39 42  0  0  0  0  0  0  0  0999 V2000
   14.7508   -6.2556   22.4731 N   0  0  0  0  0  0  0  0  0  0  0  0
   16.0961   -6.3163   22.2923 C   0  0  0  0  0  0  0  0  0  0  0  0
   16.4435   -6.8727   21.0977 N   0  0  0  0  0  0  0  0  0  0  0  0
   15.2560   -7.1634   20.5373 C   0  0  0  0  0  0  0  0  0  0  0  0
   14.9826   -7.7590   19.3137 C   0  0  0  0  0  0  0  0  0  0  0  0
   13.6687   -7.9552   18.9873 N   0  0  0  0  0  0  0  0  0  0  0  0
   12.6572   -7.5782   19.8338 C   0  0  0  0  0  0  0  0  0  0  0  0
   10.9920   -7.8589   19.3761 Cl  0  0  0  0  0  0  0  0  0  0  0  0
   12.9423   -6.9925   21.0356 N   0  0  0  0  0  0  0  0  0  0  0  0
   14.2452   -6.7987   21.3558 C   0  0  0  0  0  0  0  0  0  0  0  0
   12.0347   -4.7702   24.0181 C   0  0  0  0  0  0  0  0  0  0  0  0
   12.6732   -5.9482   23.5766 O   0  0  0  0  0  0  0  0  0  0  0  0
   14.0641   -5.7342   23.6565 C   0  0  0  0  0  0  0  0  0  0  0  0
   14.3247   -4.2549   23.8077 C   0  0  0  0  0  0  0  0  0  0  0  0
   15.4454   -4.0315   24.6114 O   0  0  0  0  0  0  0  0  0  0  0  0
   13.0639   -3.7451   24.4443 C   0  0  0  0  0  0  0  0  0  0  0  0
   13.1616   -3.7602   25.8388 O   0  0  0  0  0  0  0  0  0  0  0  0
   15.3150   -4.4566   25.4735 H   0  0  0  0  0  0  0  0  0  0  0  0
   13.3656   -4.6598   26.1388 H   0  0  0  0  0  0  0  0  0  0  0  0
   11.3312   -4.6719   21.5845 N   0  0  0  0  0  0  0  0  0  0  0  0
   11.1664   -4.2216   22.9334 C   0  0  0  0  0  0  0  0  0  0  0  0
   10.3031   -3.3487   23.2156 O   0  0  0  0  0  0  0  0  0  0  0  0
   12.0249   -5.3444   21.3955 H   0  0  0  0  0  0  0  0  0  0  0  0
   11.2588   -4.3567   19.1664 C   0  0  0  0  0  0  0  0  0  0  0  0
   10.5205   -4.1814   20.4797 C   0  0  0  0  0  0  0  0  0  0  0  0
   16.0462   -8.1527   18.4380 N   0  0  0  0  0  0  0  0  0  0  0  0
   15.9152   -8.4280   17.0391 C   0  0  0  0  0  0  0  0  0  0  0  0
   14.7939   -8.3357   16.4705 O   0  0  0  0  0  0  0  0  0  0  0  0
   17.0819   -8.8106   16.2999 N   0  0  0  0  0  0  0  0  0  0  0  0
   16.9440   -8.2416   18.8320 H   0  0  0  0  0  0  0  0  0  0  0  0
   17.9266   -8.8569   16.8035 H   0  0  0  0  0  0  0  0  0  0  0  0
   17.1489   -9.1330   14.9039 C   0  0  0  0  0  0  0  0  0  0  0  0
   16.2067   -8.6504   13.9831 C   0  0  0  0  0  0  0  0  0  0  0  0
   16.3040   -8.9858   12.6297 C   0  0  0  0  0  0  0  0  0  0  0  0
   17.3417   -9.8074   12.1793 C   0  0  0  0  0  0  0  0  0  0  0  0
   18.2850  -10.2915   13.0997 C   0  0  0  0  0  0  0  0  0  0  0  0
   18.1870   -9.9543   14.4526 C   0  0  0  0  0  0  0  0  0  0  0  0
   17.4124  -10.1256   10.8202 O   0  0  0  0  0  0  0  0  0  0  0  0
   17.9364   -9.2305    9.8487 C   0  0  0  0  0  0  0  0  0  0  0  0
 24 25  1  0  0  0
 25 20  1  0  0  0
 20 21  1  0  0  0
 21 22  2  0  0  0
 11 21  1  0  0  0
 11 12  1  0  0  0
 12 13  1  0  0  0
 13 14  1  0  0  0
 14 15  1  0  0  0
 14 16  1  0  0  0
 16 17  1  0  0  0
 13  1  1  0  0  0
  1  2  1  0  0  0
  2  3  2  0  0  0
  3  4  1  0  0  0
  4  5  2  0  0  0
  5 26  1  0  0  0
 26 27  1  0  0  0
 27 28  2  0  0  0
 27 29  1  0  0  0
 29 32  1  0  0  0
 32 33  2  0  0  0
 33 34  1  0  0  0
 34 35  2  0  0  0
 35 38  1  0  0  0
 38 39  1  0  0  0
 35 36  1  0  0  0
 36 37  2  0  0  0
  5  6  1  0  0  0
  6  7  2  0  0  0
  7  8  1  0  0  0
  7  9  1  0  0  0
  9 10  2  0  0  0
 16 11  1  0  0  0
 10  1  1  0  0  0
 10  4  1  0  0  0
 37 32  1  0  0  0
 20 23  1  0  0  0
 15 18  1  0  0  0
 17 19  1  0  0  0
 26 30  1  0  0  0
 29 31  1  0  0  0
M  END
>  <minimizedAffinity>
-9.48210

>  <minimizedRMSD>
1.56685

$$$$
CHEMBL5019523 CSC069638451 MCULE-7014518909 MolPort-046-082-139 PubChem-136514549 Z1412151907


 31 33  0  0  0  0  0  0  0  0999 V2000
   15.2294   -7.8939   17.3065 C   0  0  0  0  0  0  0  0  0  0  0  0
   14.7710   -7.4452   16.2206 O   0  0  0  0  0  0  0  0  0  0  0  0
   16.3871   -8.7435   17.3157 N   0  0  0  0  0  0  0  0  0  0  0  0
   16.6941   -9.0600   18.1960 H   0  0  0  0  0  0  0  0  0  0  0  0
   12.6734   -6.5867   19.7821 C   0  0  0  0  0  0  0  0  0  0  0  0
   13.3141   -6.9274   18.5788 C   0  0  0  0  0  0  0  0  0  0  0  0
   14.5713   -7.5430   18.5773 C   0  0  0  0  0  0  0  0  0  0  0  0
   15.1915   -7.8281   19.7978 C   0  0  0  0  0  0  0  0  0  0  0  0
   14.5693   -7.4914   21.0005 C   0  0  0  0  0  0  0  0  0  0  0  0
   13.3203   -6.8618   21.0110 C   0  0  0  0  0  0  0  0  0  0  0  0
   11.1613   -4.6897   19.2714 C   0  0  0  0  0  0  0  0  0  0  0  0
   11.4022   -6.0013   19.7635 O   0  0  0  0  0  0  0  0  0  0  0  0
   12.7677   -6.5492   22.2623 O   0  0  0  0  0  0  0  0  0  0  0  0
   12.4630   -5.2330   22.7094 C   0  0  0  0  0  0  0  0  0  0  0  0
   13.6590   -4.3552   22.5696 C   0  0  0  0  0  0  0  0  0  0  0  0
   13.6118   -3.2146   21.7211 N   0  0  0  0  0  0  0  0  0  0  0  0
   14.7220   -4.6393   23.1799 O   0  0  0  0  0  0  0  0  0  0  0  0
   12.7808   -2.9910   21.2428 H   0  0  0  0  0  0  0  0  0  0  0  0
   14.4101   -2.6489   21.6120 H   0  0  0  0  0  0  0  0  0  0  0  0
   17.1432   -9.1796   16.1779 C   0  0  0  0  0  0  0  0  0  0  0  0
   18.4896   -9.5157   16.3530 C   0  0  0  0  0  0  0  0  0  0  0  0
   19.2587   -9.9448   15.2679 C   0  0  0  0  0  0  0  0  0  0  0  0
   18.6837  -10.0402   13.9982 C   0  0  0  0  0  0  0  0  0  0  0  0
   17.3365   -9.7069   13.8075 C   0  0  0  0  0  0  0  0  0  0  0  0
   16.5725   -9.2778   14.8999 C   0  0  0  0  0  0  0  0  0  0  0  0
   16.7248   -9.8049   12.4744 C   0  0  0  0  0  0  0  0  0  0  0  0
   17.4163   -9.6882   11.3231 N   0  0  0  0  0  0  0  0  0  0  0  0
   16.4591   -9.8441   10.3916 C   0  0  0  0  0  0  0  0  0  0  0  0
   16.7136   -9.7988    8.9278 C   0  0  0  0  0  0  0  0  0  0  0  0
   15.2302  -10.0482   10.9803 C   0  0  0  0  0  0  0  0  0  0  0  0
   15.4427  -10.0161   12.2747 O   0  0  0  0  0  0  0  0  0  0  0  0
 11 12  1  0  0  0
 12  5  1  0  0  0
  5  6  2  0  0  0
  6  7  1  0  0  0
  7  8  2  0  0  0
  8  9  1  0  0  0
  9 10  2  0  0  0
 10 13  1  0  0  0
 13 14  1  0  0  0
 14 15  1  0  0  0
 15 16  1  0  0  0
 15 17  2  0  0  0
  7  1  1  0  0  0
  1  2  2  0  0  0
  1  3  1  0  0  0
  3 20  1  0  0  0
 20 21  2  0  0  0
 21 22  1  0  0  0
 22 23  2  0  0  0
 23 24  1  0  0  0
 24 25  2  0  0  0
 24 26  1  0  0  0
 26 27  2  0  0  0
 27 28  1  0  0  0
 28 29  1  0  0  0
 28 30  2  0  0  0
 30 31  1  0  0  0
 10  5  1  0  0  0
 25 20  1  0  0  0
 31 26  1  0  0  0
 16 18  1  0  0  0
 16 19  1  0  0  0
  3  4  1  0  0  0
M  END
>  <minimizedAffinity>
-9.47671

>  <minimizedRMSD>
1.32326

$$$$
CHEMBL2031095 PubChem-44463064


 38 40  0  0  0  0  0  0  0  0999 V2000
   17.2879   -8.8137   15.7599 N   0  0  0  0  0  0  0  0  0  0  0  0
   17.2041   -7.8328   15.7709 H   0  0  0  0  0  0  0  0  0  0  0  0
   16.7952   -9.8843   12.2221 C   0  0  0  0  0  0  0  0  0  0  0  0
   18.0312  -10.4836   11.9380 C   0  0  0  0  0  0  0  0  0  0  0  0
   19.0328  -10.5243   12.9102 C   0  0  0  0  0  0  0  0  0  0  0  0
   18.7984   -9.9813   14.1757 C   0  0  0  0  0  0  0  0  0  0  0  0
   17.5561   -9.4073   14.4821 C   0  0  0  0  0  0  0  0  0  0  0  0
   16.5639   -9.3576   13.4969 C   0  0  0  0  0  0  0  0  0  0  0  0
   15.9007   -9.9572    9.8326 C   0  0  0  0  0  0  0  0  0  0  0  0
   15.0360  -10.5934    9.1733 O   0  0  0  0  0  0  0  0  0  0  0  0
   15.7395   -9.8536   11.2542 N   0  0  0  0  0  0  0  0  0  0  0  0
   14.8215   -9.7523   11.5951 H   0  0  0  0  0  0  0  0  0  0  0  0
   19.0809   -7.9875    7.7266 C   0  0  0  0  0  0  0  0  0  0  0  0
   18.9364   -7.8104    9.1117 C   0  0  0  0  0  0  0  0  0  0  0  0
   17.9054   -8.4549    9.7998 C   0  0  0  0  0  0  0  0  0  0  0  0
   17.0106   -9.2919    9.1178 C   0  0  0  0  0  0  0  0  0  0  0  0
   17.1500   -9.4551    7.7324 C   0  0  0  0  0  0  0  0  0  0  0  0
   18.1805   -8.8099    7.0429 C   0  0  0  0  0  0  0  0  0  0  0  0
   20.1949   -7.4187    5.5925 C   0  0  0  0  0  0  0  0  0  0  0  0
   20.1027   -7.3593    7.0094 O   0  0  0  0  0  0  0  0  0  0  0  0
   17.1262   -9.4738   17.0268 C   0  0  0  0  0  0  0  0  0  0  0  0
   17.6109  -11.0232   17.2487 S   0  0  0  0  0  0  0  0  0  0  0  0
   16.3506   -8.8616   18.0628 N   0  0  0  0  0  0  0  0  0  0  0  0
   15.2529   -7.9595   17.8660 C   0  0  0  0  0  0  0  0  0  0  0  0
   14.9257   -7.5937   16.7040 O   0  0  0  0  0  0  0  0  0  0  0  0
   16.5920   -9.0790   18.9921 H   0  0  0  0  0  0  0  0  0  0  0  0
   14.5076   -7.4498   19.0304 C   0  0  0  0  0  0  0  0  0  0  0  0
   13.3909   -6.6289   18.8536 C   0  0  0  0  0  0  0  0  0  0  0  0
   12.6685   -6.1365   19.9521 C   0  0  0  0  0  0  0  0  0  0  0  0
   13.0804   -6.4803   21.2649 C   0  0  0  0  0  0  0  0  0  0  0  0
   14.2048   -7.3047   21.4413 C   0  0  0  0  0  0  0  0  0  0  0  0
   14.9075   -7.7824   20.3260 C   0  0  0  0  0  0  0  0  0  0  0  0
   11.5554   -5.3133   19.7450 O   0  0  0  0  0  0  0  0  0  0  0  0
   11.3690   -4.5437   18.5642 C   0  0  0  0  0  0  0  0  0  0  0  0
   12.4188   -6.0365   22.4225 O   0  0  0  0  0  0  0  0  0  0  0  0
   12.6399   -4.7870   23.0607 C   0  0  0  0  0  0  0  0  0  0  0  0
   14.6056   -7.6394   22.7399 O   0  0  0  0  0  0  0  0  0  0  0  0
   15.7361   -7.0546   23.3727 C   0  0  0  0  0  0  0  0  0  0  0  0
 19 20  1  0  0  0
 20 13  1  0  0  0
 13 14  2  0  0  0
 14 15  1  0  0  0
 15 16  2  0  0  0
 16  9  1  0  0  0
 16 17  1  0  0  0
  9 10  2  0  0  0
  9 11  1  0  0  0
 11  3  1  0  0  0
  3  4  2  0  0  0
  4  5  1  0  0  0
  5  6  2  0  0  0
  6  7  1  0  0  0
  7  1  1  0  0  0
  7  8  2  0  0  0
  1 21  1  0  0  0
 21 22  2  0  0  0
 21 23  1  0  0  0
 23 24  1  0  0  0
 24 25  2  0  0  0
 24 27  1  0  0  0
 27 28  2  0  0  0
 28 29  1  0  0  0
 29 33  1  0  0  0
 29 30  2  0  0  0
 33 34  1  0  0  0
 30 35  1  0  0  0
 30 31  1  0  0  0
 35 36  1  0  0  0
 31 37  1  0  0  0
 31 32  2  0  0  0
 37 38  1  0  0  0
 32 27  1  0  0  0
  8  3  1  0  0  0
 17 18  2  0  0  0
 18 13  1  0  0  0
 11 12  1  0  0  0
  1  2  1  0  0  0
 23 26  1  0  0  0
M  END
>  <minimizedAffinity>
-9.47513

>  <minimizedRMSD>
1.17931

$$$$
CHEMBL3192469 LN00753347 MolPort-000-827-256 PubChem-9637339 ZINC08997582


 38 41  0  0  0  0  0  0  0  0999 V2000
   14.7203   -7.2157   19.9314 C   0  0  0  0  0  0  0  0  0  0  0  0
   14.0805   -6.2246   20.6571 C   0  0  0  0  0  0  0  0  0  0  0  0
   14.4432   -6.4015   21.9441 N   0  0  0  0  0  0  0  0  0  0  0  0
   15.2479   -7.4512   22.0028 N   0  0  0  0  0  0  0  0  0  0  0  0
   15.4331   -7.9661   20.7957 N   0  0  0  0  0  0  0  0  0  0  0  0
   14.0850   -5.6026   23.0822 C   0  0  0  0  0  0  0  0  0  0  0  0
   12.8456   -5.4905   23.5900 N   0  0  0  0  0  0  0  0  0  0  0  0
   12.9586   -4.6694   24.5999 O   0  0  0  0  0  0  0  0  0  0  0  0
   14.1735   -4.2308   24.7949 N   0  0  0  0  0  0  0  0  0  0  0  0
   14.9099   -4.8110   23.8357 C   0  0  0  0  0  0  0  0  0  0  0  0
   16.3106   -4.6214   23.6690 N   0  0  0  0  0  0  0  0  0  0  0  0
   16.8022   -4.0229   24.2768 H   0  0  0  0  0  0  0  0  0  0  0  0
   16.7880   -5.0889   22.9459 H   0  0  0  0  0  0  0  0  0  0  0  0
   15.7685   -8.1807   17.8729 N   0  0  0  0  0  0  0  0  0  0  0  0
   14.7084   -7.4417   18.4787 C   0  0  0  0  0  0  0  0  0  0  0  0
   13.7854   -6.9678   17.7650 O   0  0  0  0  0  0  0  0  0  0  0  0
   16.4940   -8.5367   18.4351 H   0  0  0  0  0  0  0  0  0  0  0  0
   16.7775   -9.0528   15.9599 C   0  0  0  0  0  0  0  0  0  0  0  0
   15.7925   -8.4069   16.4922 N   0  0  0  0  0  0  0  0  0  0  0  0
   16.9862   -9.8213   11.7571 C   0  0  0  0  0  0  0  0  0  0  0  0
   17.9859  -10.2909   12.6250 C   0  0  0  0  0  0  0  0  0  0  0  0
   17.9088  -10.0346   13.9968 C   0  0  0  0  0  0  0  0  0  0  0  0
   16.8342   -9.3076   14.5168 C   0  0  0  0  0  0  0  0  0  0  0  0
   15.8346   -8.8376   13.6534 C   0  0  0  0  0  0  0  0  0  0  0  0
   15.9125   -9.0943   12.2816 C   0  0  0  0  0  0  0  0  0  0  0  0
   17.0274  -10.0576   10.3740 O   0  0  0  0  0  0  0  0  0  0  0  0
   18.3993   -8.1196    9.8138 C   0  0  0  0  0  0  0  0  0  0  0  0
   18.0177   -9.5501    9.4753 C   0  0  0  0  0  0  0  0  0  0  0  0
   17.5723   -9.6672    8.0281 C   0  0  0  0  0  0  0  0  0  0  0  0
   13.1155   -5.1856   20.1591 C   0  0  0  0  0  0  0  0  0  0  0  0
   11.7344   -5.6650   20.2112 N   0  0  0  0  0  0  0  0  0  0  0  0
   10.8210   -4.9519   21.0923 C   0  0  0  0  0  0  0  0  0  0  0  0
   11.3075   -6.8804   19.5614 C   0  0  0  0  0  0  0  0  0  0  0  0
   10.6655   -6.8313   18.3120 C   0  0  0  0  0  0  0  0  0  0  0  0
   10.2498   -8.0057   17.6779 C   0  0  0  0  0  0  0  0  0  0  0  0
   10.4702   -9.2434   18.2864 C   0  0  0  0  0  0  0  0  0  0  0  0
   11.1049   -9.3066   19.5288 C   0  0  0  0  0  0  0  0  0  0  0  0
   11.5194   -8.1316   20.1614 C   0  0  0  0  0  0  0  0  0  0  0  0
 27 28  1  0  0  0
 28 29  1  0  0  0
 28 26  1  0  0  0
 26 20  1  0  0  0
 20 21  2  0  0  0
 21 22  1  0  0  0
 22 23  2  0  0  0
 23 18  1  0  0  0
 23 24  1  0  0  0
 18 19  2  0  0  0
 19 14  1  0  0  0
 14 15  1  0  0  0
 15 16  2  0  0  0
 15  1  1  0  0  0
  1  2  2  0  0  0
  2 30  1  0  0  0
  2  3  1  0  0  0
 30 31  1  0  0  0
 31 32  1  0  0  0
 31 33  1  0  0  0
 33 34  2  0  0  0
 34 35  1  0  0  0
 35 36  2  0  0  0
 36 37  1  0  0  0
 37 38  2  0  0  0
 38 33  1  0  0  0
  3  4  1  0  0  0
  3  6  1  0  0  0
  4  5  2  0  0  0
  5  1  1  0  0  0
  6  7  2  0  0  0
  7  8  1  0  0  0
  8  9  1  0  0  0
  9 10  2  0  0  0
 10 11  1  0  0  0
 10  6  1  0  0  0
 24 25  2  0  0  0
 25 20  1  0  0  0
 14 17  1  0  0  0
 11 12  1  0  0  0
 11 13  1  0  0  0
M  END
>  <minimizedAffinity>
-9.46220

>  <minimizedRMSD>
1.97261

$$$$
CHEMBL2029941 PubChem-70694147


 32 35  0  0  0  0  0  0  0  0999 V2000
   15.4489   -7.9303   17.7273 C   0  0  0  0  0  0  0  0  0  0  0  0
   14.1393   -7.6655   17.3012 C   0  0  0  0  0  0  0  0  0  0  0  0
   13.1644   -7.2579   18.2171 C   0  0  0  0  0  0  0  0  0  0  0  0
   11.7773   -7.0029   17.7360 C   0  0  0  0  0  0  0  0  0  0  0  0
   13.4989   -7.1001   19.5708 C   0  0  0  0  0  0  0  0  0  0  0  0
   12.5840   -6.7088   20.4520 O   0  0  0  0  0  0  0  0  0  0  0  0
   12.8576   -6.5136   21.7389 C   0  0  0  0  0  0  0  0  0  0  0  0
   11.9338   -6.1285   22.5044 O   0  0  0  0  0  0  0  0  0  0  0  0
   14.1614   -6.7482   22.2331 C   0  0  0  0  0  0  0  0  0  0  0  0
   15.1415   -7.1619   21.3281 C   0  0  0  0  0  0  0  0  0  0  0  0
   14.8196   -7.3498   19.9912 C   0  0  0  0  0  0  0  0  0  0  0  0
   15.7865   -7.7702   19.0742 C   0  0  0  0  0  0  0  0  0  0  0  0
   16.3934   -9.2441   14.1446 C   0  0  0  0  0  0  0  0  0  0  0  0
   15.7132  -10.0137   15.2946 C   0  0  0  0  0  0  0  0  0  0  0  0
   16.3929   -9.7814   16.5107 O   0  0  0  0  0  0  0  0  0  0  0  0
   16.4941   -8.3820   16.7579 C   0  0  0  0  0  0  0  0  0  0  0  0
   16.4494   -7.6009   15.5758 O   0  0  0  0  0  0  0  0  0  0  0  0
   17.2042   -8.2299   14.6844 O   0  0  0  0  0  0  0  0  0  0  0  0
   18.0435  -11.0299   13.6674 C   0  0  0  0  0  0  0  0  0  0  0  0
   17.2021  -10.1055   13.1971 C   0  0  0  0  0  0  0  0  0  0  0  0
   17.0817   -9.8918   11.7261 C   0  0  0  0  0  0  0  0  0  0  0  0
   15.8799  -10.1891   11.0647 C   0  0  0  0  0  0  0  0  0  0  0  0
   15.7594  -10.0120    9.6832 C   0  0  0  0  0  0  0  0  0  0  0  0
   16.8419   -9.5310    8.9447 C   0  0  0  0  0  0  0  0  0  0  0  0
   16.7224   -9.3447    7.6069 F   0  0  0  0  0  0  0  0  0  0  0  0
   18.0431   -9.2246    9.5878 C   0  0  0  0  0  0  0  0  0  0  0  0
   18.1613   -9.3981   10.9717 C   0  0  0  0  0  0  0  0  0  0  0  0
   14.5442   -6.5133   23.6459 C   0  0  0  0  0  0  0  0  0  0  0  0
   15.1578   -7.4203   24.2791 O   0  0  0  0  0  0  0  0  0  0  0  0
   14.2604   -5.2877   24.2703 O   0  0  0  0  0  0  0  0  0  0  0  0
   15.0896   -4.7315   25.2833 C   0  0  0  0  0  0  0  0  0  0  0  0
   16.2479   -3.9752   24.6475 C   0  0  0  0  0  0  0  0  0  0  0  0
 19 20  2  0  0  0
 20 21  1  0  0  0
 21 22  2  0  0  0
 22 23  1  0  0  0
 23 24  2  0  0  0
 24 25  1  0  0  0
 24 26  1  0  0  0
 26 27  2  0  0  0
 27 21  1  0  0  0
 13 20  1  0  0  0
 13 14  1  0  0  0
 14 15  1  0  0  0
 15 16  1  0  0  0
 16  1  1  0  0  0
 16 17  1  0  0  0
  1  2  2  0  0  0
  2  3  1  0  0  0
  3  4  1  0  0  0
  3  5  2  0  0  0
  5  6  1  0  0  0
  6  7  1  0  0  0
  7  8  2  0  0  0
  7  9  1  0  0  0
  9 28  1  0  0  0
  9 10  2  0  0  0
 28 29  2  0  0  0
 28 30  1  0  0  0
 30 31  1  0  0  0
 31 32  1  0  0  0
 10 11  1  0  0  0
 11 12  2  0  0  0
 11  5  1  0  0  0
 12  1  1  0  0  0
 17 18  1  0  0  0
 18 13  1  0  0  0
M  END
>  <minimizedAffinity>
-9.43829

>  <minimizedRMSD>
1.79963

$$$$
CHEMBL1714846 ChemDiv-G569-0168 MCULE-1575754358 MolPort-003-096-222 PubChem-16028706 ZINC000008619511 ZINC08619511


 31 33  0  0  0  0  0  0  0  0999 V2000
   15.3801   -7.9371   17.4478 C   0  0  0  0  0  0  0  0  0  0  0  0
   15.1440   -7.4150   16.3235 O   0  0  0  0  0  0  0  0  0  0  0  0
   16.4238   -8.9081   17.5799 N   0  0  0  0  0  0  0  0  0  0  0  0
   16.6077   -9.2854   18.4705 H   0  0  0  0  0  0  0  0  0  0  0  0
   12.5743   -6.5397   19.5751 C   0  0  0  0  0  0  0  0  0  0  0  0
   13.3455   -6.9192   18.4650 C   0  0  0  0  0  0  0  0  0  0  0  0
   14.5845   -7.5449   18.6240 C   0  0  0  0  0  0  0  0  0  0  0  0
   15.0587   -7.7949   19.9131 C   0  0  0  0  0  0  0  0  0  0  0  0
   14.3097   -7.4267   21.0398 C   0  0  0  0  0  0  0  0  0  0  0  0
   13.0632   -6.7970   20.8814 C   0  0  0  0  0  0  0  0  0  0  0  0
   11.2066   -4.5511   19.0035 C   0  0  0  0  0  0  0  0  0  0  0  0
   11.3363   -5.9142   19.3858 O   0  0  0  0  0  0  0  0  0  0  0  0
   14.7855   -7.6775   22.3320 O   0  0  0  0  0  0  0  0  0  0  0  0
   15.7910   -6.8859   22.9504 C   0  0  0  0  0  0  0  0  0  0  0  0
   12.3619   -6.4533   22.0496 O   0  0  0  0  0  0  0  0  0  0  0  0
   12.3526   -5.1647   22.6469 C   0  0  0  0  0  0  0  0  0  0  0  0
   17.2237   -9.3600   16.4519 C   0  0  0  0  0  0  0  0  0  0  0  0
   16.3543  -10.1298   15.4731 C   0  0  0  0  0  0  0  0  0  0  0  0
   16.9621  -10.1012   14.1112 C   0  0  0  0  0  0  0  0  0  0  0  0
   17.9075  -10.9912   13.6125 C   0  0  0  0  0  0  0  0  0  0  0  0
   18.4771  -12.1162   14.4046 C   0  0  0  0  0  0  0  0  0  0  0  0
   18.2864  -10.7631   12.3269 N   0  0  0  0  0  0  0  0  0  0  0  0
   17.6470   -9.6978   11.7896 C   0  0  0  0  0  0  0  0  0  0  0  0
   16.5822   -9.0001   12.8978 S   0  0  0  0  0  0  0  0  0  0  0  0
   17.8674   -9.2298   10.4111 C   0  0  0  0  0  0  0  0  0  0  0  0
   17.1284   -9.7688    9.3480 C   0  0  0  0  0  0  0  0  0  0  0  0
   17.3413   -9.3211    8.0411 C   0  0  0  0  0  0  0  0  0  0  0  0
   16.6234   -9.8468    7.0200 F   0  0  0  0  0  0  0  0  0  0  0  0
   18.2947   -8.3312    7.7879 C   0  0  0  0  0  0  0  0  0  0  0  0
   19.0352   -7.7890    8.8418 C   0  0  0  0  0  0  0  0  0  0  0  0
   18.8221   -8.2368   10.1488 C   0  0  0  0  0  0  0  0  0  0  0  0
 11 12  1  0  0  0
 12  5  1  0  0  0
  5  6  2  0  0  0
  6  7  1  0  0  0
  7  8  2  0  0  0
  7  1  1  0  0  0
  8  9  1  0  0  0
  9 13  1  0  0  0
  9 10  2  0  0  0
 13 14  1  0  0  0
 10 15  1  0  0  0
 10  5  1  0  0  0
 15 16  1  0  0  0
  1  2  2  0  0  0
  1  3  1  0  0  0
  3 17  1  0  0  0
 17 18  1  0  0  0
 18 19  1  0  0  0
 19 20  2  0  0  0
 20 21  1  0  0  0
 20 22  1  0  0  0
 22 23  2  0  0  0
 23 24  1  0  0  0
 23 25  1  0  0  0
 24 19  1  0  0  0
 25 26  2  0  0  0
 26 27  1  0  0  0
 27 28  1  0  0  0
 27 29  2  0  0  0
 29 30  1  0  0  0
 30 31  2  0  0  0
 31 25  1  0  0  0
  3  4  1  0  0  0
M  END
>  <minimizedAffinity>
-9.41508

>  <minimizedRMSD>
1.59828

$$$$
CHEMBL4522725 PubChem-155543600


 33 36  0  0  0  0  0  0  0  0999 V2000
   15.6333   -8.3757   17.0349 C   0  0  0  0  0  0  0  0  0  0  0  0
   16.8434   -8.9959   17.1105 N   0  0  0  0  0  0  0  0  0  0  0  0
   17.0461   -9.3338   15.8250 C   0  0  0  0  0  0  0  0  0  0  0  0
   18.1459  -10.0090   15.3065 C   0  0  0  0  0  0  0  0  0  0  0  0
   18.1481  -10.2611   13.9243 C   0  0  0  0  0  0  0  0  0  0  0  0
   17.0765   -9.8412   13.1094 C   0  0  0  0  0  0  0  0  0  0  0  0
   15.9943   -9.1624   13.7034 C   0  0  0  0  0  0  0  0  0  0  0  0
   16.0372   -8.9447   15.0396 N   0  0  0  0  0  0  0  0  0  0  0  0
   15.1294   -8.3368   15.7761 N   0  0  0  0  0  0  0  0  0  0  0  0
   12.9885   -6.7295   19.1752 C   0  0  0  0  0  0  0  0  0  0  0  0
   13.6510   -7.2881   18.0733 C   0  0  0  0  0  0  0  0  0  0  0  0
   14.9440   -7.7981   18.1998 C   0  0  0  0  0  0  0  0  0  0  0  0
   15.5766   -7.7531   19.4437 C   0  0  0  0  0  0  0  0  0  0  0  0
   14.9366   -7.1999   20.5642 C   0  0  0  0  0  0  0  0  0  0  0  0
   13.6272   -6.6735   20.4262 C   0  0  0  0  0  0  0  0  0  0  0  0
   10.5856   -7.0131   18.6397 C   0  0  0  0  0  0  0  0  0  0  0  0
   11.6908   -6.2188   19.0499 O   0  0  0  0  0  0  0  0  0  0  0  0
   15.5889   -7.1771   21.8026 O   0  0  0  0  0  0  0  0  0  0  0  0
   16.7874   -6.4491   22.0340 C   0  0  0  0  0  0  0  0  0  0  0  0
   12.9154   -6.0890   21.4871 O   0  0  0  0  0  0  0  0  0  0  0  0
   13.0761   -4.7509   21.9367 C   0  0  0  0  0  0  0  0  0  0  0  0
   17.1246  -10.1155   11.7030 N   0  0  0  0  0  0  0  0  0  0  0  0
   16.0052  -10.3002   10.8283 C   0  0  0  0  0  0  0  0  0  0  0  0
   14.8233  -10.2403   11.2581 O   0  0  0  0  0  0  0  0  0  0  0  0
   18.0187  -10.1840   11.2966 H   0  0  0  0  0  0  0  0  0  0  0  0
   16.2433  -10.5297    9.3755 C   0  0  0  0  0  0  0  0  0  0  0  0
   16.2306   -9.2906    8.6726 O   0  0  0  0  0  0  0  0  0  0  0  0
   17.3803   -8.7041    8.1298 C   0  0  0  0  0  0  0  0  0  0  0  0
   18.3183   -8.0348    8.9348 C   0  0  0  0  0  0  0  0  0  0  0  0
   19.4588   -7.4628    8.3627 C   0  0  0  0  0  0  0  0  0  0  0  0
   19.6702   -7.5567    6.9841 C   0  0  0  0  0  0  0  0  0  0  0  0
   18.7419   -8.2231    6.1782 C   0  0  0  0  0  0  0  0  0  0  0  0
   17.6009   -8.7954    6.7507 C   0  0  0  0  0  0  0  0  0  0  0  0
 16 17  1  0  0  0
 17 10  1  0  0  0
 10 11  2  0  0  0
 11 12  1  0  0  0
 12 13  2  0  0  0
 13 14  1  0  0  0
 14 18  1  0  0  0
 18 19  1  0  0  0
 14 15  2  0  0  0
 15 20  1  0  0  0
 20 21  1  0  0  0
 12  1  1  0  0  0
  1  2  1  0  0  0
  2  3  2  0  0  0
  3  4  1  0  0  0
  4  5  2  0  0  0
  5  6  1  0  0  0
  6 22  1  0  0  0
 22 23  1  0  0  0
 23 24  2  0  0  0
 23 26  1  0  0  0
 26 27  1  0  0  0
 27 28  1  0  0  0
 28 29  2  0  0  0
 29 30  1  0  0  0
 30 31  2  0  0  0
 31 32  1  0  0  0
 32 33  2  0  0  0
  6  7  2  0  0  0
  7  8  1  0  0  0
  8  9  1  0  0  0
 15 10  1  0  0  0
  9  1  2  0  0  0
  8  3  1  0  0  0
 33 28  1  0  0  0
 22 25  1  0  0  0
M  END
>  <minimizedAffinity>
-9.39761

>  <minimizedRMSD>
1.27433

$$$$
CHEMBL4060672 PubChem-137636805


 34 37  0  0  0  0  0  0  0  0999 V2000
   15.4962   -8.0465   17.4289 C   0  0  0  0  0  0  0  0  0  0  0  0
   15.1260   -7.7544   16.2602 O   0  0  0  0  0  0  0  0  0  0  0  0
   16.5929   -8.9487   17.6442 N   0  0  0  0  0  0  0  0  0  0  0  0
   16.8282   -9.1321   18.5824 H   0  0  0  0  0  0  0  0  0  0  0  0
   11.8145   -5.4115   21.6152 C   0  0  0  0  0  0  0  0  0  0  0  0
   12.8331   -5.6561   22.4924 N   0  0  0  0  0  0  0  0  0  0  0  0
   13.9668   -6.2514   22.1113 N   0  0  0  0  0  0  0  0  0  0  0  0
   14.1232   -6.6279   20.8219 C   0  0  0  0  0  0  0  0  0  0  0  0
   13.1417   -6.4167   19.8736 C   0  0  0  0  0  0  0  0  0  0  0  0
   11.9453   -5.7918   20.2614 C   0  0  0  0  0  0  0  0  0  0  0  0
   10.8415   -5.5329   19.2854 C   0  0  0  0  0  0  0  0  0  0  0  0
   13.5235   -6.8890   18.6031 C   0  0  0  0  0  0  0  0  0  0  0  0
   14.8035   -7.4619   18.5897 C   0  0  0  0  0  0  0  0  0  0  0  0
   15.4599   -7.3828   20.1497 S   0  0  0  0  0  0  0  0  0  0  0  0
   12.6983   -6.7975   17.4441 N   0  0  0  0  0  0  0  0  0  0  0  0
   10.5797   -4.7423   22.1174 C   0  0  0  0  0  0  0  0  0  0  0  0
   11.8062   -6.3857   17.5061 H   0  0  0  0  0  0  0  0  0  0  0  0
   13.0205   -7.1463   16.5816 H   0  0  0  0  0  0  0  0  0  0  0  0
   17.4020   -9.6278   16.6283 C   0  0  0  0  0  0  0  0  0  0  0  0
   17.5407   -8.7967   15.3693 C   0  0  0  0  0  0  0  0  0  0  0  0
   16.7191   -9.7179   14.5868 N   0  0  0  0  0  0  0  0  0  0  0  0
   16.5681  -10.5590   15.7724 C   0  0  0  0  0  0  0  0  0  0  0  0
   17.5255  -10.3820   13.6298 N   0  0  0  0  0  0  0  0  0  0  0  0
   18.4836  -11.4265   14.0124 C   0  0  0  0  0  0  0  0  0  0  0  0
   17.3969  -10.0163   12.2432 C   0  0  0  0  0  0  0  0  0  0  0  0
   16.1533  -10.0866   11.6018 C   0  0  0  0  0  0  0  0  0  0  0  0
   16.0316   -9.7307   10.2585 C   0  0  0  0  0  0  0  0  0  0  0  0
   17.1613   -9.2949    9.5577 C   0  0  0  0  0  0  0  0  0  0  0  0
   18.3666   -9.2442   10.1896 N   0  0  0  0  0  0  0  0  0  0  0  0
   18.5056   -9.5868   11.4983 C   0  0  0  0  0  0  0  0  0  0  0  0
   17.0542   -8.9418    8.1053 C   0  0  0  0  0  0  0  0  0  0  0  0
   17.0553  -10.0994    7.3496 F   0  0  0  0  0  0  0  0  0  0  0  0
   18.1228   -8.1511    7.7205 F   0  0  0  0  0  0  0  0  0  0  0  0
   15.8803   -8.2475    7.8726 F   0  0  0  0  0  0  0  0  0  0  0  0
  5  6  2  0  0  0
  6  7  1  0  0  0
  7  8  2  0  0  0
  8  9  1  0  0  0
  9 10  2  0  0  0
 10 11  1  0  0  0
  9 12  1  0  0  0
 12 13  2  0  0  0
 13 14  1  0  0  0
 13  1  1  0  0  0
  1  2  2  0  0  0
  1  3  1  0  0  0
  3 19  1  0  0  0
 19 20  1  0  0  0
 20 21  1  0  0  0
 21 22  1  0  0  0
 21 23  1  0  0  0
 23 24  1  0  0  0
 23 25  1  0  0  0
 25 26  2  0  0  0
 26 27  1  0  0  0
 27 28  2  0  0  0
 28 29  1  0  0  0
 29 30  2  0  0  0
 28 31  1  0  0  0
 31 32  1  0  0  0
 31 33  1  0  0  0
 31 34  1  0  0  0
 12 15  1  0  0  0
  5 16  1  0  0  0
 10  5  1  0  0  0
 22 19  1  0  0  0
 30 25  1  0  0  0
 14  8  1  0  0  0
  3  4  1  0  0  0
 15 17  1  0  0  0
 15 18  1  0  0  0
M  END
>  <minimizedAffinity>
-9.39335

>  <minimizedRMSD>
1.48408

$$$$
CHEMBL3622107 PubChem-117852306


 34 38  0  0  0  0  0  0  0  0999 V2000
   16.6810   -9.4767   14.2336 C   0  0  0  0  0  0  0  0  0  0  0  0
   15.2511   -9.7821   13.7944 C   0  0  0  0  0  0  0  0  0  0  0  0
   15.2321   -9.6794   12.2790 C   0  0  0  0  0  0  0  0  0  0  0  0
   16.6271   -9.6666   11.8752 N   0  0  0  0  0  0  0  0  0  0  0  0
   17.5399   -9.6611   12.9974 C   0  0  0  0  0  0  0  0  0  0  0  0
   16.7893   -8.0173   14.6949 C   0  0  0  0  0  0  0  0  0  0  0  0
   16.1737   -7.7588   16.0836 C   0  0  0  0  0  0  0  0  0  0  0  0
   15.8474   -8.9897   16.8085 N   0  0  0  0  0  0  0  0  0  0  0  0
   16.9890   -9.8983   16.7360 C   0  0  0  0  0  0  0  0  0  0  0  0
   17.1251  -10.4645   15.3192 C   0  0  0  0  0  0  0  0  0  0  0  0
   17.0647   -9.5009   10.5197 C   0  0  0  0  0  0  0  0  0  0  0  0
   16.3766  -10.1172    9.4662 C   0  0  0  0  0  0  0  0  0  0  0  0
   16.7874   -9.8930    8.1527 C   0  0  0  0  0  0  0  0  0  0  0  0
   17.8807   -9.0658    7.8927 C   0  0  0  0  0  0  0  0  0  0  0  0
   18.5579   -8.4733    8.9717 C   0  0  0  0  0  0  0  0  0  0  0  0
   18.1299   -8.7017   10.2424 N   0  0  0  0  0  0  0  0  0  0  0  0
   19.7439   -7.5975    8.7597 C   0  0  0  0  0  0  0  0  0  0  0  0
   18.2558   -8.8071    6.5270 C   0  0  0  0  0  0  0  0  0  0  0  0
   18.5516   -8.5941    5.4297 N   0  0  0  0  0  0  0  0  0  0  0  0
   15.6875   -8.6118   18.2024 C   0  0  0  0  0  0  0  0  0  0  0  0
   14.3285   -7.9645   18.4289 C   0  0  0  0  0  0  0  0  0  0  0  0
   14.0768   -7.0023   17.4528 O   0  0  0  0  0  0  0  0  0  0  0  0
   14.7479   -6.3040   17.5064 H   0  0  0  0  0  0  0  0  0  0  0  0
   14.2448   -7.3616   19.8000 C   0  0  0  0  0  0  0  0  0  0  0  0
   13.0560   -6.7784   20.3154 C   0  0  0  0  0  0  0  0  0  0  0  0
   13.0951   -6.2199   21.5962 C   0  0  0  0  0  0  0  0  0  0  0  0
   14.2514   -6.2259   22.3312 C   0  0  0  0  0  0  0  0  0  0  0  0
   15.4359   -6.7858   21.8597 C   0  0  0  0  0  0  0  0  0  0  0  0
   15.4192   -7.3583   20.5802 C   0  0  0  0  0  0  0  0  0  0  0  0
   13.9598   -5.5637   23.5720 C   0  0  0  0  0  0  0  0  0  0  0  0
   14.7733   -5.3617   24.5111 O   0  0  0  0  0  0  0  0  0  0  0  0
   12.6321   -5.1622   23.5848 O   0  0  0  0  0  0  0  0  0  0  0  0
   11.9928   -5.5399   22.3625 C   0  0  0  0  0  0  0  0  0  0  0  0
   11.7863   -6.7391   19.5297 C   0  0  0  0  0  0  0  0  0  0  0  0
  1  2  1  0  0  0
  2  3  1  0  0  0
  3  4  1  0  0  0
  4  5  1  0  0  0
  4 11  1  0  0  0
 11 12  2  0  0  0
 12 13  1  0  0  0
 13 14  2  0  0  0
 14 15  1  0  0  0
 15 16  2  0  0  0
 15 17  1  0  0  0
 14 18  1  0  0  0
 18 19  3  0  0  0
  1  6  1  0  0  0
  6  7  1  0  0  0
  7  8  1  0  0  0
  8 20  1  0  0  0
 20 21  1  0  0  0
 21 24  1  0  0  0
 24 25  2  0  0  0
 25 26  1  0  0  0
 26 27  2  0  0  0
 27 28  1  0  0  0
 28 29  2  0  0  0
 27 30  1  0  0  0
 30 31  2  0  0  0
 30 32  1  0  0  0
 32 33  1  0  0  0
 25 34  1  0  0  0
 21 22  1  0  0  0
  8  9  1  0  0  0
  9 10  1  0  0  0
  5  1  1  0  0  0
 16 11  1  0  0  0
 29 24  1  0  0  0
 10  1  1  0  0  0
 33 26  1  0  0  0
 22 23  1  0  0  0
M  END
>  <minimizedAffinity>
-9.35888

>  <minimizedRMSD>
1.73919

$$$$
CHEMBL328859


 37 40  0  0  0  0  0  0  0  0999 V2000
   16.8703   -9.8478   13.6679 C   0  0  0  0  0  0  0  0  0  0  0  0
   16.2191   -8.6126   13.7710 C   0  0  0  0  0  0  0  0  0  0  0  0
   15.8534   -8.1163   15.0252 C   0  0  0  0  0  0  0  0  0  0  0  0
   16.1291   -8.8503   16.1831 C   0  0  0  0  0  0  0  0  0  0  0  0
   16.7759  -10.0920   16.0750 C   0  0  0  0  0  0  0  0  0  0  0  0
   17.1430  -10.5882   14.8213 C   0  0  0  0  0  0  0  0  0  0  0  0
   17.2552  -10.3897   12.3326 C   0  0  0  0  0  0  0  0  0  0  0  0
   18.3868   -9.5713   11.7354 C   0  0  0  0  0  0  0  0  0  0  0  0
   17.0918   -9.1037    8.4558 N   0  0  0  0  0  0  0  0  0  0  0  0
   16.9913   -9.6481    9.6583 N   0  0  0  0  0  0  0  0  0  0  0  0
   18.0708   -9.2020   10.3289 C   0  0  0  0  0  0  0  0  0  0  0  0
   18.8318   -8.3947    9.5643 N   0  0  0  0  0  0  0  0  0  0  0  0
   18.1886   -8.3685    8.4105 N   0  0  0  0  0  0  0  0  0  0  0  0
   18.6132   -7.5990    7.2524 C   0  0  0  0  0  0  0  0  0  0  0  0
   18.4428   -8.4141    5.9767 C   0  0  0  0  0  0  0  0  0  0  0  0
   19.7019   -8.3743    5.1148 C   0  0  0  0  0  0  0  0  0  0  0  0
   19.4862   -7.5675    3.8795 C   0  0  0  0  0  0  0  0  0  0  0  0
   18.5954   -7.8797    2.9223 N   0  0  0  0  0  0  0  0  0  0  0  0
   18.7359   -6.9272    2.0158 N   0  0  0  0  0  0  0  0  0  0  0  0
   19.6732   -6.0756    2.4010 N   0  0  0  0  0  0  0  0  0  0  0  0
   20.1653   -6.4491    3.5715 N   0  0  0  0  0  0  0  0  0  0  0  0
   17.9771   -8.6456    2.9009 H   0  0  0  0  0  0  0  0  0  0  0  0
   15.7528   -8.3253   17.4212 O   0  0  0  0  0  0  0  0  0  0  0  0
   14.4333   -7.8720   17.6951 C   0  0  0  0  0  0  0  0  0  0  0  0
   14.3865   -7.2632   19.0556 C   0  0  0  0  0  0  0  0  0  0  0  0
   13.3509   -6.3911   19.4430 C   0  0  0  0  0  0  0  0  0  0  0  0
   13.3643   -5.8141   20.7293 C   0  0  0  0  0  0  0  0  0  0  0  0
   14.4211   -6.0970   21.6255 C   0  0  0  0  0  0  0  0  0  0  0  0
   15.4482   -6.9555   21.2082 C   0  0  0  0  0  0  0  0  0  0  0  0
   15.4315   -7.5306   19.9380 C   0  0  0  0  0  0  0  0  0  0  0  0
   12.3283   -4.9617   21.1019 O   0  0  0  0  0  0  0  0  0  0  0  0
   11.6322   -4.7800   20.5015 H   0  0  0  0  0  0  0  0  0  0  0  0
   14.4744   -5.5239   22.9939 C   0  0  0  0  0  0  0  0  0  0  0  0
   14.3851   -4.2809   23.1798 O   0  0  0  0  0  0  0  0  0  0  0  0
   14.6217   -6.4062   24.1886 C   0  0  0  0  0  0  0  0  0  0  0  0
   12.2224   -6.0861   18.5048 C   0  0  0  0  0  0  0  0  0  0  0  0
   11.0772   -7.0531   18.7320 C   0  0  0  0  0  0  0  0  0  0  0  0
  9 10  2  0  0  0
 10 11  1  0  0  0
 11 12  2  0  0  0
 12 13  1  0  0  0
 13 14  1  0  0  0
 14 15  1  0  0  0
 15 16  1  0  0  0
 16 17  1  0  0  0
 17 18  1  0  0  0
 18 19  1  0  0  0
 19 20  2  0  0  0
 20 21  1  0  0  0
 11  8  1  0  0  0
  8  7  1  0  0  0
  7  1  1  0  0  0
  1  2  2  0  0  0
  2  3  1  0  0  0
  3  4  2  0  0  0
  4 23  1  0  0  0
 23 24  1  0  0  0
 24 25  1  0  0  0
 25 26  2  0  0  0
 26 27  1  0  0  0
 27 28  2  0  0  0
 28 29  1  0  0  0
 29 30  2  0  0  0
 28 33  1  0  0  0
 33 34  2  0  0  0
 33 35  1  0  0  0
 27 31  1  0  0  0
 26 36  1  0  0  0
 36 37  1  0  0  0
  4  5  1  0  0  0
  5  6  2  0  0  0
 13  9  1  0  0  0
 21 17  2  0  0  0
  6  1  1  0  0  0
 30 25  1  0  0  0
 18 22  1  0  0  0
 31 32  1  0  0  0
M  END
>  <minimizedAffinity>
-9.35355

>  <minimizedRMSD>
1.97154

$$$$
CHEMBL4640101


 37 40  0  0  0  0  0  0  0  0999 V2000
   18.4320   -9.0399   14.3209 C   0  0  0  0  0  0  0  0  0  0  0  0
   17.3108   -9.6081   13.5525 N   0  0  0  0  0  0  0  0  0  0  0  0
   16.7918  -10.8178   14.2109 C   0  0  0  0  0  0  0  0  0  0  0  0
   16.1322  -10.3952   15.5258 C   0  0  0  0  0  0  0  0  0  0  0  0
   17.1069   -9.6007   16.4153 C   0  0  0  0  0  0  0  0  0  0  0  0
   17.8807   -8.5113   15.6476 C   0  0  0  0  0  0  0  0  0  0  0  0
   17.8698  -11.8903   14.4879 C   0  0  0  0  0  0  0  0  0  0  0  0
   19.2723  -11.4494   14.0778 C   0  0  0  0  0  0  0  0  0  0  0  0
   19.5741  -10.0437   14.5918 C   0  0  0  0  0  0  0  0  0  0  0  0
   16.3996   -9.0220   17.5538 N   0  0  0  0  0  0  0  0  0  0  0  0
   15.3790   -8.0192   17.4417 C   0  0  0  0  0  0  0  0  0  0  0  0
   15.0703   -7.5552   16.3096 O   0  0  0  0  0  0  0  0  0  0  0  0
   16.6375   -9.3396   18.4548 H   0  0  0  0  0  0  0  0  0  0  0  0
   14.6872   -7.5303   18.6467 C   0  0  0  0  0  0  0  0  0  0  0  0
   13.4246   -6.9416   18.5443 C   0  0  0  0  0  0  0  0  0  0  0  0
   12.7503   -6.4786   19.6822 C   0  0  0  0  0  0  0  0  0  0  0  0
   13.3441   -6.6032   20.9500 C   0  0  0  0  0  0  0  0  0  0  0  0
   14.6211   -7.2101   21.0650 C   0  0  0  0  0  0  0  0  0  0  0  0
   15.2759   -7.6611   19.9071 C   0  0  0  0  0  0  0  0  0  0  0  0
   15.2249   -7.3714   22.3181 O   0  0  0  0  0  0  0  0  0  0  0  0
   16.2749   -6.5351   22.7878 C   0  0  0  0  0  0  0  0  0  0  0  0
   12.6227   -6.1137   22.0522 O   0  0  0  0  0  0  0  0  0  0  0  0
   12.8163   -4.8398   22.6495 C   0  0  0  0  0  0  0  0  0  0  0  0
   11.4868   -5.8834   19.5770 O   0  0  0  0  0  0  0  0  0  0  0  0
   11.2834   -4.6080   18.9830 C   0  0  0  0  0  0  0  0  0  0  0  0
   17.6659   -9.8629   12.1574 C   0  0  0  0  0  0  0  0  0  0  0  0
   16.4323   -9.9400   11.3113 C   0  0  0  0  0  0  0  0  0  0  0  0
   15.4133  -10.5259   11.7665 O   0  0  0  0  0  0  0  0  0  0  0  0
   16.3842   -9.4151    9.9772 N   0  0  0  0  0  0  0  0  0  0  0  0
   15.5029   -9.4411    9.5393 H   0  0  0  0  0  0  0  0  0  0  0  0
   17.4519   -8.8566    9.1960 C   0  0  0  0  0  0  0  0  0  0  0  0
   17.4273   -9.0370    7.8082 C   0  0  0  0  0  0  0  0  0  0  0  0
   18.4547   -8.5258    7.0078 C   0  0  0  0  0  0  0  0  0  0  0  0
   19.5113   -7.8223    7.5915 C   0  0  0  0  0  0  0  0  0  0  0  0
   19.5429   -7.6350    8.9761 C   0  0  0  0  0  0  0  0  0  0  0  0
   18.5190   -8.1533    9.7761 C   0  0  0  0  0  0  0  0  0  0  0  0
   18.4187   -8.7054    5.6647 F   0  0  0  0  0  0  0  0  0  0  0  0
  1  2  1  0  0  0
  2  3  1  0  0  0
  3  4  1  0  0  0
  4  5  1  0  0  0
  5  6  1  0  0  0
  5 10  1  0  0  0
 10 11  1  0  0  0
 11 12  2  0  0  0
 11 14  1  0  0  0
 14 15  2  0  0  0
 15 16  1  0  0  0
 16 17  2  0  0  0
 17 18  1  0  0  0
 18 19  2  0  0  0
 18 20  1  0  0  0
 20 21  1  0  0  0
 17 22  1  0  0  0
 22 23  1  0  0  0
 16 24  1  0  0  0
 24 25  1  0  0  0
  3  7  1  0  0  0
  7  8  1  0  0  0
  8  9  1  0  0  0
  2 26  1  0  0  0
 26 27  1  0  0  0
 27 28  2  0  0  0
 27 29  1  0  0  0
 29 31  1  0  0  0
 31 32  2  0  0  0
 32 33  1  0  0  0
 33 34  2  0  0  0
 34 35  1  0  0  0
 35 36  2  0  0  0
 33 37  1  0  0  0
  1  6  1  0  0  0
 19 14  1  0  0  0
 36 31  1  0  0  0
  9  1  1  0  0  0
 10 13  1  0  0  0
 29 30  1  0  0  0
M  END
>  <minimizedAffinity>
-9.34465

>  <minimizedRMSD>
1.29851

$$$$
CHEMBL1797487 PubChem-53260100


 39 42  0  0  0  0  0  0  0  0999 V2000
   15.7150   -8.2118   17.0710 C   0  0  0  0  0  0  0  0  0  0  0  0
   15.1084   -7.2414   16.5401 O   0  0  0  0  0  0  0  0  0  0  0  0
   15.8192   -8.3033   18.4982 N   0  0  0  0  0  0  0  0  0  0  0  0
   16.4861   -8.9303   18.8607 H   0  0  0  0  0  0  0  0  0  0  0  0
   15.0369   -7.5613   19.4439 C   0  0  0  0  0  0  0  0  0  0  0  0
   15.6624   -7.0611   20.5833 C   0  0  0  0  0  0  0  0  0  0  0  0
   14.9230   -6.3529   21.5249 C   0  0  0  0  0  0  0  0  0  0  0  0
   15.5449   -5.8275   22.6539 C   0  0  0  0  0  0  0  0  0  0  0  0
   14.7963   -5.1206   23.5915 C   0  0  0  0  0  0  0  0  0  0  0  0
   13.4219   -4.9354   23.4171 C   0  0  0  0  0  0  0  0  0  0  0  0
   12.7794   -5.4314   22.2589 C   0  0  0  0  0  0  0  0  0  0  0  0
   13.5400   -6.1639   21.3123 C   0  0  0  0  0  0  0  0  0  0  0  0
   12.9724   -6.6822   20.2247 O   0  0  0  0  0  0  0  0  0  0  0  0
   13.6476   -7.3699   19.3065 C   0  0  0  0  0  0  0  0  0  0  0  0
   13.0208   -7.8699   18.3359 O   0  0  0  0  0  0  0  0  0  0  0  0
   11.4137   -5.1472   22.0862 O   0  0  0  0  0  0  0  0  0  0  0  0
   10.8941   -4.0428   21.3592 C   0  0  0  0  0  0  0  0  0  0  0  0
   12.7284   -4.2173   24.4001 O   0  0  0  0  0  0  0  0  0  0  0  0
   12.4962   -4.6832   25.6989 C   0  0  0  0  0  0  0  0  0  0  0  0
   11.6683   -3.9281   26.5744 N   0  0  0  0  0  0  0  0  0  0  0  0
   13.0476   -5.7355   26.1198 O   0  0  0  0  0  0  0  0  0  0  0  0
   11.2340   -3.1050   26.2534 H   0  0  0  0  0  0  0  0  0  0  0  0
   11.5295   -4.2285   27.5017 H   0  0  0  0  0  0  0  0  0  0  0  0
   16.9177  -10.0740   13.9919 C   0  0  0  0  0  0  0  0  0  0  0  0
   16.3107   -9.1196   14.8265 C   0  0  0  0  0  0  0  0  0  0  0  0
   16.3652   -9.2243   16.2211 C   0  0  0  0  0  0  0  0  0  0  0  0
   17.0392  -10.3036   16.7972 C   0  0  0  0  0  0  0  0  0  0  0  0
   17.6552  -11.2585   15.9905 C   0  0  0  0  0  0  0  0  0  0  0  0
   17.6085  -11.1582   14.5900 C   0  0  0  0  0  0  0  0  0  0  0  0
   17.8511   -9.3175   10.3851 C   0  0  0  0  0  0  0  0  0  0  0  0
   16.6262   -9.5222    9.7331 C   0  0  0  0  0  0  0  0  0  0  0  0
   15.4992   -9.9069   10.4610 C   0  0  0  0  0  0  0  0  0  0  0  0
   15.5903  -10.0911   11.8425 C   0  0  0  0  0  0  0  0  0  0  0  0
   16.8074   -9.8990   12.5159 C   0  0  0  0  0  0  0  0  0  0  0  0
   17.9314   -9.5046   11.7685 C   0  0  0  0  0  0  0  0  0  0  0  0
   19.1678   -7.6239    9.1539 C   0  0  0  0  0  0  0  0  0  0  0  0
   18.9982   -8.9302    9.6870 O   0  0  0  0  0  0  0  0  0  0  0  0
   18.2535  -12.1153   13.7966 O   0  0  0  0  0  0  0  0  0  0  0  0
   18.2718  -13.5009   14.1145 C   0  0  0  0  0  0  0  0  0  0  0  0
 36 37  1  0  0  0
 37 30  1  0  0  0
 30 31  2  0  0  0
 31 32  1  0  0  0
 32 33  2  0  0  0
 33 34  1  0  0  0
 34 24  1  0  0  0
 34 35  2  0  0  0
 24 25  2  0  0  0
 25 26  1  0  0  0
 26  1  1  0  0  0
 26 27  2  0  0  0
  1  2  2  0  0  0
  1  3  1  0  0  0
  3  5  1  0  0  0
  5  6  2  0  0  0
  6  7  1  0  0  0
  7  8  2  0  0  0
  8  9  1  0  0  0
  9 10  2  0  0  0
 10 18  1  0  0  0
 10 11  1  0  0  0
 18 19  1  0  0  0
 19 20  1  0  0  0
 19 21  2  0  0  0
 11 16  1  0  0  0
 11 12  2  0  0  0
 16 17  1  0  0  0
 12 13  1  0  0  0
 12  7  1  0  0  0
 13 14  1  0  0  0
 14 15  2  0  0  0
 14  5  1  0  0  0
 27 28  1  0  0  0
 28 29  2  0  0  0
 29 38  1  0  0  0
 29 24  1  0  0  0
 38 39  1  0  0  0
 35 30  1  0  0  0
  3  4  1  0  0  0
 20 22  1  0  0  0
 20 23  1  0  0  0
M  END
>  <minimizedAffinity>
-9.32384

>  <minimizedRMSD>
1.65564

$$$$
CHEMBL1475890 ChemDiv-G267-0038 MCULE-9511292007 MolPort-007-837-095 PubChem-16026825 ZINC000008605513 ZINC08605513


 37 40  0  0  0  0  0  0  0  0999 V2000
   16.9674  -10.1145   11.4823 N   0  0  0  0  0  0  0  0  0  0  0  0
   18.2020  -10.6041   11.7889 C   0  0  0  0  0  0  0  0  0  0  0  0
   18.7050  -10.5101   13.0868 C   0  0  0  0  0  0  0  0  0  0  0  0
   17.9306   -9.9065   14.0741 C   0  0  0  0  0  0  0  0  0  0  0  0
   18.4026   -9.8034   15.3425 N   0  0  0  0  0  0  0  0  0  0  0  0
   17.6846   -9.2222   16.3420 C   0  0  0  0  0  0  0  0  0  0  0  0
   18.3125   -9.1672   17.6931 C   0  0  0  0  0  0  0  0  0  0  0  0
   16.3932   -8.6981   16.0724 C   0  0  0  0  0  0  0  0  0  0  0  0
   15.9025   -8.8026   14.7628 C   0  0  0  0  0  0  0  0  0  0  0  0
   16.6591   -9.4036   13.7544 C   0  0  0  0  0  0  0  0  0  0  0  0
   16.1855   -9.5177   12.4364 C   0  0  0  0  0  0  0  0  0  0  0  0
   15.0423   -9.0728   12.1351 O   0  0  0  0  0  0  0  0  0  0  0  0
   15.5255   -8.0443   17.0889 C   0  0  0  0  0  0  0  0  0  0  0  0
   14.4649   -7.4735   16.7131 O   0  0  0  0  0  0  0  0  0  0  0  0
   15.8760   -8.0564   18.4809 N   0  0  0  0  0  0  0  0  0  0  0  0
   16.7127   -8.5176   18.7184 H   0  0  0  0  0  0  0  0  0  0  0  0
   15.1402   -7.4700   19.5631 C   0  0  0  0  0  0  0  0  0  0  0  0
   15.8069   -7.1913   20.7539 C   0  0  0  0  0  0  0  0  0  0  0  0
   15.1313   -6.6178   21.8411 C   0  0  0  0  0  0  0  0  0  0  0  0
   13.7625   -6.3157   21.7391 C   0  0  0  0  0  0  0  0  0  0  0  0
   13.0765   -6.5961   20.5300 C   0  0  0  0  0  0  0  0  0  0  0  0
   13.7791   -7.1704   19.4590 C   0  0  0  0  0  0  0  0  0  0  0  0
   15.8021   -6.3383   23.0374 O   0  0  0  0  0  0  0  0  0  0  0  0
   17.2067   -6.4943   23.1883 C   0  0  0  0  0  0  0  0  0  0  0  0
   13.1433   -5.7427   22.8631 O   0  0  0  0  0  0  0  0  0  0  0  0
   12.9655   -4.3496   23.0752 C   0  0  0  0  0  0  0  0  0  0  0  0
   11.7134   -6.3067   20.3974 O   0  0  0  0  0  0  0  0  0  0  0  0
   11.2296   -5.0999   19.8220 C   0  0  0  0  0  0  0  0  0  0  0  0
   16.5058  -10.2313   10.1027 C   0  0  0  0  0  0  0  0  0  0  0  0
   18.8382   -7.7262    7.5030 C   0  0  0  0  0  0  0  0  0  0  0  0
   17.9484   -8.6642    6.9682 C   0  0  0  0  0  0  0  0  0  0  0  0
   17.1945   -9.4840    7.8131 C   0  0  0  0  0  0  0  0  0  0  0  0
   17.3295   -9.3735    9.2007 C   0  0  0  0  0  0  0  0  0  0  0  0
   18.2121   -8.4336    9.7423 C   0  0  0  0  0  0  0  0  0  0  0  0
   18.9659   -7.6139    8.8975 C   0  0  0  0  0  0  0  0  0  0  0  0
   20.2538   -7.4415    5.4947 C   0  0  0  0  0  0  0  0  0  0  0  0
   19.5780   -6.9221    6.6318 O   0  0  0  0  0  0  0  0  0  0  0  0
 36 37  1  0  0  0
 37 30  1  0  0  0
 30 31  2  0  0  0
 31 32  1  0  0  0
 32 33  2  0  0  0
 33 29  1  0  0  0
 33 34  1  0  0  0
 29  1  1  0  0  0
  1  2  1  0  0  0
  2  3  2  0  0  0
  3  4  1  0  0  0
  4  5  2  0  0  0
  5  6  1  0  0  0
  6  7  1  0  0  0
  6  8  2  0  0  0
  8  9  1  0  0  0
  8 13  1  0  0  0
  9 10  2  0  0  0
 10 11  1  0  0  0
 10  4  1  0  0  0
 11 12  2  0  0  0
 11  1  1  0  0  0
 13 14  2  0  0  0
 13 15  1  0  0  0
 15 17  1  0  0  0
 17 18  2  0  0  0
 18 19  1  0  0  0
 19 23  1  0  0  0
 19 20  2  0  0  0
 23 24  1  0  0  0
 20 25  1  0  0  0
 20 21  1  0  0  0
 25 26  1  0  0  0
 21 27  1  0  0  0
 21 22  2  0  0  0
 27 28  1  0  0  0
 22 17  1  0  0  0
 34 35  2  0  0  0
 35 30  1  0  0  0
 15 16  1  0  0  0
M  END
>  <minimizedAffinity>
-9.31009

>  <minimizedRMSD>
0.93480

$$$$
CHEMBL548996 629531 LN01249040 MCULE-7526271770 MolPort-000-630-923 PubChem-983446 ZCNAQCKPWWPHDY-UHFFFAOYSA-N ZINC000000629531 ZINC00629531


 32 35  0  0  0  0  0  0  0  0999 V2000
   15.5359   -8.0663   16.9874 C   0  0  0  0  0  0  0  0  0  0  0  0
   15.5943   -7.3345   15.9619 O   0  0  0  0  0  0  0  0  0  0  0  0
   16.3044   -9.2769   17.0664 N   0  0  0  0  0  0  0  0  0  0  0  0
   16.2138   -9.8029   17.8937 H   0  0  0  0  0  0  0  0  0  0  0  0
   12.4810   -7.0611   18.9817 C   0  0  0  0  0  0  0  0  0  0  0  0
   13.3108   -7.4330   17.9144 C   0  0  0  0  0  0  0  0  0  0  0  0
   14.6715   -7.6760   18.1151 C   0  0  0  0  0  0  0  0  0  0  0  0
   15.2027   -7.5440   19.4001 C   0  0  0  0  0  0  0  0  0  0  0  0
   14.3954   -7.1730   20.4870 C   0  0  0  0  0  0  0  0  0  0  0  0
   13.0146   -6.9280   20.2750 C   0  0  0  0  0  0  0  0  0  0  0  0
   10.2480   -7.7604   18.1680 C   0  0  0  0  0  0  0  0  0  0  0  0
   11.1174   -6.8174   18.7803 O   0  0  0  0  0  0  0  0  0  0  0  0
   14.9556   -7.0486   21.7639 O   0  0  0  0  0  0  0  0  0  0  0  0
   16.2780   -6.5773   21.9878 C   0  0  0  0  0  0  0  0  0  0  0  0
   12.1309   -6.5527   21.3012 O   0  0  0  0  0  0  0  0  0  0  0  0
   11.9646   -5.2305   21.7924 C   0  0  0  0  0  0  0  0  0  0  0  0
   17.1898   -9.8003   16.0673 C   0  0  0  0  0  0  0  0  0  0  0  0
   18.2820  -10.5731   16.4740 C   0  0  0  0  0  0  0  0  0  0  0  0
   19.1666  -11.1001   15.5293 C   0  0  0  0  0  0  0  0  0  0  0  0
   18.9629  -10.8562   14.1688 C   0  0  0  0  0  0  0  0  0  0  0  0
   17.8737  -10.0841   13.7443 C   0  0  0  0  0  0  0  0  0  0  0  0
   16.9917   -9.5595   14.6996 C   0  0  0  0  0  0  0  0  0  0  0  0
   17.6614   -9.8282   12.3094 C   0  0  0  0  0  0  0  0  0  0  0  0
   16.4972  -10.1221   11.6032 C   0  0  0  0  0  0  0  0  0  0  0  0
   16.7344   -9.7299   10.3442 N   0  0  0  0  0  0  0  0  0  0  0  0
   15.9210   -9.7957    9.2618 C   0  0  0  0  0  0  0  0  0  0  0  0
   16.4111   -9.3122    8.0399 C   0  0  0  0  0  0  0  0  0  0  0  0
   17.7139   -8.7813    7.9764 C   0  0  0  0  0  0  0  0  0  0  0  0
   18.2391   -8.2677    6.6847 C   0  0  0  0  0  0  0  0  0  0  0  0
   18.5204   -8.7340    9.1252 C   0  0  0  0  0  0  0  0  0  0  0  0
   17.9784   -9.2288   10.3090 C   0  0  0  0  0  0  0  0  0  0  0  0
   18.5964   -9.2667   11.5021 N   0  0  0  0  0  0  0  0  0  0  0  0
 11 12  1  0  0  0
 12  5  1  0  0  0
  5  6  2  0  0  0
  6  7  1  0  0  0
  7  8  2  0  0  0
  7  1  1  0  0  0
  8  9  1  0  0  0
  9 13  1  0  0  0
  9 10  2  0  0  0
 13 14  1  0  0  0
 10 15  1  0  0  0
 10  5  1  0  0  0
 15 16  1  0  0  0
  1  2  2  0  0  0
  1  3  1  0  0  0
  3 17  1  0  0  0
 17 18  2  0  0  0
 18 19  1  0  0  0
 19 20  2  0  0  0
 20 21  1  0  0  0
 21 22  2  0  0  0
 21 23  1  0  0  0
 22 17  1  0  0  0
 23 24  2  0  0  0
 24 25  1  0  0  0
 25 26  1  0  0  0
 26 27  2  0  0  0
 27 28  1  0  0  0
 28 29  1  0  0  0
 28 30  2  0  0  0
 30 31  1  0  0  0
 31 32  2  0  0  0
 31 25  1  0  0  0
 32 23  1  0  0  0
  3  4  1  0  0  0
M  END
>  <minimizedAffinity>
-9.30776

>  <minimizedRMSD>
1.92924

$$$$
CHEMBL5202391 PubChem-155927641


 36 40  0  0  0  0  0  0  0  0999 V2000
   15.0341   -7.5451   16.7887 O   0  0  0  0  0  0  0  0  0  0  0  0
   15.7668   -8.4329   17.3042 C   0  0  0  0  0  0  0  0  0  0  0  0
   15.8929   -8.5389   18.7307 N   0  0  0  0  0  0  0  0  0  0  0  0
   16.4782   -9.2547   19.0688 H   0  0  0  0  0  0  0  0  0  0  0  0
   16.4995   -9.3704   16.4350 C   0  0  0  0  0  0  0  0  0  0  0  0
   16.4586   -9.2255   15.0412 C   0  0  0  0  0  0  0  0  0  0  0  0
   17.1516  -10.1118   14.2105 C   0  0  0  0  0  0  0  0  0  0  0  0
   17.8988  -11.1611   14.7794 C   0  0  0  0  0  0  0  0  0  0  0  0
   17.9404  -11.3065   16.1690 C   0  0  0  0  0  0  0  0  0  0  0  0
   17.2455  -10.4173   16.9923 C   0  0  0  0  0  0  0  0  0  0  0  0
   18.6553  -12.1320   13.9360 C   0  0  0  0  0  0  0  0  0  0  0  0
   17.0805   -9.9231   12.7845 C   0  0  0  0  0  0  0  0  0  0  0  0
   17.0217   -9.7651   11.5909 C   0  0  0  0  0  0  0  0  0  0  0  0
   16.9541   -9.5756   10.1676 C   0  0  0  0  0  0  0  0  0  0  0  0
   17.8081   -8.8488    9.4414 N   0  0  0  0  0  0  0  0  0  0  0  0
   18.8763   -8.1554    9.8300 N   0  0  0  0  0  0  0  0  0  0  0  0
   19.6016   -7.4844    8.8901 C   0  0  0  0  0  0  0  0  0  0  0  0
   19.2100   -7.5372    7.5377 C   0  0  0  0  0  0  0  0  0  0  0  0
   18.0781   -8.2779    7.1620 C   0  0  0  0  0  0  0  0  0  0  0  0
   17.3908   -8.9343    8.1758 C   0  0  0  0  0  0  0  0  0  0  0  0
   16.2864   -9.6954    8.0391 N   0  0  0  0  0  0  0  0  0  0  0  0
   16.0043  -10.1065    9.3057 C   0  0  0  0  0  0  0  0  0  0  0  0
   15.2564   -7.7126   19.7149 C   0  0  0  0  0  0  0  0  0  0  0  0
   15.1863   -8.1714   21.0346 C   0  0  0  0  0  0  0  0  0  0  0  0
   14.5709   -7.3963   22.0216 C   0  0  0  0  0  0  0  0  0  0  0  0
   14.0130   -6.1560   21.6938 C   0  0  0  0  0  0  0  0  0  0  0  0
   14.0942   -5.6847   20.3793 C   0  0  0  0  0  0  0  0  0  0  0  0
   14.7096   -6.4609   19.3937 C   0  0  0  0  0  0  0  0  0  0  0  0
   13.3626   -5.3189   22.7551 C   0  0  0  0  0  0  0  0  0  0  0  0
   11.9019   -5.2012   22.6299 N   0  0  0  0  0  0  0  0  0  0  0  0
   11.2927   -6.2736   21.8267 C   0  0  0  0  0  0  0  0  0  0  0  0
   11.2205   -5.9193   20.3404 C   0  0  0  0  0  0  0  0  0  0  0  0
   10.5360   -4.6459   20.1672 N   0  0  0  0  0  0  0  0  0  0  0  0
   11.3688   -3.6187   20.7769 C   0  0  0  0  0  0  0  0  0  0  0  0
   11.4495   -3.8430   22.2878 C   0  0  0  0  0  0  0  0  0  0  0  0
   10.5187   -4.3743   18.7419 C   0  0  0  0  0  0  0  0  0  0  0  0
  1  2  2  0  0  0
  2  3  1  0  0  0
  3 23  1  0  0  0
 23 24  2  0  0  0
 24 25  1  0  0  0
 25 26  2  0  0  0
 26 29  1  0  0  0
 29 30  1  0  0  0
 30 31  1  0  0  0
 31 32  1  0  0  0
 32 33  1  0  0  0
 33 34  1  0  0  0
 34 35  1  0  0  0
 33 36  1  0  0  0
 26 27  1  0  0  0
 27 28  2  0  0  0
  2  5  1  0  0  0
  5  6  2  0  0  0
  6  7  1  0  0  0
  7  8  2  0  0  0
  8  9  1  0  0  0
  9 10  2  0  0  0
  8 11  1  0  0  0
  7 12  1  0  0  0
 12 13  3  0  0  0
 13 14  1  0  0  0
 14 15  1  0  0  0
 15 16  1  0  0  0
 16 17  2  0  0  0
 17 18  1  0  0  0
 18 19  2  0  0  0
 19 20  1  0  0  0
 20 21  2  0  0  0
 21 22  1  0  0  0
 28 23  1  0  0  0
 10  5  1  0  0  0
 22 14  2  0  0  0
 35 30  1  0  0  0
 20 15  1  0  0  0
  3  4  1  0  0  0
M  END
>  <minimizedAffinity>
-9.30473

>  <minimizedRMSD>
1.95984

$$$$
CHEMBL470648 1629864 LN00343121 MCULE-5370329825 MolPort-002-517-866 PubChem-135728 ZINC000001629864


 39 41  0  0  0  0  0  0  0  0999 V2000
   16.7230   -9.4445   14.8871 C   0  0  0  0  0  0  0  0  0  0  0  0
   17.6664  -10.4519   14.5610 C   0  0  0  0  0  0  0  0  0  0  0  0
   18.2914  -11.3327   15.5908 C   0  0  0  0  0  0  0  0  0  0  0  0
   18.0797  -10.6243   13.2375 C   0  0  0  0  0  0  0  0  0  0  0  0
   17.5777   -9.8206   12.2148 C   0  0  0  0  0  0  0  0  0  0  0  0
   16.6460   -8.8254   12.5306 C   0  0  0  0  0  0  0  0  0  0  0  0
   16.2191   -8.6330   13.8458 C   0  0  0  0  0  0  0  0  0  0  0  0
   15.2776   -7.6411   14.0963 O   0  0  0  0  0  0  0  0  0  0  0  0
   14.9551   -7.1129   13.3928 H   0  0  0  0  0  0  0  0  0  0  0  0
   16.2622   -9.2291   16.2843 C   0  0  0  0  0  0  0  0  0  0  0  0
   16.8955   -9.7489   17.2430 O   0  0  0  0  0  0  0  0  0  0  0  0
   15.1151   -8.4537   16.5209 O   0  0  0  0  0  0  0  0  0  0  0  0
   14.7423   -7.8635   17.7386 C   0  0  0  0  0  0  0  0  0  0  0  0
   13.4723   -7.2972   17.8375 C   0  0  0  0  0  0  0  0  0  0  0  0
   13.0396   -6.6948   19.0216 C   0  0  0  0  0  0  0  0  0  0  0  0
   11.6780   -6.0841   19.0153 C   0  0  0  0  0  0  0  0  0  0  0  0
   13.8961   -6.6471   20.1515 C   0  0  0  0  0  0  0  0  0  0  0  0
   15.1830   -7.2220   20.0431 C   0  0  0  0  0  0  0  0  0  0  0  0
   16.0647   -7.2257   21.1180 O   0  0  0  0  0  0  0  0  0  0  0  0
   15.5920   -7.8193   18.8493 C   0  0  0  0  0  0  0  0  0  0  0  0
   15.8146   -6.8315   21.9304 H   0  0  0  0  0  0  0  0  0  0  0  0
   13.4706   -6.0132   21.4291 C   0  0  0  0  0  0  0  0  0  0  0  0
   14.0774   -4.8446   21.8744 O   0  0  0  0  0  0  0  0  0  0  0  0
   12.5615   -6.5266   22.1334 O   0  0  0  0  0  0  0  0  0  0  0  0
   14.7559   -4.4459   21.3659 H   0  0  0  0  0  0  0  0  0  0  0  0
   18.0317  -10.0476   10.9062 O   0  0  0  0  0  0  0  0  0  0  0  0
   17.3604   -9.7130    9.7187 C   0  0  0  0  0  0  0  0  0  0  0  0
   16.1573  -10.0490    9.5438 O   0  0  0  0  0  0  0  0  0  0  0  0
   18.0699   -8.9431    8.6630 C   0  0  0  0  0  0  0  0  0  0  0  0
   19.1349   -8.0619    8.9816 C   0  0  0  0  0  0  0  0  0  0  0  0
   19.6461   -7.8879   10.3725 C   0  0  0  0  0  0  0  0  0  0  0  0
   19.7814   -7.3478    7.9693 C   0  0  0  0  0  0  0  0  0  0  0  0
   19.3889   -7.4890    6.6401 C   0  0  0  0  0  0  0  0  0  0  0  0
   18.3456   -8.3512    6.3115 C   0  0  0  0  0  0  0  0  0  0  0  0
   17.6863   -9.0759    7.3072 C   0  0  0  0  0  0  0  0  0  0  0  0
   16.6388   -9.9106    6.9338 O   0  0  0  0  0  0  0  0  0  0  0  0
   20.0380   -6.7725    5.6443 O   0  0  0  0  0  0  0  0  0  0  0  0
   16.3986   -9.9860    6.0313 H   0  0  0  0  0  0  0  0  0  0  0  0
   20.7398   -6.1926    5.8660 H   0  0  0  0  0  0  0  0  0  0  0  0
  1  2  2  0  0  0
  2  3  1  0  0  0
  2  4  1  0  0  0
  4  5  2  0  0  0
  5  6  1  0  0  0
  6  7  2  0  0  0
  7  8  1  0  0  0
  5 26  1  0  0  0
 26 27  1  0  0  0
 27 28  2  0  0  0
 27 29  1  0  0  0
 29 30  2  0  0  0
 30 31  1  0  0  0
 30 32  1  0  0  0
 32 33  2  0  0  0
 33 34  1  0  0  0
 34 35  2  0  0  0
 35 36  1  0  0  0
 33 37  1  0  0  0
  1 10  1  0  0  0
 10 11  2  0  0  0
 10 12  1  0  0  0
 12 13  1  0  0  0
 13 14  2  0  0  0
 14 15  1  0  0  0
 15 16  1  0  0  0
 15 17  2  0  0  0
 17 18  1  0  0  0
 18 19  1  0  0  0
 18 20  2  0  0  0
 17 22  1  0  0  0
 22 23  1  0  0  0
 22 24  2  0  0  0
  7  1  1  0  0  0
 35 29  1  0  0  0
 20 13  1  0  0  0
  8  9  1  0  0  0
 36 38  1  0  0  0
 37 39  1  0  0  0
 19 21  1  0  0  0
 23 25  1  0  0  0
M  END
>  <minimizedAffinity>
-9.28037

>  <minimizedRMSD>
1.80333

$$$$
CHEMBL124503 PubChem-44348817


 31 32  0  0  0  0  0  0  0  0999 V2000
   16.0424   -8.5350   16.3548 C   0  0  0  0  0  0  0  0  0  0  0  0
   15.6017   -7.5216   15.7456 O   0  0  0  0  0  0  0  0  0  0  0  0
   15.7672   -8.7254   17.7516 N   0  0  0  0  0  0  0  0  0  0  0  0
   16.1388   -9.5368   18.1671 H   0  0  0  0  0  0  0  0  0  0  0  0
   15.0080   -7.8579   18.6044 C   0  0  0  0  0  0  0  0  0  0  0  0
   15.5294   -7.5172   19.8510 C   0  0  0  0  0  0  0  0  0  0  0  0
   14.8140   -6.6832   20.7093 C   0  0  0  0  0  0  0  0  0  0  0  0
   13.5606   -6.1710   20.3438 C   0  0  0  0  0  0  0  0  0  0  0  0
   13.0351   -6.4846   19.0592 C   0  0  0  0  0  0  0  0  0  0  0  0
   13.7677   -7.3373   18.2180 C   0  0  0  0  0  0  0  0  0  0  0  0
   11.7230   -5.9362   18.5484 C   0  0  0  0  0  0  0  0  0  0  0  0
   11.8492   -4.5912   18.2496 F   0  0  0  0  0  0  0  0  0  0  0  0
   11.3283   -6.5940   17.3945 F   0  0  0  0  0  0  0  0  0  0  0  0
   10.7403   -6.1106   19.5053 F   0  0  0  0  0  0  0  0  0  0  0  0
   12.8673   -5.3369   21.2886 N   0  0  0  0  0  0  0  0  0  0  0  0
   12.2818   -5.8322   22.2727 O   0  0  0  0  0  0  0  0  0  0  0  0
   13.0377   -3.9721   21.2426 O   0  0  0  0  0  0  0  0  0  0  0  0
   18.2790   -9.0281   15.4408 C   0  0  0  0  0  0  0  0  0  0  0  0
   16.8611   -9.5494   15.6068 C   0  0  0  0  0  0  0  0  0  0  0  0
   16.9024  -10.7525   16.3163 O   0  0  0  0  0  0  0  0  0  0  0  0
   17.4327  -11.3995   15.8252 H   0  0  0  0  0  0  0  0  0  0  0  0
   16.2332   -9.7937   14.2386 C   0  0  0  0  0  0  0  0  0  0  0  0
   17.2088  -10.2478   13.3055 O   0  0  0  0  0  0  0  0  0  0  0  0
   17.1457   -9.9472   11.9423 C   0  0  0  0  0  0  0  0  0  0  0  0
   16.0515  -10.3355   11.1524 C   0  0  0  0  0  0  0  0  0  0  0  0
   16.0170  -10.0177    9.7921 C   0  0  0  0  0  0  0  0  0  0  0  0
   17.0732   -9.3106    9.2108 C   0  0  0  0  0  0  0  0  0  0  0  0
   17.0284   -9.0081    7.8899 F   0  0  0  0  0  0  0  0  0  0  0  0
   18.1677   -8.9206    9.9943 C   0  0  0  0  0  0  0  0  0  0  0  0
   19.5037   -8.0328    9.2867 Cl  0  0  0  0  0  0  0  0  0  0  0  0
   18.1997   -9.2398   11.3552 C   0  0  0  0  0  0  0  0  0  0  0  0
 19 18  1  0  0  0
 19 20  1  0  0  0
 19 22  1  0  0  0
 19  1  1  0  0  0
 22 23  1  0  0  0
 23 24  1  0  0  0
 24 25  2  0  0  0
 25 26  1  0  0  0
 26 27  2  0  0  0
 27 28  1  0  0  0
 27 29  1  0  0  0
 29 30  1  0  0  0
 29 31  2  0  0  0
 31 24  1  0  0  0
  1  2  2  0  0  0
  1  3  1  0  0  0
  3  5  1  0  0  0
  5  6  2  0  0  0
  6  7  1  0  0  0
  7  8  2  0  0  0
  8 15  1  0  0  0
  8  9  1  0  0  0
 15 16  2  0  0  0
 15 17  1  0  0  0
  9 11  1  0  0  0
  9 10  2  0  0  0
 11 12  1  0  0  0
 11 13  1  0  0  0
 11 14  1  0  0  0
 10  5  1  0  0  0
 20 21  1  0  0  0
  3  4  1  0  0  0
M  CHG 1  15   1
M  CHG 1  17  -1
M  END
>  <minimizedAffinity>
-9.26992

>  <minimizedRMSD>
1.71213

$$$$
CHEMBL1933142 PubChem-53247190


 36 40  0  0  0  0  0  0  0  0999 V2000
   16.6377   -9.0130   17.1286 N   0  0  0  0  0  0  0  0  0  0  0  0
   15.5372   -8.0990   17.2231 C   0  0  0  0  0  0  0  0  0  0  0  0
   14.9466   -7.7018   16.1816 O   0  0  0  0  0  0  0  0  0  0  0  0
   17.0676   -9.2952   17.9681 H   0  0  0  0  0  0  0  0  0  0  0  0
   15.0935   -7.6208   18.5442 C   0  0  0  0  0  0  0  0  0  0  0  0
   15.9664   -7.6925   19.6559 C   0  0  0  0  0  0  0  0  0  0  0  0
   15.5637   -7.2353   20.9226 C   0  0  0  0  0  0  0  0  0  0  0  0
   14.2770   -6.7200   21.0463 C   0  0  0  0  0  0  0  0  0  0  0  0
   13.6594   -6.1682   22.1540 C   0  0  0  0  0  0  0  0  0  0  0  0
   12.4075   -5.7987   21.6614 C   0  0  0  0  0  0  0  0  0  0  0  0
   12.2479   -6.1070   20.3549 N   0  0  0  0  0  0  0  0  0  0  0  0
   13.4184   -6.6549   19.9773 C   0  0  0  0  0  0  0  0  0  0  0  0
   13.7980   -7.0881   18.7064 C   0  0  0  0  0  0  0  0  0  0  0  0
   11.0871   -5.6979   19.5404 C   0  0  0  0  0  0  0  0  0  0  0  0
   10.7477   -6.7614   18.5100 C   0  0  0  0  0  0  0  0  0  0  0  0
   11.4009   -4.3983   18.8199 C   0  0  0  0  0  0  0  0  0  0  0  0
    9.8399   -5.4992   20.4271 C   0  0  0  0  0  0  0  0  0  0  0  0
   10.1460   -4.8090   21.6833 N   0  0  0  0  0  0  0  0  0  0  0  0
   11.3614   -5.0805   22.3808 C   0  0  0  0  0  0  0  0  0  0  0  0
   11.5310   -4.6728   23.5597 O   0  0  0  0  0  0  0  0  0  0  0  0
    9.5088   -4.1535   22.0487 H   0  0  0  0  0  0  0  0  0  0  0  0
   19.3580  -11.6448   14.0065 C   0  0  0  0  0  0  0  0  0  0  0  0
   18.3704  -10.7189   14.5356 N   0  0  0  0  0  0  0  0  0  0  0  0
   18.1727  -10.4776   15.8418 C   0  0  0  0  0  0  0  0  0  0  0  0
   17.1590   -9.5468   15.9076 C   0  0  0  0  0  0  0  0  0  0  0  0
   16.7233   -9.2044   14.6780 N   0  0  0  0  0  0  0  0  0  0  0  0
   17.4924   -9.9465   13.8554 C   0  0  0  0  0  0  0  0  0  0  0  0
   17.3584   -9.8901   12.3872 C   0  0  0  0  0  0  0  0  0  0  0  0
   16.2322  -10.1030   11.8618 O   0  0  0  0  0  0  0  0  0  0  0  0
   18.4883   -9.6017   11.5593 N   0  0  0  0  0  0  0  0  0  0  0  0
   19.3635   -9.4623   11.9881 H   0  0  0  0  0  0  0  0  0  0  0  0
   18.3994   -9.5055   10.1099 C   0  0  0  0  0  0  0  0  0  0  0  0
   17.1870   -8.6793    9.7169 C   0  0  0  0  0  0  0  0  0  0  0  0
   17.6592   -7.7394    8.6325 C   0  0  0  0  0  0  0  0  0  0  0  0
   19.1198   -7.5002    8.9305 C   0  0  0  0  0  0  0  0  0  0  0  0
   19.6194   -8.7786    9.5714 C   0  0  0  0  0  0  0  0  0  0  0  0
 22 23  1  0  0  0
 23 24  1  0  0  0
 24 25  2  0  0  0
 25  1  1  0  0  0
 25 26  1  0  0  0
  1  2  1  0  0  0
  2  3  2  0  0  0
  2  5  1  0  0  0
  5  6  2  0  0  0
  6  7  1  0  0  0
  7  8  2  0  0  0
  8  9  1  0  0  0
  9 10  2  0  0  0
 10 11  1  0  0  0
 11 12  1  0  0  0
 11 14  1  0  0  0
 12 13  2  0  0  0
 12  8  1  0  0  0
 13  5  1  0  0  0
 14 15  1  0  0  0
 14 16  1  0  0  0
 14 17  1  0  0  0
 17 18  1  0  0  0
 18 19  1  0  0  0
 19 20  2  0  0  0
 19 10  1  0  0  0
 26 27  2  0  0  0
 27 28  1  0  0  0
 27 23  1  0  0  0
 28 29  2  0  0  0
 28 30  1  0  0  0
 30 32  1  0  0  0
 32 33  1  0  0  0
 33 34  1  0  0  0
 34 35  1  0  0  0
 35 36  1  0  0  0
 36 32  1  0  0  0
  1  4  1  0  0  0
 18 21  1  0  0  0
 30 31  1  0  0  0
M  END
>  <minimizedAffinity>
-9.24143

>  <minimizedRMSD>
1.52629

$$$$
CHEMBL4784940 PubChem-162666264


 37 41  0  0  0  0  0  0  0  0999 V2000
   14.4658   -7.5888   17.7481 N   0  0  0  0  0  0  0  0  0  0  0  0
   15.5309   -7.8547   18.5537 C   0  0  0  0  0  0  0  0  0  0  0  0
   15.4973   -7.4824   19.8602 N   0  0  0  0  0  0  0  0  0  0  0  0
   14.4129   -6.8465   20.3782 C   0  0  0  0  0  0  0  0  0  0  0  0
   13.3000   -6.5642   19.5639 C   0  0  0  0  0  0  0  0  0  0  0  0
   13.3613   -6.9566   18.2232 C   0  0  0  0  0  0  0  0  0  0  0  0
   12.1745   -5.9025   20.1145 C   0  0  0  0  0  0  0  0  0  0  0  0
   12.1753   -5.5260   21.4881 C   0  0  0  0  0  0  0  0  0  0  0  0
   13.3256   -5.8416   22.2375 C   0  0  0  0  0  0  0  0  0  0  0  0
   14.3735   -6.4714   21.6797 N   0  0  0  0  0  0  0  0  0  0  0  0
   15.2956   -6.6465   22.6403 C   0  0  0  0  0  0  0  0  0  0  0  0
   14.7440   -6.0953   23.7901 C   0  0  0  0  0  0  0  0  0  0  0  0
   13.5111   -5.5941   23.5495 N   0  0  0  0  0  0  0  0  0  0  0  0
   11.0126   -5.5706   19.2265 C   0  0  0  0  0  0  0  0  0  0  0  0
   15.3919   -6.0495   25.1359 C   0  0  0  0  0  0  0  0  0  0  0  0
   16.3899   -4.9098   25.2122 C   0  0  0  0  0  0  0  0  0  0  0  0
   16.0830   -7.3643   25.4432 C   0  0  0  0  0  0  0  0  0  0  0  0
   11.0166   -4.8387   22.1191 C   0  0  0  0  0  0  0  0  0  0  0  0
   10.1411   -5.5003   22.7368 O   0  0  0  0  0  0  0  0  0  0  0  0
   10.8555   -3.3586   22.0381 C   0  0  0  0  0  0  0  0  0  0  0  0
   16.6935   -8.5222   18.0483 N   0  0  0  0  0  0  0  0  0  0  0  0
   17.4844   -8.5426   18.6342 H   0  0  0  0  0  0  0  0  0  0  0  0
   16.8164   -9.1628   16.7728 C   0  0  0  0  0  0  0  0  0  0  0  0
   17.5527  -10.3455   16.6755 C   0  0  0  0  0  0  0  0  0  0  0  0
   17.6827  -10.9738   15.4365 C   0  0  0  0  0  0  0  0  0  0  0  0
   17.0868  -10.4153   14.3053 C   0  0  0  0  0  0  0  0  0  0  0  0
   16.3350   -9.2368   14.4418 C   0  0  0  0  0  0  0  0  0  0  0  0
   16.2331   -8.6381   15.6589 N   0  0  0  0  0  0  0  0  0  0  0  0
   15.7277   -8.5723   13.2473 C   0  0  0  0  0  0  0  0  0  0  0  0
   15.6063   -9.5402   12.0654 C   0  0  0  0  0  0  0  0  0  0  0  0
   16.8433  -10.2991   11.8297 N   0  0  0  0  0  0  0  0  0  0  0  0
   17.1777  -11.1389   12.9878 C   0  0  0  0  0  0  0  0  0  0  0  0
   17.9580   -9.4011   11.5362 C   0  0  0  0  0  0  0  0  0  0  0  0
   18.3618   -9.5222   10.0742 C   0  0  0  0  0  0  0  0  0  0  0  0
   17.9308   -8.3498    9.3296 N   0  0  0  0  0  0  0  0  0  0  0  0
   19.1266   -7.6047    8.9765 C   0  0  0  0  0  0  0  0  0  0  0  0
   17.3627   -8.8333    8.0850 C   0  0  0  0  0  0  0  0  0  0  0  0
  1  2  2  0  0  0
  2  3  1  0  0  0
  3  4  2  0  0  0
  4  5  1  0  0  0
  5  6  2  0  0  0
  5  7  1  0  0  0
  7  8  2  0  0  0
  8  9  1  0  0  0
  9 10  1  0  0  0
 10 11  1  0  0  0
 11 12  2  0  0  0
 12 13  1  0  0  0
 12 15  1  0  0  0
 15 16  1  0  0  0
 15 17  1  0  0  0
  8 18  1  0  0  0
 18 19  2  0  0  0
 18 20  1  0  0  0
  7 14  1  0  0  0
  2 21  1  0  0  0
 21 23  1  0  0  0
 23 24  2  0  0  0
 24 25  1  0  0  0
 25 26  2  0  0  0
 26 27  1  0  0  0
 27 28  2  0  0  0
 27 29  1  0  0  0
 29 30  1  0  0  0
 30 31  1  0  0  0
 31 32  1  0  0  0
 31 33  1  0  0  0
 33 34  1  0  0  0
 34 35  1  0  0  0
 35 36  1  0  0  0
 35 37  1  0  0  0
  6  1  1  0  0  0
 13  9  2  0  0  0
 28 23  1  0  0  0
 10  4  1  0  0  0
 32 26  1  0  0  0
 21 22  1  0  0  0
M  END
>  <minimizedAffinity>
-9.23793

>  <minimizedRMSD>
1.33756

$$$$
CHEMBL4570881 CSC027518571 MCULE-1747022352 MolPort-009-270-627 PubChem-42952113 Z335379056


 30 33  0  0  0  0  0  0  0  0999 V2000
   15.2294   -8.0485   18.9061 C   0  0  0  0  0  0  0  0  0  0  0  0
   15.8992   -6.9576   19.4621 O   0  0  0  0  0  0  0  0  0  0  0  0
   15.4380   -6.1386   19.2224 H   0  0  0  0  0  0  0  0  0  0  0  0
   13.8089   -8.1614   19.4650 C   0  0  0  0  0  0  0  0  0  0  0  0
   14.4993   -7.9135   22.2967 C   0  0  0  0  0  0  0  0  0  0  0  0
   13.7488   -6.8468   21.5694 C   0  0  0  0  0  0  0  0  0  0  0  0
   13.3631   -5.6996   22.2918 C   0  0  0  0  0  0  0  0  0  0  0  0
   12.6299   -4.7052   21.6379 C   0  0  0  0  0  0  0  0  0  0  0  0
   12.2658   -3.6643   22.2458 O   0  0  0  0  0  0  0  0  0  0  0  0
   12.3182   -4.9012   20.3357 N   0  0  0  0  0  0  0  0  0  0  0  0
   11.6214   -4.1188   19.5370 N   0  0  0  0  0  0  0  0  0  0  0  0
   11.5784   -4.7743   18.3497 C   0  0  0  0  0  0  0  0  0  0  0  0
   12.2397   -5.9631   18.3891 N   0  0  0  0  0  0  0  0  0  0  0  0
   12.6853   -5.9867   19.6582 C   0  0  0  0  0  0  0  0  0  0  0  0
   13.4174   -6.9795   20.2391 N   0  0  0  0  0  0  0  0  0  0  0  0
   15.2306   -7.9483   17.3872 C   0  0  0  0  0  0  0  0  0  0  0  0
   16.4369   -8.4814   16.8487 O   0  0  0  0  0  0  0  0  0  0  0  0
   16.5499   -8.9574   15.5376 C   0  0  0  0  0  0  0  0  0  0  0  0
   15.8506   -8.3650   14.4745 C   0  0  0  0  0  0  0  0  0  0  0  0
   15.9891   -8.8622   13.1759 C   0  0  0  0  0  0  0  0  0  0  0  0
   16.8288   -9.9507   12.9173 C   0  0  0  0  0  0  0  0  0  0  0  0
   17.5228  -10.5438   13.9842 C   0  0  0  0  0  0  0  0  0  0  0  0
   17.3859  -10.0482   15.2837 C   0  0  0  0  0  0  0  0  0  0  0  0
   16.9191  -10.4211   11.5967 O   0  0  0  0  0  0  0  0  0  0  0  0
   17.3179   -9.6955   10.4619 C   0  0  0  0  0  0  0  0  0  0  0  0
   16.5139   -9.7611    9.3178 C   0  0  0  0  0  0  0  0  0  0  0  0
   16.8563   -9.0460    8.1662 C   0  0  0  0  0  0  0  0  0  0  0  0
   18.0069   -8.2535    8.1521 C   0  0  0  0  0  0  0  0  0  0  0  0
   18.8134   -8.1749    9.2900 C   0  0  0  0  0  0  0  0  0  0  0  0
   18.4693   -8.8906   10.4402 C   0  0  0  0  0  0  0  0  0  0  0  0
  5  6  1  0  0  0
  6  7  2  0  0  0
  7  8  1  0  0  0
  8  9  2  0  0  0
  8 10  1  0  0  0
 10 11  1  0  0  0
 11 12  2  0  0  0
 12 13  1  0  0  0
 13 14  2  0  0  0
 14 15  1  0  0  0
 14 10  1  0  0  0
 15  4  1  0  0  0
 15  6  1  0  0  0
  1  4  1  0  0  0
  1  2  1  0  0  0
  1 16  1  0  0  0
 16 17  1  0  0  0
 17 18  1  0  0  0
 18 19  2  0  0  0
 19 20  1  0  0  0
 20 21  2  0  0  0
 21 24  1  0  0  0
 21 22  1  0  0  0
 24 25  1  0  0  0
 25 26  2  0  0  0
 26 27  1  0  0  0
 27 28  2  0  0  0
 28 29  1  0  0  0
 29 30  2  0  0  0
 30 25  1  0  0  0
 22 23  2  0  0  0
 23 18  1  0  0  0
  2  3  1  0  0  0
M  END
>  <minimizedAffinity>
-9.19098

>  <minimizedRMSD>
1.72893

$$$$
CHEMBL4106622 PubChem-90454496


 32 35  0  0  0  0  0  0  0  0999 V2000
   14.2978   -7.3553   20.9034 C   0  0  0  0  0  0  0  0  0  0  0  0
   14.8610   -7.6671   19.6697 C   0  0  0  0  0  0  0  0  0  0  0  0
   14.2756   -7.1881   18.4963 C   0  0  0  0  0  0  0  0  0  0  0  0
   13.1568   -6.4248   18.5821 N   0  0  0  0  0  0  0  0  0  0  0  0
   12.5942   -6.1223   19.7539 N   0  0  0  0  0  0  0  0  0  0  0  0
   13.1260   -6.5727   20.9304 C   0  0  0  0  0  0  0  0  0  0  0  0
   12.5592   -6.3004   22.0240 O   0  0  0  0  0  0  0  0  0  0  0  0
   11.3907   -5.3046   19.7493 C   0  0  0  0  0  0  0  0  0  0  0  0
   14.9331   -7.8671   22.0846 N   0  0  0  0  0  0  0  0  0  0  0  0
   15.4128   -8.7230   22.0027 H   0  0  0  0  0  0  0  0  0  0  0  0
   14.9288   -7.2291   23.3941 C   0  0  0  0  0  0  0  0  0  0  0  0
   19.5326   -4.5640   23.4224 C   0  0  0  0  0  0  0  0  0  0  0  0
   18.1375   -5.0714   23.4897 C   0  0  0  0  0  0  0  0  0  0  0  0
   17.0721   -4.2921   23.7733 N   0  0  0  0  0  0  0  0  0  0  0  0
   15.9202   -4.9607   23.7743 N   0  0  0  0  0  0  0  0  0  0  0  0
   16.0681   -6.2747   23.4987 C   0  0  0  0  0  0  0  0  0  0  0  0
   17.6811   -6.6683   23.2172 S   0  0  0  0  0  0  0  0  0  0  0  0
   14.8123   -7.4745   17.2385 O   0  0  0  0  0  0  0  0  0  0  0  0
   15.7732   -8.5007   17.0296 C   0  0  0  0  0  0  0  0  0  0  0  0
   16.3360   -8.3880   15.6289 C   0  0  0  0  0  0  0  0  0  0  0  0
   17.7836   -8.8195   15.6340 C   0  0  0  0  0  0  0  0  0  0  0  0
   16.7118   -9.7743   15.1343 C   0  0  0  0  0  0  0  0  0  0  0  0
   16.6875   -9.8047   13.6381 C   0  0  0  0  0  0  0  0  0  0  0  0
   15.4982   -9.7534   12.9755 N   0  0  0  0  0  0  0  0  0  0  0  0
   15.4309   -9.8103   11.6181 C   0  0  0  0  0  0  0  0  0  0  0  0
   16.5969   -9.9338   10.8591 C   0  0  0  0  0  0  0  0  0  0  0  0
   17.8297  -10.0049   11.5225 C   0  0  0  0  0  0  0  0  0  0  0  0
   17.8781   -9.9448   12.9153 C   0  0  0  0  0  0  0  0  0  0  0  0
   16.5022   -9.9895    9.4651 O   0  0  0  0  0  0  0  0  0  0  0  0
   17.5493   -9.5681    8.5993 C   0  0  0  0  0  0  0  0  0  0  0  0
   17.1583   -9.7468    7.2865 F   0  0  0  0  0  0  0  0  0  0  0  0
   17.8254   -8.2302    8.8146 F   0  0  0  0  0  0  0  0  0  0  0  0
 12 13  1  0  0  0
 13 14  2  0  0  0
 14 15  1  0  0  0
 15 16  2  0  0  0
 16 17  1  0  0  0
 16 11  1  0  0  0
 17 13  1  0  0  0
 11  9  1  0  0  0
  9  1  1  0  0  0
  1  2  2  0  0  0
  2  3  1  0  0  0
  3  4  2  0  0  0
  3 18  1  0  0  0
  4  5  1  0  0  0
  5  6  1  0  0  0
  5  8  1  0  0  0
  6  7  2  0  0  0
  6  1  1  0  0  0
 18 19  1  0  0  0
 20 19  1  0  0  0
 20 21  1  0  0  0
 21 22  1  0  0  0
 22 23  1  0  0  0
 22 20  1  0  0  0
 23 24  2  0  0  0
 24 25  1  0  0  0
 25 26  2  0  0  0
 26 27  1  0  0  0
 26 29  1  0  0  0
 27 28  2  0  0  0
 28 23  1  0  0  0
 29 30  1  0  0  0
 30 31  1  0  0  0
 30 32  1  0  0  0
  9 10  1  0  0  0
M  END
>  <minimizedAffinity>
-9.18058

>  <minimizedRMSD>
1.76303

$$$$
CHEMBL3981997 PubChem-68323386


 32 36  0  0  0  0  0  0  0  0999 V2000
   10.4213   -4.9971   19.5606 C   0  0  0  0  0  0  0  0  0  0  0  0
   10.3887   -3.9598   20.6518 C   0  0  0  0  0  0  0  0  0  0  0  0
   10.6520   -4.5709   21.9413 N   0  0  0  0  0  0  0  0  0  0  0  0
   11.7978   -5.3494   22.3052 C   0  0  0  0  0  0  0  0  0  0  0  0
   12.0094   -5.5350   23.5331 O   0  0  0  0  0  0  0  0  0  0  0  0
   12.7110   -6.0049   21.3307 C   0  0  0  0  0  0  0  0  0  0  0  0
   13.7445   -6.8501   21.7527 C   0  0  0  0  0  0  0  0  0  0  0  0
   14.3257   -7.2884   20.5843 C   0  0  0  0  0  0  0  0  0  0  0  0
   13.6591   -6.7271   19.5323 C   0  0  0  0  0  0  0  0  0  0  0  0
   12.6558   -5.9465   19.9673 N   0  0  0  0  0  0  0  0  0  0  0  0
   11.8497   -5.1042   19.0884 C   0  0  0  0  0  0  0  0  0  0  0  0
   14.0393   -6.9718   18.2110 C   0  0  0  0  0  0  0  0  0  0  0  0
   15.1354   -7.8294   17.9815 C   0  0  0  0  0  0  0  0  0  0  0  0
   15.8135   -8.4082   19.0806 C   0  0  0  0  0  0  0  0  0  0  0  0
   15.4118   -8.1389   20.4004 C   0  0  0  0  0  0  0  0  0  0  0  0
    9.9713   -4.4363   22.6397 H   0  0  0  0  0  0  0  0  0  0  0  0
   15.5727   -8.1210   16.6052 C   0  0  0  0  0  0  0  0  0  0  0  0
   15.4511   -7.2412   15.7094 O   0  0  0  0  0  0  0  0  0  0  0  0
   16.1342   -9.4037   16.2927 N   0  0  0  0  0  0  0  0  0  0  0  0
   16.2065  -10.0538   17.0285 H   0  0  0  0  0  0  0  0  0  0  0  0
   16.5986   -9.8212   15.0039 C   0  0  0  0  0  0  0  0  0  0  0  0
   17.4207  -10.8710   14.8346 N   0  0  0  0  0  0  0  0  0  0  0  0
   17.6349  -10.9631   13.5574 O   0  0  0  0  0  0  0  0  0  0  0  0
   16.9908  -10.0247   12.9025 C   0  0  0  0  0  0  0  0  0  0  0  0
   16.2839   -9.2313   13.7911 C   0  0  0  0  0  0  0  0  0  0  0  0
   17.0317   -9.8631   11.4410 C   0  0  0  0  0  0  0  0  0  0  0  0
   15.9211  -10.1986   10.6525 C   0  0  0  0  0  0  0  0  0  0  0  0
   15.9688  -10.0417    9.2641 C   0  0  0  0  0  0  0  0  0  0  0  0
   17.1266   -9.5489    8.6561 C   0  0  0  0  0  0  0  0  0  0  0  0
   18.2368   -9.2127    9.4359 C   0  0  0  0  0  0  0  0  0  0  0  0
   18.1892   -9.3695   10.8242 C   0  0  0  0  0  0  0  0  0  0  0  0
   17.1730   -9.3969    7.3109 F   0  0  0  0  0  0  0  0  0  0  0  0
  1  2  1  0  0  0
  2  3  1  0  0  0
  3  4  1  0  0  0
  4  5  2  0  0  0
  4  6  1  0  0  0
  6  7  2  0  0  0
  7  8  1  0  0  0
  8  9  2  0  0  0
  9 10  1  0  0  0
  9 12  1  0  0  0
 10 11  1  0  0  0
 10  6  1  0  0  0
 11  1  1  0  0  0
 12 13  2  0  0  0
 13 14  1  0  0  0
 13 17  1  0  0  0
 14 15  2  0  0  0
 15  8  1  0  0  0
 17 18  2  0  0  0
 17 19  1  0  0  0
 19 21  1  0  0  0
 21 22  2  0  0  0
 22 23  1  0  0  0
 23 24  1  0  0  0
 24 25  2  0  0  0
 24 26  1  0  0  0
 25 21  1  0  0  0
 26 27  2  0  0  0
 27 28  1  0  0  0
 28 29  2  0  0  0
 29 30  1  0  0  0
 29 32  1  0  0  0
 30 31  2  0  0  0
 31 26  1  0  0  0
  3 16  1  0  0  0
 19 20  1  0  0  0
M  END
>  <minimizedAffinity>
-9.16625

>  <minimizedRMSD>
1.58787

$$$$
CHEMBL3290425 PubChem-90682197


 31 32  0  0  0  0  0  0  0  0999 V2000
   15.0616   -7.8237   18.1595 C   0  0  0  0  0  0  0  0  0  0  0  0
   14.1096   -7.2072   17.6071 O   0  0  0  0  0  0  0  0  0  0  0  0
   15.2117   -7.8253   19.5848 N   0  0  0  0  0  0  0  0  0  0  0  0
   15.9775   -8.3270   19.9470 H   0  0  0  0  0  0  0  0  0  0  0  0
   14.3626   -7.1723   20.5384 C   0  0  0  0  0  0  0  0  0  0  0  0
   13.1328   -6.6207   20.1789 C   0  0  0  0  0  0  0  0  0  0  0  0
   12.3154   -5.9856   21.1250 C   0  0  0  0  0  0  0  0  0  0  0  0
   12.7442   -5.9000   22.4767 C   0  0  0  0  0  0  0  0  0  0  0  0
   13.9980   -6.4637   22.8370 C   0  0  0  0  0  0  0  0  0  0  0  0
   14.7813   -7.0877   21.8627 C   0  0  0  0  0  0  0  0  0  0  0  0
   11.0872   -5.4435   20.7275 O   0  0  0  0  0  0  0  0  0  0  0  0
   10.9410   -4.6006   19.5919 C   0  0  0  0  0  0  0  0  0  0  0  0
   11.9718   -5.2768   23.4723 O   0  0  0  0  0  0  0  0  0  0  0  0
   11.8327   -3.8746   23.6532 C   0  0  0  0  0  0  0  0  0  0  0  0
   14.5232   -6.4391   24.1389 O   0  0  0  0  0  0  0  0  0  0  0  0
   15.4405   -5.4752   24.6358 C   0  0  0  0  0  0  0  0  0  0  0  0
   15.8911   -8.7071   16.0339 C   0  0  0  0  0  0  0  0  0  0  0  0
   16.0391   -8.5552   17.3481 C   0  0  0  0  0  0  0  0  0  0  0  0
   17.8600   -9.7996   13.0148 C   0  0  0  0  0  0  0  0  0  0  0  0
   18.6845  -10.7872   13.5637 C   0  0  0  0  0  0  0  0  0  0  0  0
   18.6028  -11.1025   14.9226 C   0  0  0  0  0  0  0  0  0  0  0  0
   17.6932  -10.4296   15.7421 C   0  0  0  0  0  0  0  0  0  0  0  0
   16.8599   -9.4366   15.2048 C   0  0  0  0  0  0  0  0  0  0  0  0
   16.9486   -9.1277   13.8439 C   0  0  0  0  0  0  0  0  0  0  0  0
   17.0076   -9.7896   10.5943 C   0  0  0  0  0  0  0  0  0  0  0  0
   15.9176  -10.3571   10.8800 O   0  0  0  0  0  0  0  0  0  0  0  0
   17.9741   -9.5053   11.6159 N   0  0  0  0  0  0  0  0  0  0  0  0
   18.8034   -9.0611   11.3258 H   0  0  0  0  0  0  0  0  0  0  0  0
   16.6599   -9.9891    8.1898 C   0  0  0  0  0  0  0  0  0  0  0  0
   17.2978   -9.4124    9.2007 C   0  0  0  0  0  0  0  0  0  0  0  0
   18.6068   -8.0763    8.8080 Br  0  0  0  0  0  0  0  0  0  0  0  0
 29 30  2  0  0  0
 30 31  1  0  0  0
 30 25  1  0  0  0
 25 26  2  0  0  0
 25 27  1  0  0  0
 27 19  1  0  0  0
 19 20  2  0  0  0
 20 21  1  0  0  0
 21 22  2  0  0  0
 22 23  1  0  0  0
 23 17  1  0  0  0
 23 24  2  0  0  0
 17 18  2  0  0  0
 18  1  1  0  0  0
  1  2  2  0  0  0
  1  3  1  0  0  0
  3  5  1  0  0  0
  5  6  2  0  0  0
  6  7  1  0  0  0
  7 11  1  0  0  0
  7  8  2  0  0  0
 11 12  1  0  0  0
  8 13  1  0  0  0
  8  9  1  0  0  0
 13 14  1  0  0  0
  9 15  1  0  0  0
  9 10  2  0  0  0
 15 16  1  0  0  0
 10  5  1  0  0  0
 24 19  1  0  0  0
 27 28  1  0  0  0
  3  4  1  0  0  0
M  END
>  <minimizedAffinity>
-9.16503

>  <minimizedRMSD>
1.71560

$$$$
CHEMBL4648749


 37 40  0  0  0  0  0  0  0  0999 V2000
   18.3436   -9.3257   14.3205 C   0  0  0  0  0  0  0  0  0  0  0  0
   17.4920  -10.3443   13.6760 N   0  0  0  0  0  0  0  0  0  0  0  0
   17.1519  -11.4005   14.6468 C   0  0  0  0  0  0  0  0  0  0  0  0
   16.3847  -10.8371   15.8541 C   0  0  0  0  0  0  0  0  0  0  0  0
   17.1631   -9.7034   16.5260 C   0  0  0  0  0  0  0  0  0  0  0  0
   17.6343   -8.6600   15.5106 C   0  0  0  0  0  0  0  0  0  0  0  0
   18.4228  -12.1263   15.1265 C   0  0  0  0  0  0  0  0  0  0  0  0
   19.7084  -11.4679   14.6106 C   0  0  0  0  0  0  0  0  0  0  0  0
   19.6751   -9.9438   14.7834 C   0  0  0  0  0  0  0  0  0  0  0  0
   16.3666   -9.0790   17.5774 N   0  0  0  0  0  0  0  0  0  0  0  0
   15.3668   -8.0761   17.3494 C   0  0  0  0  0  0  0  0  0  0  0  0
   15.1304   -7.6726   16.1770 O   0  0  0  0  0  0  0  0  0  0  0  0
   16.5263   -9.3653   18.5057 H   0  0  0  0  0  0  0  0  0  0  0  0
   14.6143   -7.5167   18.4852 C   0  0  0  0  0  0  0  0  0  0  0  0
   13.2879   -7.1069   18.3234 C   0  0  0  0  0  0  0  0  0  0  0  0
   12.5513   -6.5853   19.3995 C   0  0  0  0  0  0  0  0  0  0  0  0
   13.1691   -6.4664   20.6706 C   0  0  0  0  0  0  0  0  0  0  0  0
   14.5014   -6.8828   20.8324 C   0  0  0  0  0  0  0  0  0  0  0  0
   15.2112   -7.4041   19.7417 C   0  0  0  0  0  0  0  0  0  0  0  0
   15.1014   -6.7685   22.0915 O   0  0  0  0  0  0  0  0  0  0  0  0
   16.4852   -6.4948   22.2646 C   0  0  0  0  0  0  0  0  0  0  0  0
   12.5131   -5.9495   21.8009 O   0  0  0  0  0  0  0  0  0  0  0  0
   12.3573   -4.5682   22.0932 C   0  0  0  0  0  0  0  0  0  0  0  0
   11.2167   -6.2022   19.2151 O   0  0  0  0  0  0  0  0  0  0  0  0
   10.2357   -7.0594   18.6477 C   0  0  0  0  0  0  0  0  0  0  0  0
   16.2843   -9.7369   13.1191 C   0  0  0  0  0  0  0  0  0  0  0  0
   16.3974   -9.6368   11.6366 C   0  0  0  0  0  0  0  0  0  0  0  0
   15.4281  -10.0014   10.9196 O   0  0  0  0  0  0  0  0  0  0  0  0
   17.6018   -9.1205   11.0523 N   0  0  0  0  0  0  0  0  0  0  0  0
   18.3267   -8.8823   11.6743 H   0  0  0  0  0  0  0  0  0  0  0  0
   17.8594   -8.9152    9.6572 C   0  0  0  0  0  0  0  0  0  0  0  0
   18.7777   -7.9284    9.2814 C   0  0  0  0  0  0  0  0  0  0  0  0
   19.0538   -7.6957    7.9307 C   0  0  0  0  0  0  0  0  0  0  0  0
   18.4075   -8.4477    6.9459 C   0  0  0  0  0  0  0  0  0  0  0  0
   17.4838   -9.4311    7.3118 C   0  0  0  0  0  0  0  0  0  0  0  0
   17.2103   -9.6643    8.6630 C   0  0  0  0  0  0  0  0  0  0  0  0
   18.6979   -8.2001    5.5098 C   0  0  0  0  0  0  0  0  0  0  0  0
  1  2  1  0  0  0
  2  3  1  0  0  0
  3  4  1  0  0  0
  4  5  1  0  0  0
  5  6  1  0  0  0
  5 10  1  0  0  0
 10 11  1  0  0  0
 11 12  2  0  0  0
 11 14  1  0  0  0
 14 15  2  0  0  0
 15 16  1  0  0  0
 16 17  2  0  0  0
 17 18  1  0  0  0
 18 19  2  0  0  0
 18 20  1  0  0  0
 20 21  1  0  0  0
 17 22  1  0  0  0
 22 23  1  0  0  0
 16 24  1  0  0  0
 24 25  1  0  0  0
  3  7  1  0  0  0
  7  8  1  0  0  0
  8  9  1  0  0  0
  2 26  1  0  0  0
 26 27  1  0  0  0
 27 28  2  0  0  0
 27 29  1  0  0  0
 29 31  1  0  0  0
 31 32  2  0  0  0
 32 33  1  0  0  0
 33 34  2  0  0  0
 34 35  1  0  0  0
 35 36  2  0  0  0
 34 37  1  0  0  0
  1  6  1  0  0  0
 19 14  1  0  0  0
 36 31  1  0  0  0
  9  1  1  0  0  0
 10 13  1  0  0  0
 29 30  1  0  0  0
M  END
>  <minimizedAffinity>
-9.15564

>  <minimizedRMSD>
0.94402

$$$$
CHEMBL248331 PubChem-15951678


 32 35  0  0  0  0  0  0  0  0999 V2000
   15.2152   -7.7932   18.2457 C   0  0  0  0  0  0  0  0  0  0  0  0
   15.9518   -7.9886   19.4398 C   0  0  0  0  0  0  0  0  0  0  0  0
   15.4700   -7.5204   20.6755 C   0  0  0  0  0  0  0  0  0  0  0  0
   14.2475   -6.8545   20.6844 C   0  0  0  0  0  0  0  0  0  0  0  0
   13.6124   -6.3565   21.7675 N   0  0  0  0  0  0  0  0  0  0  0  0
   12.4756   -5.8346   21.2484 C   0  0  0  0  0  0  0  0  0  0  0  0
   12.3907   -5.9906   19.8833 C   0  0  0  0  0  0  0  0  0  0  0  0
   13.5319   -6.6592   19.5253 C   0  0  0  0  0  0  0  0  0  0  0  0
   13.9780   -7.1168   18.2890 C   0  0  0  0  0  0  0  0  0  0  0  0
   11.1861   -5.6074   19.0736 C   0  0  0  0  0  0  0  0  0  0  0  0
   10.2744   -6.8086   18.9016 C   0  0  0  0  0  0  0  0  0  0  0  0
   10.4176   -4.4617   19.7689 C   0  0  0  0  0  0  0  0  0  0  0  0
   10.3032   -4.6543   21.2234 N   0  0  0  0  0  0  0  0  0  0  0  0
   11.3904   -5.1956   21.9832 C   0  0  0  0  0  0  0  0  0  0  0  0
   11.3837   -5.1506   23.2410 O   0  0  0  0  0  0  0  0  0  0  0  0
   13.9051   -6.3697   22.7074 H   0  0  0  0  0  0  0  0  0  0  0  0
    9.4672   -4.4076   21.6810 H   0  0  0  0  0  0  0  0  0  0  0  0
   16.5433   -9.4859   16.9419 N   0  0  0  0  0  0  0  0  0  0  0  0
   15.7392   -8.2964   16.9638 C   0  0  0  0  0  0  0  0  0  0  0  0
   15.4776   -7.6785   15.8959 O   0  0  0  0  0  0  0  0  0  0  0  0
   16.7108   -9.9202   17.8094 H   0  0  0  0  0  0  0  0  0  0  0  0
   17.3907  -10.3360   13.3768 C   0  0  0  0  0  0  0  0  0  0  0  0
   18.3120  -11.3707   13.5836 C   0  0  0  0  0  0  0  0  0  0  0  0
   18.6408  -11.7727   14.8805 C   0  0  0  0  0  0  0  0  0  0  0  0
   18.0500  -11.1425   15.9787 C   0  0  0  0  0  0  0  0  0  0  0  0
   17.1282  -10.1079   15.7897 C   0  0  0  0  0  0  0  0  0  0  0  0
   16.8027   -9.7093   14.4845 C   0  0  0  0  0  0  0  0  0  0  0  0
   17.0461   -9.9150   12.0092 C   0  0  0  0  0  0  0  0  0  0  0  0
   15.8369   -9.8600   11.6508 O   0  0  0  0  0  0  0  0  0  0  0  0
   18.0623   -9.5778   11.1113 O   0  0  0  0  0  0  0  0  0  0  0  0
   17.5977   -9.6214    8.7603 C   0  0  0  0  0  0  0  0  0  0  0  0
   17.8226   -8.7534    9.9806 C   0  0  0  0  0  0  0  0  0  0  0  0
 31 32  1  0  0  0
 32 30  1  0  0  0
 30 28  1  0  0  0
 28 29  2  0  0  0
 28 22  1  0  0  0
 22 23  2  0  0  0
 23 24  1  0  0  0
 24 25  2  0  0  0
 25 26  1  0  0  0
 26 18  1  0  0  0
 26 27  2  0  0  0
 18 19  1  0  0  0
 19 20  2  0  0  0
 19  1  1  0  0  0
  1  2  2  0  0  0
  2  3  1  0  0  0
  3  4  2  0  0  0
  4  5  1  0  0  0
  5  6  1  0  0  0
  6  7  2  0  0  0
  7  8  1  0  0  0
  7 10  1  0  0  0
  8  9  2  0  0  0
  8  4  1  0  0  0
  9  1  1  0  0  0
 10 11  1  0  0  0
 10 12  1  0  0  0
 12 13  1  0  0  0
 13 14  1  0  0  0
 14 15  2  0  0  0
 14  6  1  0  0  0
 27 22  1  0  0  0
 18 21  1  0  0  0
  5 16  1  0  0  0
 13 17  1  0  0  0
M  END
>  <minimizedAffinity>
-9.11769

>  <minimizedRMSD>
1.45512

$$$$
CHEMBL192749 PubChem-11260775 PubChem-5330297


 37 41  0  0  0  0  0  0  0  0999 V2000
   12.2723   -5.5023   21.5555 C   0  0  0  0  0  0  0  0  0  0  0  0
   12.1689   -5.8105   20.1817 C   0  0  0  0  0  0  0  0  0  0  0  0
   10.9628   -5.4055   19.3859 C   0  0  0  0  0  0  0  0  0  0  0  0
   13.1866   -6.5522   19.5654 C   0  0  0  0  0  0  0  0  0  0  0  0
   13.1417   -6.8830   18.2062 C   0  0  0  0  0  0  0  0  0  0  0  0
   14.1439   -7.6035   17.6434 N   0  0  0  0  0  0  0  0  0  0  0  0
   15.2072   -8.0197   18.3806 C   0  0  0  0  0  0  0  0  0  0  0  0
   15.2701   -7.7126   19.7019 N   0  0  0  0  0  0  0  0  0  0  0  0
   14.2913   -6.9907   20.3184 C   0  0  0  0  0  0  0  0  0  0  0  0
   14.3798   -6.6991   21.6529 N   0  0  0  0  0  0  0  0  0  0  0  0
   13.3958   -5.9665   22.2759 C   0  0  0  0  0  0  0  0  0  0  0  0
   13.5002   -5.6892   23.5040 O   0  0  0  0  0  0  0  0  0  0  0  0
   15.5592   -7.1846   22.3902 C   0  0  0  0  0  0  0  0  0  0  0  0
   16.6929   -6.1717   22.4018 C   0  0  0  0  0  0  0  0  0  0  0  0
   17.1750   -6.0864   23.8393 C   0  0  0  0  0  0  0  0  0  0  0  0
   16.5108   -7.2244   24.5891 C   0  0  0  0  0  0  0  0  0  0  0  0
   15.2383   -7.5246   23.8320 C   0  0  0  0  0  0  0  0  0  0  0  0
   11.2358   -3.2194   22.2307 C   0  0  0  0  0  0  0  0  0  0  0  0
   11.2259   -4.7101   22.2546 C   0  0  0  0  0  0  0  0  0  0  0  0
   10.3292   -5.2953   22.9182 O   0  0  0  0  0  0  0  0  0  0  0  0
   16.2677   -8.7800   17.7893 N   0  0  0  0  0  0  0  0  0  0  0  0
   16.8966   -9.2196   18.4061 H   0  0  0  0  0  0  0  0  0  0  0  0
   16.5020   -8.9630   16.3879 C   0  0  0  0  0  0  0  0  0  0  0  0
   17.2496  -10.0629   15.9634 C   0  0  0  0  0  0  0  0  0  0  0  0
   17.4853  -10.2474   14.6009 C   0  0  0  0  0  0  0  0  0  0  0  0
   16.9756   -9.3380   13.6633 C   0  0  0  0  0  0  0  0  0  0  0  0
   16.2310   -8.2471   14.1355 C   0  0  0  0  0  0  0  0  0  0  0  0
   16.0132   -8.0857   15.4681 N   0  0  0  0  0  0  0  0  0  0  0  0
   17.2177   -9.5144   12.2544 N   0  0  0  0  0  0  0  0  0  0  0  0
   18.4817   -9.0677   11.6606 C   0  0  0  0  0  0  0  0  0  0  0  0
   18.4516   -9.2325   10.1463 C   0  0  0  0  0  0  0  0  0  0  0  0
   19.6036   -8.4671    9.5313 C   0  0  0  0  0  0  0  0  0  0  0  0
   17.1862   -8.7123    9.6338 N   0  0  0  0  0  0  0  0  0  0  0  0
   16.0517   -9.5454   10.0635 C   0  0  0  0  0  0  0  0  0  0  0  0
   15.7284  -10.5780    9.0021 C   0  0  0  0  0  0  0  0  0  0  0  0
   16.2510  -10.2365   11.4231 C   0  0  0  0  0  0  0  0  0  0  0  0
   17.2211   -8.6989    8.6145 H   0  0  0  0  0  0  0  0  0  0  0  0
 18 19  1  0  0  0
 19 20  2  0  0  0
 19  1  1  0  0  0
  1  2  2  0  0  0
  2  3  1  0  0  0
  2  4  1  0  0  0
  4  5  2  0  0  0
  5  6  1  0  0  0
  6  7  2  0  0  0
  7 21  1  0  0  0
  7  8  1  0  0  0
 21 23  1  0  0  0
 23 24  2  0  0  0
 24 25  1  0  0  0
 25 26  2  0  0  0
 26 29  1  0  0  0
 26 27  1  0  0  0
 29 30  1  0  0  0
 30 31  1  0  0  0
 31 32  1  0  0  0
 31 33  1  0  0  0
 33 34  1  0  0  0
 34 35  1  0  0  0
 34 36  1  0  0  0
 36 29  1  0  0  0
 27 28  2  0  0  0
 28 23  1  0  0  0
  8  9  2  0  0  0
  9 10  1  0  0  0
  9  4  1  0  0  0
 10 13  1  0  0  0
 10 11  1  0  0  0
 13 14  1  0  0  0
 14 15  1  0  0  0
 15 16  1  0  0  0
 16 17  1  0  0  0
 17 13  1  0  0  0
 11 12  2  0  0  0
 11  1  1  0  0  0
 21 22  1  0  0  0
 33 37  1  0  0  0
M  END
>  <minimizedAffinity>
-9.11527

>  <minimizedRMSD>
1.78236

$$$$
CHEMBL5286809


 31 33  0  0  0  0  0  0  0  0999 V2000
   17.4861   -9.2473   17.0411 O   0  0  0  0  0  0  0  0  0  0  0  0
   16.8748   -8.9776   15.9720 C   0  0  0  0  0  0  0  0  0  0  0  0
   15.7305   -8.1089   15.9754 N   0  0  0  0  0  0  0  0  0  0  0  0
   15.2957   -7.9363   15.1092 H   0  0  0  0  0  0  0  0  0  0  0  0
   17.3352   -9.5572   14.7029 C   0  0  0  0  0  0  0  0  0  0  0  0
   16.6033   -9.4404   13.5600 N   0  0  0  0  0  0  0  0  0  0  0  0
   17.2028  -10.0409   12.5138 C   0  0  0  0  0  0  0  0  0  0  0  0
   18.6612  -10.7354   12.9768 S   0  0  0  0  0  0  0  0  0  0  0  0
   18.5391  -10.2574   14.5871 C   0  0  0  0  0  0  0  0  0  0  0  0
   16.6212  -10.0503   11.2023 N   0  0  0  0  0  0  0  0  0  0  0  0
   15.7478  -10.4978   11.1237 H   0  0  0  0  0  0  0  0  0  0  0  0
   17.1483   -9.4915    9.9907 C   0  0  0  0  0  0  0  0  0  0  0  0
   18.1758   -8.5381    9.9898 C   0  0  0  0  0  0  0  0  0  0  0  0
   18.6603   -8.0198    8.7861 C   0  0  0  0  0  0  0  0  0  0  0  0
   18.1210   -8.4502    7.5637 C   0  0  0  0  0  0  0  0  0  0  0  0
   17.0963   -9.4012    7.5644 C   0  0  0  0  0  0  0  0  0  0  0  0
   16.6137   -9.9180    8.7704 C   0  0  0  0  0  0  0  0  0  0  0  0
   18.5824   -7.9524    6.3421 O   0  0  0  0  0  0  0  0  0  0  0  0
   19.9150   -7.4966    6.1530 C   0  0  0  0  0  0  0  0  0  0  0  0
   15.1757   -7.4824   17.1082 N   0  0  0  0  0  0  0  0  0  0  0  0
   14.9606   -8.0948   18.2297 C   0  0  0  0  0  0  0  0  0  0  0  0
   14.3802   -7.3997   19.3828 C   0  0  0  0  0  0  0  0  0  0  0  0
   14.9363   -7.6009   20.6475 C   0  0  0  0  0  0  0  0  0  0  0  0
   14.4014   -6.9502   21.7614 C   0  0  0  0  0  0  0  0  0  0  0  0
   13.3010   -6.0882   21.6228 C   0  0  0  0  0  0  0  0  0  0  0  0
   12.7381   -5.8823   20.3537 C   0  0  0  0  0  0  0  0  0  0  0  0
   13.2827   -6.5410   19.2389 C   0  0  0  0  0  0  0  0  0  0  0  0
   11.6421   -5.0222   20.2231 O   0  0  0  0  0  0  0  0  0  0  0  0
   11.2064   -4.5166   18.9685 C   0  0  0  0  0  0  0  0  0  0  0  0
   12.7532   -5.4286   22.7285 O   0  0  0  0  0  0  0  0  0  0  0  0
   13.4372   -5.3063   23.9682 C   0  0  0  0  0  0  0  0  0  0  0  0
  1  2  2  0  0  0
  2  5  1  0  0  0
  5  6  1  0  0  0
  6  7  2  0  0  0
  7 10  1  0  0  0
 10 12  1  0  0  0
 12 13  2  0  0  0
 13 14  1  0  0  0
 14 15  2  0  0  0
 15 16  1  0  0  0
 16 17  2  0  0  0
 15 18  1  0  0  0
 18 19  1  0  0  0
  7  8  1  0  0  0
  8  9  1  0  0  0
  2  3  1  0  0  0
  3 20  1  0  0  0
 20 21  2  0  0  0
 21 22  1  0  0  0
 22 23  2  0  0  0
 23 24  1  0  0  0
 24 25  2  0  0  0
 25 26  1  0  0  0
 26 27  2  0  0  0
 26 28  1  0  0  0
 28 29  1  0  0  0
 25 30  1  0  0  0
 30 31  1  0  0  0
  9  5  2  0  0  0
 27 22  1  0  0  0
 17 12  1  0  0  0
 10 11  1  0  0  0
  3  4  1  0  0  0
M  END
>  <minimizedAffinity>
-9.10745

>  <minimizedRMSD>
1.45063

$$$$
CHEMBL5287422


 34 37  0  0  0  0  0  0  0  0999 V2000
   16.1760   -8.6806   18.6331 S   0  0  0  0  0  0  0  0  0  0  0  0
   14.8655   -7.6186   18.7206 C   0  0  0  0  0  0  0  0  0  0  0  0
   14.4554   -7.2541   17.4833 N   0  0  0  0  0  0  0  0  0  0  0  0
   15.1648   -7.8088   16.5016 N   0  0  0  0  0  0  0  0  0  0  0  0
   16.1454   -8.6217   16.9467 C   0  0  0  0  0  0  0  0  0  0  0  0
   14.2480   -7.1256   19.9622 C   0  0  0  0  0  0  0  0  0  0  0  0
   13.0830   -6.3577   19.9104 C   0  0  0  0  0  0  0  0  0  0  0  0
   12.4859   -5.8780   21.0846 C   0  0  0  0  0  0  0  0  0  0  0  0
   13.0601   -6.1662   22.3351 C   0  0  0  0  0  0  0  0  0  0  0  0
   14.2422   -6.9468   22.3952 C   0  0  0  0  0  0  0  0  0  0  0  0
   14.8172   -7.4160   21.2037 C   0  0  0  0  0  0  0  0  0  0  0  0
   14.8373   -7.2494   23.6257 O   0  0  0  0  0  0  0  0  0  0  0  0
   16.2000   -6.9690   23.9174 C   0  0  0  0  0  0  0  0  0  0  0  0
   12.4155   -5.6534   23.4735 O   0  0  0  0  0  0  0  0  0  0  0  0
   12.8094   -4.4855   24.1781 C   0  0  0  0  0  0  0  0  0  0  0  0
   11.3123   -5.1150   21.0340 O   0  0  0  0  0  0  0  0  0  0  0  0
   10.4351   -5.1219   19.9150 C   0  0  0  0  0  0  0  0  0  0  0  0
   17.0395   -9.3016   16.0580 N   0  0  0  0  0  0  0  0  0  0  0  0
   18.4570   -9.1162   15.9766 C   0  0  0  0  0  0  0  0  0  0  0  0
   19.0625   -8.3530   16.7729 O   0  0  0  0  0  0  0  0  0  0  0  0
   16.6411   -9.9598   15.4438 H   0  0  0  0  0  0  0  0  0  0  0  0
   19.2361   -9.8778   14.9633 C   0  0  0  0  0  0  0  0  0  0  0  0
   18.3141  -11.3569   14.4461 S   0  0  0  0  0  0  0  0  0  0  0  0
   17.6304  -10.5402   13.0102 C   0  0  0  0  0  0  0  0  0  0  0  0
   16.3385  -10.1857   12.8872 N   0  0  0  0  0  0  0  0  0  0  0  0
   16.2266   -9.6079   11.7013 N   0  0  0  0  0  0  0  0  0  0  0  0
   17.4558   -9.6348   11.1492 C   0  0  0  0  0  0  0  0  0  0  0  0
   18.3230  -10.2094   11.9486 O   0  0  0  0  0  0  0  0  0  0  0  0
   17.7839   -9.0898    9.8251 C   0  0  0  0  0  0  0  0  0  0  0  0
   18.8123   -8.1481    9.6901 C   0  0  0  0  0  0  0  0  0  0  0  0
   19.1293   -7.6259    8.4322 C   0  0  0  0  0  0  0  0  0  0  0  0
   18.4167   -8.0416    7.3037 C   0  0  0  0  0  0  0  0  0  0  0  0
   17.3867   -8.9779    7.4326 C   0  0  0  0  0  0  0  0  0  0  0  0
   17.0700   -9.5005    8.6905 C   0  0  0  0  0  0  0  0  0  0  0  0
  1  2  1  0  0  0
  2  3  2  0  0  0
  3  4  1  0  0  0
  4  5  2  0  0  0
  5 18  1  0  0  0
 18 19  1  0  0  0
 19 20  2  0  0  0
 19 22  1  0  0  0
 22 23  1  0  0  0
 23 24  1  0  0  0
 24 25  2  0  0  0
 25 26  1  0  0  0
 26 27  2  0  0  0
 27 28  1  0  0  0
 27 29  1  0  0  0
 29 30  2  0  0  0
 30 31  1  0  0  0
 31 32  2  0  0  0
 32 33  1  0  0  0
 33 34  2  0  0  0
  2  6  1  0  0  0
  6  7  2  0  0  0
  7  8  1  0  0  0
  8  9  2  0  0  0
  9 10  1  0  0  0
 10 11  2  0  0  0
 10 12  1  0  0  0
 12 13  1  0  0  0
  9 14  1  0  0  0
 14 15  1  0  0  0
  8 16  1  0  0  0
 16 17  1  0  0  0
  5  1  1  0  0  0
 28 24  1  0  0  0
 34 29  1  0  0  0
 11  6  1  0  0  0
 18 21  1  0  0  0
M  END
>  <minimizedAffinity>
-9.10244

>  <minimizedRMSD>
1.09098

$$$$
CHEMBL3273072 PubChem-12392219


 34 37  0  0  0  0  0  0  0  0999 V2000
   16.8077   -8.7322   16.2537 N   0  0  0  0  0  0  0  0  0  0  0  0
   16.1077   -7.9582   15.2193 C   0  0  0  0  0  0  0  0  0  0  0  0
   16.2704   -8.5816   13.8260 C   0  0  0  0  0  0  0  0  0  0  0  0
   17.3668   -9.5537   13.8184 N   0  0  0  0  0  0  0  0  0  0  0  0
   17.0809  -10.6624   14.7400 C   0  0  0  0  0  0  0  0  0  0  0  0
   16.5485  -10.1648   16.0910 C   0  0  0  0  0  0  0  0  0  0  0  0
   15.0497   -7.7371   17.7672 C   0  0  0  0  0  0  0  0  0  0  0  0
   14.2433   -7.5502   16.8152 O   0  0  0  0  0  0  0  0  0  0  0  0
   16.3388   -8.3259   17.5192 N   0  0  0  0  0  0  0  0  0  0  0  0
   16.9374   -8.4546   18.2902 H   0  0  0  0  0  0  0  0  0  0  0  0
   15.2389   -7.0994   21.4908 C   0  0  0  0  0  0  0  0  0  0  0  0
   15.5888   -7.4636   20.1828 C   0  0  0  0  0  0  0  0  0  0  0  0
   14.6703   -7.3514   19.1374 C   0  0  0  0  0  0  0  0  0  0  0  0
   13.3876   -6.8686   19.4085 C   0  0  0  0  0  0  0  0  0  0  0  0
   13.0100   -6.4966   20.7086 C   0  0  0  0  0  0  0  0  0  0  0  0
   13.9490   -6.6136   21.7650 C   0  0  0  0  0  0  0  0  0  0  0  0
   17.2827   -6.3508   22.6740 C   0  0  0  0  0  0  0  0  0  0  0  0
   16.1602   -7.2121   22.5386 O   0  0  0  0  0  0  0  0  0  0  0  0
   11.7177   -6.0160   20.9510 O   0  0  0  0  0  0  0  0  0  0  0  0
   10.9834   -5.2533   20.0023 C   0  0  0  0  0  0  0  0  0  0  0  0
   13.6609   -6.2660   23.0959 O   0  0  0  0  0  0  0  0  0  0  0  0
   13.7192   -4.9498   23.6268 C   0  0  0  0  0  0  0  0  0  0  0  0
   17.5554  -10.0753   12.4619 C   0  0  0  0  0  0  0  0  0  0  0  0
   16.2931   -9.9873   11.5990 C   0  0  0  0  0  0  0  0  0  0  0  0
   16.6584   -9.8772   10.1576 C   0  0  0  0  0  0  0  0  0  0  0  0
   16.0514  -10.5532    9.1057 C   0  0  0  0  0  0  0  0  0  0  0  0
   16.6221  -10.1963    7.9267 N   0  0  0  0  0  0  0  0  0  0  0  0
   17.5736   -9.3007    8.2480 C   0  0  0  0  0  0  0  0  0  0  0  0
   18.4286   -8.6416    7.3667 C   0  0  0  0  0  0  0  0  0  0  0  0
   19.3534   -7.7316    7.9112 C   0  0  0  0  0  0  0  0  0  0  0  0
   19.4009   -7.5030    9.3038 C   0  0  0  0  0  0  0  0  0  0  0  0
   18.5250   -8.1823   10.1694 C   0  0  0  0  0  0  0  0  0  0  0  0
   17.6238   -9.0783    9.5966 C   0  0  0  0  0  0  0  0  0  0  0  0
   16.3892  -10.5232    7.0278 H   0  0  0  0  0  0  0  0  0  0  0  0
 17 18  1  0  0  0
 18 11  1  0  0  0
 11 12  2  0  0  0
 12 13  1  0  0  0
 13  7  1  0  0  0
 13 14  2  0  0  0
  7  8  2  0  0  0
  7  9  1  0  0  0
  9  1  1  0  0  0
  1  2  1  0  0  0
  2  3  1  0  0  0
  3  4  1  0  0  0
  4 23  1  0  0  0
  4  5  1  0  0  0
 23 24  1  0  0  0
 24 25  1  0  0  0
 25 26  2  0  0  0
 26 27  1  0  0  0
 27 28  1  0  0  0
 28 29  2  0  0  0
 29 30  1  0  0  0
 30 31  2  0  0  0
 31 32  1  0  0  0
 32 33  2  0  0  0
 33 25  1  0  0  0
 33 28  1  0  0  0
  5  6  1  0  0  0
  6  1  1  0  0  0
 14 15  1  0  0  0
 15 19  1  0  0  0
 15 16  2  0  0  0
 19 20  1  0  0  0
 16 21  1  0  0  0
 16 11  1  0  0  0
 21 22  1  0  0  0
  9 10  1  0  0  0
 27 34  1  0  0  0
M  END
>  <minimizedAffinity>
-9.08663

>  <minimizedRMSD>
0.93160

$$$$
CHEMBL1197377 CHEMBL3217131


 35 37  0  0  0  0  0  0  0  0999 V2000
   15.2486   -7.7747   18.2730 N   0  0  0  0  0  0  0  0  0  0  0  0
   16.2033   -8.5682   17.7462 C   0  0  0  0  0  0  0  0  0  0  0  0
   15.9828   -8.5406   16.3816 C   0  0  0  0  0  0  0  0  0  0  0  0
   14.9236   -7.7493   16.1230 N   0  0  0  0  0  0  0  0  0  0  0  0
   14.4985   -7.2980   17.2913 N   0  0  0  0  0  0  0  0  0  0  0  0
   13.8166   -7.6652   20.3154 C   0  0  0  0  0  0  0  0  0  0  0  0
   13.6970   -7.3731   21.6846 C   0  0  0  0  0  0  0  0  0  0  0  0
   14.7907   -6.9094   22.4262 C   0  0  0  0  0  0  0  0  0  0  0  0
   16.0210   -6.7367   21.7855 C   0  0  0  0  0  0  0  0  0  0  0  0
   16.1554   -7.0229   20.4268 C   0  0  0  0  0  0  0  0  0  0  0  0
   15.0652   -7.4887   19.6741 C   0  0  0  0  0  0  0  0  0  0  0  0
   14.6533   -6.6073   23.8641 C   0  0  0  0  0  0  0  0  0  0  0  0
   13.7583   -5.7631   24.2689 N   0  0  0  0  0  0  0  0  0  0  0  0
   13.1599   -5.3301   23.6180 H   0  0  0  0  0  0  0  0  0  0  0  0
   15.5247   -7.2380   24.8108 N   0  0  0  0  0  0  0  0  0  0  0  0
   15.5052   -8.2196   24.8829 H   0  0  0  0  0  0  0  0  0  0  0  0
   16.4373   -6.4990   25.6714 C   0  0  0  0  0  0  0  0  0  0  0  0
   16.9977   -5.3169   24.9098 C   0  0  0  0  0  0  0  0  0  0  0  0
   17.5795   -7.3971   26.1063 C   0  0  0  0  0  0  0  0  0  0  0  0
   11.6166   -7.2916   19.2353 C   0  0  0  0  0  0  0  0  0  0  0  0
   12.7101   -8.1265   19.5925 O   0  0  0  0  0  0  0  0  0  0  0  0
   16.7602   -9.2519   15.3542 C   0  0  0  0  0  0  0  0  0  0  0  0
   17.8726  -10.0258   15.7113 C   0  0  0  0  0  0  0  0  0  0  0  0
   18.6066  -10.6992   14.7320 C   0  0  0  0  0  0  0  0  0  0  0  0
   18.2328  -10.6035   13.3893 C   0  0  0  0  0  0  0  0  0  0  0  0
   17.1224   -9.8343   13.0142 C   0  0  0  0  0  0  0  0  0  0  0  0
   16.3915   -9.1610   14.0053 C   0  0  0  0  0  0  0  0  0  0  0  0
   16.7324   -9.7377   11.5943 C   0  0  0  0  0  0  0  0  0  0  0  0
   15.8060  -10.5096   11.1219 N   0  0  0  0  0  0  0  0  0  0  0  0
   15.3604  -11.1610   11.7105 H   0  0  0  0  0  0  0  0  0  0  0  0
   17.3857   -8.7855   10.7400 N   0  0  0  0  0  0  0  0  0  0  0  0
   17.1883   -7.8331   10.8917 H   0  0  0  0  0  0  0  0  0  0  0  0
   18.3189   -9.1131    9.6647 C   0  0  0  0  0  0  0  0  0  0  0  0
   17.5789   -9.4044    8.3721 C   0  0  0  0  0  0  0  0  0  0  0  0
   19.3292   -7.9985    9.4631 C   0  0  0  0  0  0  0  0  0  0  0  0
 20 21  1  0  0  0
 21  6  1  0  0  0
  6  7  2  0  0  0
  7  8  1  0  0  0
  8 12  1  0  0  0
  8  9  2  0  0  0
 12 13  2  0  0  0
 12 15  1  0  0  0
 15 17  1  0  0  0
 17 18  1  0  0  0
 17 19  1  0  0  0
  9 10  1  0  0  0
 10 11  2  0  0  0
 11  1  1  0  0  0
 11  6  1  0  0  0
  1  2  1  0  0  0
  2  3  2  0  0  0
  3 22  1  0  0  0
  3  4  1  0  0  0
 22 23  2  0  0  0
 23 24  1  0  0  0
 24 25  2  0  0  0
 25 26  1  0  0  0
 26 28  1  0  0  0
 26 27  2  0  0  0
 28 29  2  0  0  0
 28 31  1  0  0  0
 31 33  1  0  0  0
 33 34  1  0  0  0
 33 35  1  0  0  0
 27 22  1  0  0  0
  4  5  2  0  0  0
  5  1  1  0  0  0
 13 14  1  0  0  0
 15 16  1  0  0  0
 29 30  1  0  0  0
 31 32  1  0  0  0
M  END
>  <minimizedAffinity>
-9.08658

>  <minimizedRMSD>
1.77458

$$$$
CHEMBL3236082 PubChem-90654706


 28 29  0  0  0  0  0  0  0  0999 V2000
   15.6499   -7.8975   19.2190 N   0  0  0  0  0  0  0  0  0  0  0  0
   15.1969   -7.8937   17.8593 C   0  0  0  0  0  0  0  0  0  0  0  0
   14.2102   -7.1917   17.5052 O   0  0  0  0  0  0  0  0  0  0  0  0
   16.4252   -8.4685   19.4238 H   0  0  0  0  0  0  0  0  0  0  0  0
   15.4171   -6.0828   22.4705 C   0  0  0  0  0  0  0  0  0  0  0  0
   15.9173   -6.8074   21.3787 C   0  0  0  0  0  0  0  0  0  0  0  0
   15.0915   -7.1562   20.3123 C   0  0  0  0  0  0  0  0  0  0  0  0
   13.7472   -6.7746   20.3394 C   0  0  0  0  0  0  0  0  0  0  0  0
   13.2185   -6.0491   21.4185 C   0  0  0  0  0  0  0  0  0  0  0  0
   14.0658   -5.6978   22.5002 C   0  0  0  0  0  0  0  0  0  0  0  0
   17.0029   -6.6871   24.2755 C   0  0  0  0  0  0  0  0  0  0  0  0
   16.2475   -5.7327   23.5415 O   0  0  0  0  0  0  0  0  0  0  0  0
   11.8681   -5.6803   21.4189 O   0  0  0  0  0  0  0  0  0  0  0  0
   11.1743   -5.2774   20.2453 C   0  0  0  0  0  0  0  0  0  0  0  0
   13.6262   -4.9739   23.6216 O   0  0  0  0  0  0  0  0  0  0  0  0
   13.1186   -5.5492   24.8169 C   0  0  0  0  0  0  0  0  0  0  0  0
   15.9034   -8.7244   16.8797 C   0  0  0  0  0  0  0  0  0  0  0  0
   16.2014   -8.2778   15.6616 C   0  0  0  0  0  0  0  0  0  0  0  0
   16.9088   -9.0958   14.6670 C   0  0  0  0  0  0  0  0  0  0  0  0
   18.0210   -9.8789   15.0109 C   0  0  0  0  0  0  0  0  0  0  0  0
   18.6687  -10.6442   14.0386 C   0  0  0  0  0  0  0  0  0  0  0  0
   18.2087  -10.6305   12.7197 C   0  0  0  0  0  0  0  0  0  0  0  0
   17.0965   -9.8512   12.3611 C   0  0  0  0  0  0  0  0  0  0  0  0
   16.4553   -9.0883   13.3438 C   0  0  0  0  0  0  0  0  0  0  0  0
   16.5966   -9.8038   11.0504 O   0  0  0  0  0  0  0  0  0  0  0  0
   17.3070   -9.4157    9.9053 C   0  0  0  0  0  0  0  0  0  0  0  0
   16.8525   -9.9004    8.5764 C   0  0  0  0  0  0  0  0  0  0  0  0
   18.3186   -8.6682    9.9727 O   0  0  0  0  0  0  0  0  0  0  0  0
 11 12  1  0  0  0
 12  5  1  0  0  0
  5  6  2  0  0  0
  6  7  1  0  0  0
  7  1  1  0  0  0
  7  8  2  0  0  0
  1  2  1  0  0  0
  2  3  2  0  0  0
  2 17  1  0  0  0
 17 18  2  0  0  0
 18 19  1  0  0  0
 19 20  2  0  0  0
 20 21  1  0  0  0
 21 22  2  0  0  0
 22 23  1  0  0  0
 23 25  1  0  0  0
 23 24  2  0  0  0
 25 26  1  0  0  0
 26 27  1  0  0  0
 26 28  2  0  0  0
 24 19  1  0  0  0
  8  9  1  0  0  0
  9 13  1  0  0  0
  9 10  2  0  0  0
 13 14  1  0  0  0
 10 15  1  0  0  0
 10  5  1  0  0  0
 15 16  1  0  0  0
  1  4  1  0  0  0
M  END
>  <minimizedAffinity>
-9.08515

>  <minimizedRMSD>
1.65540

$$$$
CHEMBL1545911 LN00682326 MolPort-000-812-055 PubChem-5925253 ZINC05111341


 32 33  0  0  0  0  0  0  0  0999 V2000
   15.4884   -8.2765   17.2211 C   0  0  0  0  0  0  0  0  0  0  0  0
   15.4573   -7.6773   16.1116 O   0  0  0  0  0  0  0  0  0  0  0  0
   16.1390   -9.5488   17.3313 N   0  0  0  0  0  0  0  0  0  0  0  0
   15.9843  -10.0808   18.1452 H   0  0  0  0  0  0  0  0  0  0  0  0
   14.8149   -7.1631   20.7776 C   0  0  0  0  0  0  0  0  0  0  0  0
   15.4344   -7.7220   19.6484 C   0  0  0  0  0  0  0  0  0  0  0  0
   14.8207   -7.6872   18.3944 C   0  0  0  0  0  0  0  0  0  0  0  0
   13.5682   -7.0827   18.2673 C   0  0  0  0  0  0  0  0  0  0  0  0
   12.9262   -6.5165   19.3781 C   0  0  0  0  0  0  0  0  0  0  0  0
   13.5425   -6.5517   20.6407 C   0  0  0  0  0  0  0  0  0  0  0  0
   16.6258   -6.4666   22.3225 C   0  0  0  0  0  0  0  0  0  0  0  0
   15.4536   -7.2129   22.0222 O   0  0  0  0  0  0  0  0  0  0  0  0
   11.6708   -5.9111   19.2508 O   0  0  0  0  0  0  0  0  0  0  0  0
   11.4820   -4.6542   18.6145 C   0  0  0  0  0  0  0  0  0  0  0  0
   12.8476   -5.9673   21.7132 O   0  0  0  0  0  0  0  0  0  0  0  0
   13.0903   -4.6676   22.2320 C   0  0  0  0  0  0  0  0  0  0  0  0
   16.9858  -10.0801   16.3424 N   0  0  0  0  0  0  0  0  0  0  0  0
   16.9222  -11.0440   16.1526 H   0  0  0  0  0  0  0  0  0  0  0  0
   17.9363   -9.3114   15.5913 C   0  0  0  0  0  0  0  0  0  0  0  0
   19.3873   -8.9187   16.2418 S   0  0  0  0  0  0  0  0  0  0  0  0
   17.7361   -9.0760   14.1936 N   0  0  0  0  0  0  0  0  0  0  0  0
   17.5191  -10.0869   13.1993 C   0  0  0  0  0  0  0  0  0  0  0  0
   17.4422  -11.3021   13.5206 O   0  0  0  0  0  0  0  0  0  0  0  0
   17.7485   -8.1401   13.8885 H   0  0  0  0  0  0  0  0  0  0  0  0
   17.3726   -9.7181   11.7887 C   0  0  0  0  0  0  0  0  0  0  0  0
   18.4105   -9.3233   11.0553 C   0  0  0  0  0  0  0  0  0  0  0  0
   18.2864   -8.9490    9.6400 C   0  0  0  0  0  0  0  0  0  0  0  0
   17.4376   -9.6439    8.7631 C   0  0  0  0  0  0  0  0  0  0  0  0
   17.3442   -9.2603    7.4219 C   0  0  0  0  0  0  0  0  0  0  0  0
   18.0974   -8.1818    6.9499 C   0  0  0  0  0  0  0  0  0  0  0  0
   18.9437   -7.4869    7.8186 C   0  0  0  0  0  0  0  0  0  0  0  0
   19.0374   -7.8703    9.1600 C   0  0  0  0  0  0  0  0  0  0  0  0
 11 12  1  0  0  0
 12  5  1  0  0  0
  5  6  2  0  0  0
  6  7  1  0  0  0
  7  8  2  0  0  0
  7  1  1  0  0  0
  8  9  1  0  0  0
  9 13  1  0  0  0
  9 10  2  0  0  0
 13 14  1  0  0  0
 10 15  1  0  0  0
 10  5  1  0  0  0
 15 16  1  0  0  0
  1  2  2  0  0  0
  1  3  1  0  0  0
  3 17  1  0  0  0
 17 19  1  0  0  0
 19 20  2  0  0  0
 19 21  1  0  0  0
 21 22  1  0  0  0
 22 23  2  0  0  0
 22 25  1  0  0  0
 25 26  2  0  0  0
 26 27  1  0  0  0
 27 28  2  0  0  0
 28 29  1  0  0  0
 29 30  2  0  0  0
 30 31  1  0  0  0
 31 32  2  0  0  0
 32 27  1  0  0  0
  3  4  1  0  0  0
 17 18  1  0  0  0
 21 24  1  0  0  0
M  END
>  <minimizedAffinity>
-9.08097

>  <minimizedRMSD>
1.61827

$$$$
CHEMBL2418655 MolPort-001-821-659 PubChem-135615645 ZINC05296052


 32 35  0  0  0  0  0  0  0  0999 V2000
   15.6857   -8.1885   15.5411 N   0  0  0  0  0  0  0  0  0  0  0  0
   15.9582   -9.5421   15.1437 C   0  0  0  0  0  0  0  0  0  0  0  0
   15.5535  -10.5152   15.8345 O   0  0  0  0  0  0  0  0  0  0  0  0
   16.0285   -7.4722   14.9591 H   0  0  0  0  0  0  0  0  0  0  0  0
   16.7189   -9.7973   13.9153 C   0  0  0  0  0  0  0  0  0  0  0  0
   16.9166   -8.8883   12.8919 C   0  0  0  0  0  0  0  0  0  0  0  0
   17.6823   -9.6144   11.9941 C   0  0  0  0  0  0  0  0  0  0  0  0
   17.9127  -10.8560   12.4628 N   0  0  0  0  0  0  0  0  0  0  0  0
   17.3225  -10.9679   13.6396 N   0  0  0  0  0  0  0  0  0  0  0  0
   17.3241  -11.7675   14.2141 H   0  0  0  0  0  0  0  0  0  0  0  0
   18.1867   -9.1208   10.7012 C   0  0  0  0  0  0  0  0  0  0  0  0
   19.3606   -8.3545   10.6507 C   0  0  0  0  0  0  0  0  0  0  0  0
   19.8486   -7.8808    9.4291 C   0  0  0  0  0  0  0  0  0  0  0  0
   19.1654   -8.1700    8.2459 C   0  0  0  0  0  0  0  0  0  0  0  0
   19.6469   -7.7001    7.0210 C   0  0  0  0  0  0  0  0  0  0  0  0
   18.9569   -7.9939    5.8404 C   0  0  0  0  0  0  0  0  0  0  0  0
   17.7854   -8.7576    5.8819 C   0  0  0  0  0  0  0  0  0  0  0  0
   17.2976   -9.2313    7.1041 C   0  0  0  0  0  0  0  0  0  0  0  0
   17.9817   -8.9416    8.2877 C   0  0  0  0  0  0  0  0  0  0  0  0
   17.5007   -9.4111    9.5122 C   0  0  0  0  0  0  0  0  0  0  0  0
   15.4298   -7.9250   17.8946 C   0  0  0  0  0  0  0  0  0  0  0  0
   14.9714   -7.7958   16.6895 N   0  0  0  0  0  0  0  0  0  0  0  0
   12.7100   -6.3979   20.0432 C   0  0  0  0  0  0  0  0  0  0  0  0
   13.4457   -6.7959   18.9147 C   0  0  0  0  0  0  0  0  0  0  0  0
   14.6483   -7.5013   19.0607 C   0  0  0  0  0  0  0  0  0  0  0  0
   15.1163   -7.8095   20.3407 C   0  0  0  0  0  0  0  0  0  0  0  0
   14.3902   -7.4170   21.4681 C   0  0  0  0  0  0  0  0  0  0  0  0
   13.1910   -6.7135   21.3221 C   0  0  0  0  0  0  0  0  0  0  0  0
   12.4801   -6.3299   22.4525 O   0  0  0  0  0  0  0  0  0  0  0  0
   12.8052   -6.5429   23.3051 H   0  0  0  0  0  0  0  0  0  0  0  0
   11.3299   -4.6393   18.9805 C   0  0  0  0  0  0  0  0  0  0  0  0
   11.5080   -5.6934   19.9169 O   0  0  0  0  0  0  0  0  0  0  0  0
 31 32  1  0  0  0
 32 23  1  0  0  0
 23 24  2  0  0  0
 24 25  1  0  0  0
 25 26  2  0  0  0
 25 21  1  0  0  0
 26 27  1  0  0  0
 27 28  2  0  0  0
 28 29  1  0  0  0
 28 23  1  0  0  0
 21 22  2  0  0  0
 22  1  1  0  0  0
  1  2  1  0  0  0
  2  3  2  0  0  0
  2  5  1  0  0  0
  5  6  2  0  0  0
  6  7  1  0  0  0
  7  8  2  0  0  0
  7 11  1  0  0  0
  8  9  1  0  0  0
  9  5  1  0  0  0
 11 12  2  0  0  0
 12 13  1  0  0  0
 13 14  2  0  0  0
 14 15  1  0  0  0
 15 16  2  0  0  0
 16 17  1  0  0  0
 17 18  2  0  0  0
 18 19  1  0  0  0
 19 20  2  0  0  0
 19 14  1  0  0  0
 20 11  1  0  0  0
 29 30  1  0  0  0
  1  4  1  0  0  0
  9 10  1  0  0  0
M  END
>  <minimizedAffinity>
-9.06744

>  <minimizedRMSD>
1.63992

$$$$
CHEMBL5179544


 33 35  0  0  0  0  0  0  0  0999 V2000
   16.9929   -7.7764   14.9304 N   0  0  0  0  0  0  0  0  0  0  0  0
   17.0932   -9.0768   15.4379 N   0  0  0  0  0  0  0  0  0  0  0  0
   16.7080   -9.5192   16.6401 C   0  0  0  0  0  0  0  0  0  0  0  0
   16.9595  -10.8379   16.7772 N   0  0  0  0  0  0  0  0  0  0  0  0
   17.5150  -11.2415   15.6387 N   0  0  0  0  0  0  0  0  0  0  0  0
   17.5891  -10.1634   14.8312 C   0  0  0  0  0  0  0  0  0  0  0  0
   16.6048   -7.0606   15.4838 H   0  0  0  0  0  0  0  0  0  0  0  0
   17.3106   -7.5774   14.0201 H   0  0  0  0  0  0  0  0  0  0  0  0
   18.2709  -10.1906   13.1754 S   0  0  0  0  0  0  0  0  0  0  0  0
   16.7961   -9.4139   12.4449 C   0  0  0  0  0  0  0  0  0  0  0  0
   16.6039   -9.8771   11.0366 C   0  0  0  0  0  0  0  0  0  0  0  0
   15.8209  -10.8399   10.8173 O   0  0  0  0  0  0  0  0  0  0  0  0
   17.3276   -9.2425    9.9170 C   0  0  0  0  0  0  0  0  0  0  0  0
   18.4758   -8.4700   10.1516 C   0  0  0  0  0  0  0  0  0  0  0  0
   19.1569   -7.8722    9.0871 C   0  0  0  0  0  0  0  0  0  0  0  0
   18.6953   -8.0416    7.7792 C   0  0  0  0  0  0  0  0  0  0  0  0
   17.5527   -8.8082    7.5356 C   0  0  0  0  0  0  0  0  0  0  0  0
   16.8718   -9.4060    8.6001 C   0  0  0  0  0  0  0  0  0  0  0  0
   19.4192   -7.4064    6.6477 C   0  0  0  0  0  0  0  0  0  0  0  0
   16.1234   -8.7147   17.6168 O   0  0  0  0  0  0  0  0  0  0  0  0
   14.8325   -8.1523   17.4382 C   0  0  0  0  0  0  0  0  0  0  0  0
   14.4199   -7.4436   18.6786 C   0  0  0  0  0  0  0  0  0  0  0  0
   13.3352   -6.5706   18.6552 C   0  0  0  0  0  0  0  0  0  0  0  0
   12.9537   -5.8776   19.8134 C   0  0  0  0  0  0  0  0  0  0  0  0
   13.6715   -6.0561   21.0095 C   0  0  0  0  0  0  0  0  0  0  0  0
   14.7832   -6.9381   21.0305 C   0  0  0  0  0  0  0  0  0  0  0  0
   15.1430   -7.6193   19.8563 C   0  0  0  0  0  0  0  0  0  0  0  0
   15.5200   -7.1313   22.2050 O   0  0  0  0  0  0  0  0  0  0  0  0
   16.7378   -6.4502   22.4772 C   0  0  0  0  0  0  0  0  0  0  0  0
   13.2379   -5.3344   22.1346 O   0  0  0  0  0  0  0  0  0  0  0  0
   12.1462   -5.6986   22.9671 C   0  0  0  0  0  0  0  0  0  0  0  0
   11.8615   -5.0022   19.8000 O   0  0  0  0  0  0  0  0  0  0  0  0
   11.2816   -4.5115   18.5987 C   0  0  0  0  0  0  0  0  0  0  0  0
  1  2  1  0  0  0
  2  3  1  0  0  0
  3  4  2  0  0  0
  4  5  1  0  0  0
  5  6  2  0  0  0
  6  9  1  0  0  0
  9 10  1  0  0  0
 10 11  1  0  0  0
 11 12  2  0  0  0
 11 13  1  0  0  0
 13 14  2  0  0  0
 14 15  1  0  0  0
 15 16  2  0  0  0
 16 17  1  0  0  0
 17 18  2  0  0  0
 16 19  1  0  0  0
  3 20  1  0  0  0
 20 21  1  0  0  0
 21 22  1  0  0  0
 22 23  2  0  0  0
 23 24  1  0  0  0
 24 25  2  0  0  0
 25 26  1  0  0  0
 26 27  2  0  0  0
 26 28  1  0  0  0
 28 29  1  0  0  0
 25 30  1  0  0  0
 30 31  1  0  0  0
 24 32  1  0  0  0
 32 33  1  0  0  0
  6  2  1  0  0  0
 18 13  1  0  0  0
 27 22  1  0  0  0
  1  7  1  0  0  0
  1  8  1  0  0  0
M  END
>  <minimizedAffinity>
-9.06623

>  <minimizedRMSD>
1.71649

$$$$
CHEMBL1368283 ChemDiv-C434-0221 MCULE-9838522417 MolPort-007-630-159 PubChem-5309292 ZINC000058042642


 34 38  0  0  0  0  0  0  0  0999 V2000
   15.1099   -8.0015   17.8312 C   0  0  0  0  0  0  0  0  0  0  0  0
   16.3160   -8.4921   17.2434 N   0  0  0  0  0  0  0  0  0  0  0  0
   14.4532   -7.0799   17.2772 O   0  0  0  0  0  0  0  0  0  0  0  0
   16.8427   -9.1620   17.7364 H   0  0  0  0  0  0  0  0  0  0  0  0
   14.6511   -8.5522   19.1368 C   0  0  0  0  0  0  0  0  0  0  0  0
   14.4955   -5.8849   21.5726 C   0  0  0  0  0  0  0  0  0  0  0  0
   15.7928   -6.3382   21.7187 C   0  0  0  0  0  0  0  0  0  0  0  0
   15.9521   -7.3647   20.8447 N   0  0  0  0  0  0  0  0  0  0  0  0
   14.8151   -7.5547   20.1847 N   0  0  0  0  0  0  0  0  0  0  0  0
   13.9125   -6.6542   20.6141 C   0  0  0  0  0  0  0  0  0  0  0  0
   12.5858   -6.4400   20.2306 C   0  0  0  0  0  0  0  0  0  0  0  0
   11.8992   -5.3857   20.8927 C   0  0  0  0  0  0  0  0  0  0  0  0
   10.5691   -5.1160   20.5591 C   0  0  0  0  0  0  0  0  0  0  0  0
    9.9220   -5.8800   19.5821 C   0  0  0  0  0  0  0  0  0  0  0  0
   10.5997   -6.9184   18.9339 C   0  0  0  0  0  0  0  0  0  0  0  0
   11.9302   -7.2004   19.2564 C   0  0  0  0  0  0  0  0  0  0  0  0
   12.5150   -4.6520   21.8314 O   0  0  0  0  0  0  0  0  0  0  0  0
   13.7843   -4.8624   22.1946 C   0  0  0  0  0  0  0  0  0  0  0  0
   14.3191   -4.1465   23.0815 O   0  0  0  0  0  0  0  0  0  0  0  0
   16.7986   -8.0425   15.9452 C   0  0  0  0  0  0  0  0  0  0  0  0
   17.6675   -9.1133   15.3011 C   0  0  0  0  0  0  0  0  0  0  0  0
   16.8463  -10.0611   14.5615 N   0  0  0  0  0  0  0  0  0  0  0  0
   17.7469  -10.9677   13.8293 C   0  0  0  0  0  0  0  0  0  0  0  0
   18.2812  -10.3614   12.5257 C   0  0  0  0  0  0  0  0  0  0  0  0
   17.1918   -9.8244   11.7059 N   0  0  0  0  0  0  0  0  0  0  0  0
   15.8466   -9.7961   12.2735 C   0  0  0  0  0  0  0  0  0  0  0  0
   15.9254   -9.2848   13.7104 C   0  0  0  0  0  0  0  0  0  0  0  0
   17.4475   -9.4091   10.3468 C   0  0  0  0  0  0  0  0  0  0  0  0
   16.5048   -9.7003    9.3449 C   0  0  0  0  0  0  0  0  0  0  0  0
   16.7189   -9.3102    8.0212 C   0  0  0  0  0  0  0  0  0  0  0  0
   17.8829   -8.6237    7.6768 C   0  0  0  0  0  0  0  0  0  0  0  0
   18.8346   -8.3319    8.6550 C   0  0  0  0  0  0  0  0  0  0  0  0
   18.6273   -8.7186    9.9830 C   0  0  0  0  0  0  0  0  0  0  0  0
   19.5954   -8.4398   10.8900 F   0  0  0  0  0  0  0  0  0  0  0  0
  6  7  1  0  0  0
  7  8  2  0  0  0
  8  9  1  0  0  0
  9  5  1  0  0  0
  5  1  1  0  0  0
  1  2  1  0  0  0
  2 20  1  0  0  0
 20 21  1  0  0  0
 21 22  1  0  0  0
 22 23  1  0  0  0
 23 24  1  0  0  0
 24 25  1  0  0  0
 25 26  1  0  0  0
 26 27  1  0  0  0
 25 28  1  0  0  0
 28 29  2  0  0  0
 29 30  1  0  0  0
 30 31  2  0  0  0
 31 32  1  0  0  0
 32 33  2  0  0  0
 33 34  1  0  0  0
  1  3  2  0  0  0
  9 10  1  0  0  0
 10 11  1  0  0  0
 11 12  2  0  0  0
 12 13  1  0  0  0
 13 14  2  0  0  0
 14 15  1  0  0  0
 15 16  2  0  0  0
 12 17  1  0  0  0
 17 18  1  0  0  0
 18 19  2  0  0  0
 10  6  2  0  0  0
 16 11  1  0  0  0
 18  6  1  0  0  0
 27 22  1  0  0  0
 33 28  1  0  0  0
  2  4  1  0  0  0
M  END
>  <minimizedAffinity>
-9.04562

>  <minimizedRMSD>
1.73830

$$$$
CHEMBL5266014


 29 31  0  0  0  0  0  0  0  0999 V2000
   16.3709   -8.1814   15.2761 C   0  0  0  0  0  0  0  0  0  0  0  0
   16.5235   -6.9378   15.1378 O   0  0  0  0  0  0  0  0  0  0  0  0
   15.6483   -8.6915   16.3974 N   0  0  0  0  0  0  0  0  0  0  0  0
   15.5336   -9.6641   16.4982 H   0  0  0  0  0  0  0  0  0  0  0  0
   17.2539   -9.9407   12.2229 C   0  0  0  0  0  0  0  0  0  0  0  0
   16.6283   -9.0021   12.9592 N   0  0  0  0  0  0  0  0  0  0  0  0
   16.9379   -9.1023   14.2822 C   0  0  0  0  0  0  0  0  0  0  0  0
   17.8212  -10.1288   14.6257 C   0  0  0  0  0  0  0  0  0  0  0  0
   18.2109  -10.9237   13.1931 S   0  0  0  0  0  0  0  0  0  0  0  0
   17.0837  -10.0353   10.8013 N   0  0  0  0  0  0  0  0  0  0  0  0
   16.4756  -10.7436   10.4885 H   0  0  0  0  0  0  0  0  0  0  0  0
   17.0877   -9.2030    8.5117 C   0  0  0  0  0  0  0  0  0  0  0  0
   17.6853   -9.2309    9.7772 C   0  0  0  0  0  0  0  0  0  0  0  0
   18.8460   -8.4758   10.0013 C   0  0  0  0  0  0  0  0  0  0  0  0
   19.3997   -7.7051    8.9749 C   0  0  0  0  0  0  0  0  0  0  0  0
   18.7960   -7.6838    7.7151 C   0  0  0  0  0  0  0  0  0  0  0  0
   17.6396   -8.4330    7.4833 C   0  0  0  0  0  0  0  0  0  0  0  0
   15.1007   -7.8306   17.3549 N   0  0  0  0  0  0  0  0  0  0  0  0
   15.2025   -8.1129   18.6120 C   0  0  0  0  0  0  0  0  0  0  0  0
   14.6403   -7.2329   19.6416 C   0  0  0  0  0  0  0  0  0  0  0  0
   13.4689   -6.4979   19.4114 C   0  0  0  0  0  0  0  0  0  0  0  0
   12.9442   -5.6597   20.4089 C   0  0  0  0  0  0  0  0  0  0  0  0
   13.6050   -5.5639   21.6421 C   0  0  0  0  0  0  0  0  0  0  0  0
   14.7732   -6.2965   21.8721 C   0  0  0  0  0  0  0  0  0  0  0  0
   15.2889   -7.1281   20.8749 C   0  0  0  0  0  0  0  0  0  0  0  0
   13.1042   -4.7410   22.6432 O   0  0  0  0  0  0  0  0  0  0  0  0
   12.3217   -4.2471   22.4960 H   0  0  0  0  0  0  0  0  0  0  0  0
   11.7765   -4.9190   20.1968 O   0  0  0  0  0  0  0  0  0  0  0  0
   11.3119   -4.5714   18.8995 C   0  0  0  0  0  0  0  0  0  0  0  0
 12 13  2  0  0  0
 13 14  1  0  0  0
 14 15  2  0  0  0
 15 16  1  0  0  0
 16 17  2  0  0  0
 13 10  1  0  0  0
 10  5  1  0  0  0
  5  6  2  0  0  0
  6  7  1  0  0  0
  7  8  2  0  0  0
  8  9  1  0  0  0
  7  1  1  0  0  0
  1  2  2  0  0  0
  1  3  1  0  0  0
  3 18  1  0  0  0
 18 19  2  0  0  0
 19 20  1  0  0  0
 20 21  2  0  0  0
 21 22  1  0  0  0
 22 23  2  0  0  0
 23 24  1  0  0  0
 24 25  2  0  0  0
 23 26  1  0  0  0
 22 28  1  0  0  0
 28 29  1  0  0  0
 17 12  1  0  0  0
  9  5  1  0  0  0
 25 20  1  0  0  0
 10 11  1  0  0  0
  3  4  1  0  0  0
 26 27  1  0  0  0
M  END
>  <minimizedAffinity>
-9.04127

>  <minimizedRMSD>
1.55571

$$$$
CHEMBL3670641 PubChem-71226268


 34 39  0  0  0  0  0  0  0  0999 V2000
   15.5601   -7.8922   16.6890 O   0  0  0  0  0  0  0  0  0  0  0  0
   11.7430   -6.4198   19.3747 C   0  0  0  0  0  0  0  0  0  0  0  0
   13.1602   -6.8797   19.3113 C   0  0  0  0  0  0  0  0  0  0  0  0
   13.7156   -7.1743   18.0621 C   0  0  0  0  0  0  0  0  0  0  0  0
   15.0407   -7.6068   17.9558 C   0  0  0  0  0  0  0  0  0  0  0  0
   15.8167   -7.7419   19.1172 C   0  0  0  0  0  0  0  0  0  0  0  0
   15.2684   -7.4497   20.3680 C   0  0  0  0  0  0  0  0  0  0  0  0
   13.9403   -7.0238   20.4744 C   0  0  0  0  0  0  0  0  0  0  0  0
   13.3947   -6.6985   21.8277 C   0  0  0  0  0  0  0  0  0  0  0  0
   14.4036   -6.0079   22.6201 N   0  0  0  0  0  0  0  0  0  0  0  0
   13.8334   -4.7237   23.0233 C   0  0  0  0  0  0  0  0  0  0  0  0
   13.7001   -5.1549   24.4589 C   0  0  0  0  0  0  0  0  0  0  0  0
   12.3099   -5.2004   24.9892 C   0  0  0  0  0  0  0  0  0  0  0  0
   12.4801   -4.5750   26.3572 C   0  0  0  0  0  0  0  0  0  0  0  0
   13.6531   -3.7929   26.3674 O   0  0  0  0  0  0  0  0  0  0  0  0
   14.5331   -4.3894   25.4472 C   0  0  0  0  0  0  0  0  0  0  0  0
   14.2728   -6.4690   24.0024 C   0  0  0  0  0  0  0  0  0  0  0  0
   15.9179   -9.2062   16.2762 C   0  0  0  0  0  0  0  0  0  0  0  0
   16.7780   -9.1246   15.0658 C   0  0  0  0  0  0  0  0  0  0  0  0
   15.7699   -9.6206   14.1178 N   0  0  0  0  0  0  0  0  0  0  0  0
   14.9120   -9.7208   15.3060 C   0  0  0  0  0  0  0  0  0  0  0  0
   15.6571   -9.8873   12.7204 C   0  0  0  0  0  0  0  0  0  0  0  0
   14.5739  -10.3335   12.2591 O   0  0  0  0  0  0  0  0  0  0  0  0
   16.7866   -9.6476   11.8147 C   0  0  0  0  0  0  0  0  0  0  0  0
   16.6646   -9.2176   10.5817 O   0  0  0  0  0  0  0  0  0  0  0  0
   17.8933   -9.1388   10.1281 C   0  0  0  0  0  0  0  0  0  0  0  0
   18.7841   -9.5160   11.0664 N   0  0  0  0  0  0  0  0  0  0  0  0
   18.0794   -9.8396   12.1394 N   0  0  0  0  0  0  0  0  0  0  0  0
   18.2515   -8.6971    8.7735 C   0  0  0  0  0  0  0  0  0  0  0  0
   19.1517   -7.6390    8.5861 C   0  0  0  0  0  0  0  0  0  0  0  0
   19.4896   -7.2220    7.2951 C   0  0  0  0  0  0  0  0  0  0  0  0
   18.9293   -7.8606    6.1852 C   0  0  0  0  0  0  0  0  0  0  0  0
   18.0311   -8.9163    6.3659 C   0  0  0  0  0  0  0  0  0  0  0  0
   17.6931   -9.3334    7.6569 C   0  0  0  0  0  0  0  0  0  0  0  0
  2  3  1  0  0  0
  3  4  2  0  0  0
  4  5  1  0  0  0
  5  1  1  0  0  0
  1 18  1  0  0  0
 18 19  1  0  0  0
 19 20  1  0  0  0
 20 21  1  0  0  0
 20 22  1  0  0  0
 22 23  2  0  0  0
 22 24  1  0  0  0
 24 25  1  0  0  0
 25 26  1  0  0  0
 26 27  2  0  0  0
 27 28  1  0  0  0
 26 29  1  0  0  0
 29 30  2  0  0  0
 30 31  1  0  0  0
 31 32  2  0  0  0
 32 33  1  0  0  0
 33 34  2  0  0  0
  5  6  2  0  0  0
  6  7  1  0  0  0
  7  8  2  0  0  0
  8  9  1  0  0  0
  9 10  1  0  0  0
 10 11  1  0  0  0
 11 12  1  0  0  0
 12 13  1  0  0  0
 13 14  1  0  0  0
 14 15  1  0  0  0
 15 16  1  0  0  0
 12 17  1  0  0  0
  8  3  1  0  0  0
 17 10  1  0  0  0
 21 18  1  0  0  0
 28 24  2  0  0  0
 34 29  1  0  0  0
 16 12  1  0  0  0
M  END
>  <minimizedAffinity>
-9.03240

>  <minimizedRMSD>
1.64425

$$$$
CHEMBL4162815 PubChem-145957514


 27 31  0  0  0  0  0  0  0  0999 V2000
   15.4162   -8.1238   15.8170 N   0  0  0  0  0  0  0  0  0  0  0  0
   15.6439   -8.5153   17.1069 C   0  0  0  0  0  0  0  0  0  0  0  0
   16.5690   -9.5462   17.3806 C   0  0  0  0  0  0  0  0  0  0  0  0
   17.2431  -10.1547   16.3140 C   0  0  0  0  0  0  0  0  0  0  0  0
   16.9675   -9.7159   15.0643 N   0  0  0  0  0  0  0  0  0  0  0  0
   16.0895   -8.7385   14.8143 C   0  0  0  0  0  0  0  0  0  0  0  0
   15.9609   -8.4522   13.5081 N   0  0  0  0  0  0  0  0  0  0  0  0
   16.8272   -9.3236   12.9298 C   0  0  0  0  0  0  0  0  0  0  0  0
   17.4616  -10.1172   13.8857 C   0  0  0  0  0  0  0  0  0  0  0  0
   14.9224   -7.8593   18.2057 C   0  0  0  0  0  0  0  0  0  0  0  0
   15.2104   -8.0607   19.5204 N   0  0  0  0  0  0  0  0  0  0  0  0
   14.3024   -7.2623   20.1111 C   0  0  0  0  0  0  0  0  0  0  0  0
   13.5314   -6.6328   19.2212 N   0  0  0  0  0  0  0  0  0  0  0  0
   13.9005   -6.9908   18.0074 N   0  0  0  0  0  0  0  0  0  0  0  0
   12.5422   -5.7731   19.5748 C   0  0  0  0  0  0  0  0  0  0  0  0
   12.3372   -5.5501   20.9446 C   0  0  0  0  0  0  0  0  0  0  0  0
   13.1258   -6.1941   21.8600 N   0  0  0  0  0  0  0  0  0  0  0  0
   14.1145   -7.0542   21.4765 C   0  0  0  0  0  0  0  0  0  0  0  0
   14.9551   -7.7390   22.4967 C   0  0  0  0  0  0  0  0  0  0  0  0
   11.7001   -5.0870   18.5556 C   0  0  0  0  0  0  0  0  0  0  0  0
   17.0512   -9.4018   11.4760 C   0  0  0  0  0  0  0  0  0  0  0  0
   18.2562   -8.9539   10.9142 C   0  0  0  0  0  0  0  0  0  0  0  0
   18.4636   -9.0303    9.5340 C   0  0  0  0  0  0  0  0  0  0  0  0
   17.4676   -9.5550    8.7061 C   0  0  0  0  0  0  0  0  0  0  0  0
   16.2645  -10.0033    9.2576 C   0  0  0  0  0  0  0  0  0  0  0  0
   16.0570   -9.9268   10.6380 C   0  0  0  0  0  0  0  0  0  0  0  0
   17.7501   -9.6592    6.8248 Br  0  0  0  0  0  0  0  0  0  0  0  0
  1  2  2  0  0  0
  2  3  1  0  0  0
  3  4  2  0  0  0
  4  5  1  0  0  0
  5  6  1  0  0  0
  6  7  2  0  0  0
  7  8  1  0  0  0
  8  9  2  0  0  0
  8 21  1  0  0  0
 21 22  2  0  0  0
 22 23  1  0  0  0
 23 24  2  0  0  0
 24 25  1  0  0  0
 25 26  2  0  0  0
 24 27  1  0  0  0
  2 10  1  0  0  0
 10 11  1  0  0  0
 11 12  2  0  0  0
 12 13  1  0  0  0
 13 14  1  0  0  0
 13 15  1  0  0  0
 15 16  2  0  0  0
 16 17  1  0  0  0
 17 18  2  0  0  0
 18 19  1  0  0  0
 15 20  1  0  0  0
  6  1  1  0  0  0
 26 21  1  0  0  0
 14 10  2  0  0  0
  9  5  1  0  0  0
 18 12  1  0  0  0
M  END
>  <minimizedAffinity>
-9.01510

>  <minimizedRMSD>
1.65747

$$$$
CHEMBL3673715 PubChem-68284285


 36 39  0  0  0  0  0  0  0  0999 V2000
   18.4946  -10.3831   16.1974 C   0  0  0  0  0  0  0  0  0  0  0  0
   17.7773   -9.5888   17.2758 C   0  0  0  0  0  0  0  0  0  0  0  0
   16.5930   -9.0465   16.6449 N   0  0  0  0  0  0  0  0  0  0  0  0
   16.4121   -9.5041   15.2799 C   0  0  0  0  0  0  0  0  0  0  0  0
   17.5204  -10.5117   15.0288 C   0  0  0  0  0  0  0  0  0  0  0  0
   16.9742  -11.7948   15.0241 O   0  0  0  0  0  0  0  0  0  0  0  0
   15.6206   -8.2642   17.3498 C   0  0  0  0  0  0  0  0  0  0  0  0
   14.5793   -7.8782   16.7546 O   0  0  0  0  0  0  0  0  0  0  0  0
   15.8711   -7.8667   18.7029 N   0  0  0  0  0  0  0  0  0  0  0  0
   16.5297  -11.9601   15.8703 H   0  0  0  0  0  0  0  0  0  0  0  0
   16.7792   -8.0172   19.0520 H   0  0  0  0  0  0  0  0  0  0  0  0
   14.9208   -7.2695   19.5961 C   0  0  0  0  0  0  0  0  0  0  0  0
   15.1288   -7.0919   20.9580 C   0  0  0  0  0  0  0  0  0  0  0  0
   14.0146   -6.5465   21.5094 N   0  0  0  0  0  0  0  0  0  0  0  0
   13.1100   -6.4043   20.5140 C   0  0  0  0  0  0  0  0  0  0  0  0
   11.7999   -5.9225   20.6017 C   0  0  0  0  0  0  0  0  0  0  0  0
   11.0206   -5.9134   19.4318 C   0  0  0  0  0  0  0  0  0  0  0  0
   11.5504   -6.3955   18.2173 C   0  0  0  0  0  0  0  0  0  0  0  0
   12.8677   -6.8814   18.1563 C   0  0  0  0  0  0  0  0  0  0  0  0
   13.6289   -6.8520   19.3248 C   0  0  0  0  0  0  0  0  0  0  0  0
   13.8609   -6.2274   22.9013 C   0  0  0  0  0  0  0  0  0  0  0  0
   14.7842   -6.4993   23.7177 O   0  0  0  0  0  0  0  0  0  0  0  0
   12.6739   -5.5985   23.3797 N   0  0  0  0  0  0  0  0  0  0  0  0
   11.9458   -5.3807   22.7539 H   0  0  0  0  0  0  0  0  0  0  0  0
   12.5826   -5.3821   24.3358 H   0  0  0  0  0  0  0  0  0  0  0  0
   16.5146   -8.3574   14.3166 C   0  0  0  0  0  0  0  0  0  0  0  0
   16.6383   -7.1813   14.7504 O   0  0  0  0  0  0  0  0  0  0  0  0
   16.4494   -8.5764   12.9036 N   0  0  0  0  0  0  0  0  0  0  0  0
   16.5097   -7.7943   12.3085 H   0  0  0  0  0  0  0  0  0  0  0  0
   16.2985   -9.8932   12.2968 C   0  0  0  0  0  0  0  0  0  0  0  0
   16.5350   -9.8251   10.8262 C   0  0  0  0  0  0  0  0  0  0  0  0
   15.6653  -10.3116    9.8546 C   0  0  0  0  0  0  0  0  0  0  0  0
   16.0955  -10.1058    8.5806 N   0  0  0  0  0  0  0  0  0  0  0  0
   17.2868   -9.4621    8.5392 C   0  0  0  0  0  0  0  0  0  0  0  0
   17.8711   -9.1174   10.0795 S   0  0  0  0  0  0  0  0  0  0  0  0
   18.1114   -9.0433    7.0500 Cl  0  0  0  0  0  0  0  0  0  0  0  0
  1  2  1  0  0  0
  2  3  1  0  0  0
  3  4  1  0  0  0
  3  7  1  0  0  0
  4  5  1  0  0  0
  4 26  1  0  0  0
  5  6  1  0  0  0
  5  1  1  0  0  0
 26 27  2  0  0  0
 26 28  1  0  0  0
 28 30  1  0  0  0
 30 31  1  0  0  0
 31 32  2  0  0  0
 32 33  1  0  0  0
 33 34  2  0  0  0
 34 35  1  0  0  0
 34 36  1  0  0  0
 35 31  1  0  0  0
  7  8  2  0  0  0
  7  9  1  0  0  0
  9 12  1  0  0  0
 12 13  2  0  0  0
 13 14  1  0  0  0
 14 15  1  0  0  0
 14 21  1  0  0  0
 15 16  2  0  0  0
 16 17  1  0  0  0
 17 18  2  0  0  0
 18 19  1  0  0  0
 19 20  2  0  0  0
 20 12  1  0  0  0
 20 15  1  0  0  0
 21 22  2  0  0  0
 21 23  1  0  0  0
  6 10  1  0  0  0
 28 29  1  0  0  0
  9 11  1  0  0  0
 23 24  1  0  0  0
 23 25  1  0  0  0
M  END
>  <minimizedAffinity>
-9.01206

>  <minimizedRMSD>
1.97387

$$$$
CHEMBL4578484 PubChem-155564755


 34 37  0  0  0  0  0  0  0  0999 V2000
   15.5578   -8.4446   16.9540 C   0  0  0  0  0  0  0  0  0  0  0  0
   16.6328   -9.2771   17.0173 N   0  0  0  0  0  0  0  0  0  0  0  0
   16.8247   -9.5572   15.7166 C   0  0  0  0  0  0  0  0  0  0  0  0
   17.8099  -10.3798   15.1807 C   0  0  0  0  0  0  0  0  0  0  0  0
   17.8247  -10.5312   13.7844 C   0  0  0  0  0  0  0  0  0  0  0  0
   16.8739   -9.8706   12.9721 C   0  0  0  0  0  0  0  0  0  0  0  0
   15.9083   -9.0558   13.5841 C   0  0  0  0  0  0  0  0  0  0  0  0
   15.9341   -8.9407   14.9341 N   0  0  0  0  0  0  0  0  0  0  0  0
   15.1209   -8.2306   15.6878 N   0  0  0  0  0  0  0  0  0  0  0  0
   13.0610   -6.6603   19.1683 C   0  0  0  0  0  0  0  0  0  0  0  0
   13.6726   -7.2439   18.0473 C   0  0  0  0  0  0  0  0  0  0  0  0
   14.9326   -7.8379   18.1396 C   0  0  0  0  0  0  0  0  0  0  0  0
   15.5926   -7.8500   19.3693 C   0  0  0  0  0  0  0  0  0  0  0  0
   15.0054   -7.2746   20.5052 C   0  0  0  0  0  0  0  0  0  0  0  0
   13.7369   -6.6757   20.4152 C   0  0  0  0  0  0  0  0  0  0  0  0
   11.5998   -4.7522   18.5555 C   0  0  0  0  0  0  0  0  0  0  0  0
   11.7969   -6.0712   19.0479 O   0  0  0  0  0  0  0  0  0  0  0  0
   15.6662   -7.2859   21.7390 O   0  0  0  0  0  0  0  0  0  0  0  0
   16.7899   -6.4619   22.0194 C   0  0  0  0  0  0  0  0  0  0  0  0
   13.2036   -6.1170   21.5893 O   0  0  0  0  0  0  0  0  0  0  0  0
   13.2992   -4.7489   21.9588 C   0  0  0  0  0  0  0  0  0  0  0  0
   16.8637  -10.0058   11.5444 N   0  0  0  0  0  0  0  0  0  0  0  0
   17.6388   -9.2505   10.6050 C   0  0  0  0  0  0  0  0  0  0  0  0
   18.4348   -8.3565   10.9999 O   0  0  0  0  0  0  0  0  0  0  0  0
   17.4905   -9.5321    9.2075 N   0  0  0  0  0  0  0  0  0  0  0  0
   16.2612  -10.6888   11.1706 H   0  0  0  0  0  0  0  0  0  0  0  0
   16.8524  -10.2421    8.9669 H   0  0  0  0  0  0  0  0  0  0  0  0
   18.1733   -8.8890    8.1224 C   0  0  0  0  0  0  0  0  0  0  0  0
   17.9279   -9.3303    6.8172 C   0  0  0  0  0  0  0  0  0  0  0  0
   18.5743   -8.7286    5.7330 C   0  0  0  0  0  0  0  0  0  0  0  0
   19.4719   -7.6797    5.9490 C   0  0  0  0  0  0  0  0  0  0  0  0
   20.1590   -7.0401    4.7971 C   0  0  0  0  0  0  0  0  0  0  0  0
   19.7232   -7.2325    7.2488 C   0  0  0  0  0  0  0  0  0  0  0  0
   19.0763   -7.8349    8.3318 C   0  0  0  0  0  0  0  0  0  0  0  0
 16 17  1  0  0  0
 17 10  1  0  0  0
 10 11  2  0  0  0
 11 12  1  0  0  0
 12 13  2  0  0  0
 13 14  1  0  0  0
 14 18  1  0  0  0
 18 19  1  0  0  0
 14 15  2  0  0  0
 15 20  1  0  0  0
 20 21  1  0  0  0
 12  1  1  0  0  0
  1  2  1  0  0  0
  2  3  2  0  0  0
  3  4  1  0  0  0
  4  5  2  0  0  0
  5  6  1  0  0  0
  6 22  1  0  0  0
 22 23  1  0  0  0
 23 24  2  0  0  0
 23 25  1  0  0  0
 25 28  1  0  0  0
 28 29  2  0  0  0
 29 30  1  0  0  0
 30 31  2  0  0  0
 31 32  1  0  0  0
 31 33  1  0  0  0
 33 34  2  0  0  0
  6  7  2  0  0  0
  7  8  1  0  0  0
  8  9  1  0  0  0
 15 10  1  0  0  0
  9  1  2  0  0  0
  8  3  1  0  0  0
 34 28  1  0  0  0
 22 26  1  0  0  0
 25 27  1  0  0  0
M  END
>  <minimizedAffinity>
-9.00600

>  <minimizedRMSD>
1.67799

$$$$
CHEMBL2031081 PubChem-44463578


 36 38  0  0  0  0  0  0  0  0999 V2000
   17.0602   -8.7269   16.7382 C   0  0  0  0  0  0  0  0  0  0  0  0
   18.6921   -8.6560   16.8679 S   0  0  0  0  0  0  0  0  0  0  0  0
   14.9977   -7.7157   17.8481 C   0  0  0  0  0  0  0  0  0  0  0  0
   14.4309   -7.4740   16.7475 O   0  0  0  0  0  0  0  0  0  0  0  0
   16.2821   -8.3535   17.8805 N   0  0  0  0  0  0  0  0  0  0  0  0
   16.6622   -8.5521   18.7666 H   0  0  0  0  0  0  0  0  0  0  0  0
   12.5172   -6.2390   20.2946 C   0  0  0  0  0  0  0  0  0  0  0  0
   13.1571   -6.5933   19.0983 C   0  0  0  0  0  0  0  0  0  0  0  0
   14.3321   -7.3483   19.1102 C   0  0  0  0  0  0  0  0  0  0  0  0
   14.8689   -7.7504   20.3354 C   0  0  0  0  0  0  0  0  0  0  0  0
   14.2494   -7.4099   21.5483 C   0  0  0  0  0  0  0  0  0  0  0  0
   13.0563   -6.6431   21.5280 C   0  0  0  0  0  0  0  0  0  0  0  0
   11.0510   -4.5213   19.2760 C   0  0  0  0  0  0  0  0  0  0  0  0
   11.3396   -5.4823   20.2825 O   0  0  0  0  0  0  0  0  0  0  0  0
   14.8102   -7.8270   22.7612 O   0  0  0  0  0  0  0  0  0  0  0  0
   15.8128   -7.0880   23.4465 C   0  0  0  0  0  0  0  0  0  0  0  0
   12.3677   -6.2559   22.6901 O   0  0  0  0  0  0  0  0  0  0  0  0
   12.6571   -5.1003   23.4636 C   0  0  0  0  0  0  0  0  0  0  0  0
   16.4203   -8.9555   15.4714 N   0  0  0  0  0  0  0  0  0  0  0  0
   15.4816   -8.6666   15.4033 H   0  0  0  0  0  0  0  0  0  0  0  0
   16.9819   -9.5530   14.2946 C   0  0  0  0  0  0  0  0  0  0  0  0
   18.2206  -10.2104   14.3149 C   0  0  0  0  0  0  0  0  0  0  0  0
   18.7161  -10.8199   13.1597 C   0  0  0  0  0  0  0  0  0  0  0  0
   17.9728  -10.7810   11.9780 C   0  0  0  0  0  0  0  0  0  0  0  0
   16.7332  -10.1254   11.9443 C   0  0  0  0  0  0  0  0  0  0  0  0
   16.2375   -9.5328   13.1102 C   0  0  0  0  0  0  0  0  0  0  0  0
   15.9298  -10.1070   10.7583 N   0  0  0  0  0  0  0  0  0  0  0  0
   16.4196  -10.0033    9.4141 C   0  0  0  0  0  0  0  0  0  0  0  0
   15.8358  -10.6562    8.5084 O   0  0  0  0  0  0  0  0  0  0  0  0
   14.9545  -10.1713   10.8764 H   0  0  0  0  0  0  0  0  0  0  0  0
   17.5416   -9.1105    9.0537 C   0  0  0  0  0  0  0  0  0  0  0  0
   18.5278   -8.7797    9.9922 C   0  0  0  0  0  0  0  0  0  0  0  0
   19.5609   -7.9120    9.6322 C   0  0  0  0  0  0  0  0  0  0  0  0
   19.6027   -7.3845    8.3797 N   0  0  0  0  0  0  0  0  0  0  0  0
   18.6517   -7.6778    7.4530 C   0  0  0  0  0  0  0  0  0  0  0  0
   17.6029   -8.5419    7.7751 C   0  0  0  0  0  0  0  0  0  0  0  0
 13 14  1  0  0  0
 14  7  1  0  0  0
  7  8  2  0  0  0
  8  9  1  0  0  0
  9  3  1  0  0  0
  9 10  2  0  0  0
  3  4  2  0  0  0
  3  5  1  0  0  0
  5  1  1  0  0  0
  1  2  2  0  0  0
  1 19  1  0  0  0
 19 21  1  0  0  0
 21 22  2  0  0  0
 22 23  1  0  0  0
 23 24  2  0  0  0
 24 25  1  0  0  0
 25 27  1  0  0  0
 25 26  2  0  0  0
 27 28  1  0  0  0
 28 29  2  0  0  0
 28 31  1  0  0  0
 31 32  2  0  0  0
 32 33  1  0  0  0
 33 34  2  0  0  0
 34 35  1  0  0  0
 35 36  2  0  0  0
 36 31  1  0  0  0
 26 21  1  0  0  0
 10 11  1  0  0  0
 11 15  1  0  0  0
 11 12  2  0  0  0
 15 16  1  0  0  0
 12 17  1  0  0  0
 12  7  1  0  0  0
 17 18  1  0  0  0
  5  6  1  0  0  0
 19 20  1  0  0  0
 27 30  1  0  0  0
M  END
>  <minimizedAffinity>
-9.00327

>  <minimizedRMSD>
1.32278

$$$$
CHEMBL4877619 PubChem-164626603


 35 37  0  0  0  0  0  0  0  0999 V2000
   17.4180   -9.9370   14.6586 C   0  0  0  0  0  0  0  0  0  0  0  0
   16.6807   -8.7448   14.5995 C   0  0  0  0  0  0  0  0  0  0  0  0
   16.1624   -8.1747   15.7650 C   0  0  0  0  0  0  0  0  0  0  0  0
   16.3730   -8.7875   17.0086 C   0  0  0  0  0  0  0  0  0  0  0  0
   17.1075   -9.9757   17.0690 C   0  0  0  0  0  0  0  0  0  0  0  0
   17.6267  -10.5471   15.9038 C   0  0  0  0  0  0  0  0  0  0  0  0
   15.8572   -8.2331   18.2263 N   0  0  0  0  0  0  0  0  0  0  0  0
   14.6169   -7.5293   18.3959 C   0  0  0  0  0  0  0  0  0  0  0  0
   13.8468   -7.3402   17.4151 O   0  0  0  0  0  0  0  0  0  0  0  0
   16.4122   -8.3470   19.0315 H   0  0  0  0  0  0  0  0  0  0  0  0
   14.2411   -7.0238   19.7279 C   0  0  0  0  0  0  0  0  0  0  0  0
   13.0226   -6.3672   19.9194 C   0  0  0  0  0  0  0  0  0  0  0  0
   12.6494   -5.8795   21.1820 C   0  0  0  0  0  0  0  0  0  0  0  0
   13.5264   -6.0572   22.2825 C   0  0  0  0  0  0  0  0  0  0  0  0
   14.7515   -6.7178   22.0884 C   0  0  0  0  0  0  0  0  0  0  0  0
   15.0986   -7.1946   20.8163 C   0  0  0  0  0  0  0  0  0  0  0  0
   15.6118   -6.8894   23.1791 O   0  0  0  0  0  0  0  0  0  0  0  0
   16.9776   -6.4967   23.1529 C   0  0  0  0  0  0  0  0  0  0  0  0
   13.2375   -5.6034   23.5808 O   0  0  0  0  0  0  0  0  0  0  0  0
   13.4675   -4.2843   24.0544 C   0  0  0  0  0  0  0  0  0  0  0  0
   11.4224   -5.2256   21.3445 O   0  0  0  0  0  0  0  0  0  0  0  0
   10.5214   -4.9896   20.2705 C   0  0  0  0  0  0  0  0  0  0  0  0
   17.9694  -10.5465   13.4318 C   0  0  0  0  0  0  0  0  0  0  0  0
   18.8145  -11.4798   13.5210 O   0  0  0  0  0  0  0  0  0  0  0  0
   18.4104   -9.7772   11.1453 C   0  0  0  0  0  0  0  0  0  0  0  0
   17.5402  -10.0732   12.1064 C   0  0  0  0  0  0  0  0  0  0  0  0
   17.2725   -7.7987    5.8829 C   0  0  0  0  0  0  0  0  0  0  0  0
   17.5615   -8.3162    7.2514 C   0  0  0  0  0  0  0  0  0  0  0  0
   18.7852   -8.0714    7.8875 C   0  0  0  0  0  0  0  0  0  0  0  0
   18.9930   -8.5675    9.1341 N   0  0  0  0  0  0  0  0  0  0  0  0
   18.0535   -9.2975    9.7929 C   0  0  0  0  0  0  0  0  0  0  0  0
   16.8170   -9.5428    9.1455 C   0  0  0  0  0  0  0  0  0  0  0  0
   16.6151   -9.0434    7.8977 N   0  0  0  0  0  0  0  0  0  0  0  0
   15.7122  -10.3289    9.7669 C   0  0  0  0  0  0  0  0  0  0  0  0
   19.8649   -7.2797    7.2306 C   0  0  0  0  0  0  0  0  0  0  0  0
 27 28  1  0  0  0
 28 29  2  0  0  0
 29 30  1  0  0  0
 30 31  2  0  0  0
 31 32  1  0  0  0
 32 33  2  0  0  0
 32 34  1  0  0  0
 31 25  1  0  0  0
 25 26  2  0  0  0
 26 23  1  0  0  0
 23 24  2  0  0  0
 23  1  1  0  0  0
  1  2  2  0  0  0
  2  3  1  0  0  0
  3  4  2  0  0  0
  4  5  1  0  0  0
  5  6  2  0  0  0
  4  7  1  0  0  0
  7  8  1  0  0  0
  8  9  2  0  0  0
  8 11  1  0  0  0
 11 12  2  0  0  0
 12 13  1  0  0  0
 13 14  2  0  0  0
 14 15  1  0  0  0
 15 16  2  0  0  0
 15 17  1  0  0  0
 17 18  1  0  0  0
 14 19  1  0  0  0
 19 20  1  0  0  0
 13 21  1  0  0  0
 21 22  1  0  0  0
 29 35  1  0  0  0
 33 28  1  0  0  0
  6  1  1  0  0  0
 16 11  1  0  0  0
  7 10  1  0  0  0
M  END
>  <minimizedAffinity>
-8.99546

>  <minimizedRMSD>
1.77568

$$$$
CHEMBL3112930 PubChem-76324927


 27 30  0  0  0  0  0  0  0  0999 V2000
   16.1893   -8.6000   15.1960 C   0  0  0  0  0  0  0  0  0  0  0  0
   16.8902   -9.4391   15.9827 N   0  0  0  0  0  0  0  0  0  0  0  0
   16.4503   -9.2106   17.1822 O   0  0  0  0  0  0  0  0  0  0  0  0
   15.5284   -8.2787   17.1453 C   0  0  0  0  0  0  0  0  0  0  0  0
   15.3157   -7.8414   15.8878 N   0  0  0  0  0  0  0  0  0  0  0  0
   14.8164   -7.7735   18.3271 C   0  0  0  0  0  0  0  0  0  0  0  0
   13.4688   -7.3980   18.2359 C   0  0  0  0  0  0  0  0  0  0  0  0
   12.7826   -6.9076   19.3597 C   0  0  0  0  0  0  0  0  0  0  0  0
   13.4631   -6.7936   20.5786 C   0  0  0  0  0  0  0  0  0  0  0  0
   14.8034   -7.1942   20.6793 C   0  0  0  0  0  0  0  0  0  0  0  0
   15.4808   -7.6707   19.5553 C   0  0  0  0  0  0  0  0  0  0  0  0
   15.4483   -7.1099   21.9165 O   0  0  0  0  0  0  0  0  0  0  0  0
   14.7039   -6.9000   23.1181 C   0  0  0  0  0  0  0  0  0  0  0  0
   13.5728   -5.9008   22.8698 C   0  0  0  0  0  0  0  0  0  0  0  0
   12.8244   -6.2811   21.7131 O   0  0  0  0  0  0  0  0  0  0  0  0
   11.4398   -6.5236   19.2844 O   0  0  0  0  0  0  0  0  0  0  0  0
   10.4616   -7.2833   18.5878 C   0  0  0  0  0  0  0  0  0  0  0  0
   16.3705   -8.5020   13.7213 C   0  0  0  0  0  0  0  0  0  0  0  0
   16.8942   -9.8170   13.1709 C   0  0  0  0  0  0  0  0  0  0  0  0
   17.0197   -9.6366    8.8820 C   0  0  0  0  0  0  0  0  0  0  0  0
   15.8595  -10.0633    9.5371 C   0  0  0  0  0  0  0  0  0  0  0  0
   15.8193  -10.1267   10.9331 C   0  0  0  0  0  0  0  0  0  0  0  0
   16.9433   -9.7666   11.6838 C   0  0  0  0  0  0  0  0  0  0  0  0
   18.1048   -9.3336   11.0357 C   0  0  0  0  0  0  0  0  0  0  0  0
   18.1445   -9.2702    9.6400 C   0  0  0  0  0  0  0  0  0  0  0  0
   17.9690   -8.8136    6.7514 C   0  0  0  0  0  0  0  0  0  0  0  0
   17.0281   -9.5852    7.4855 O   0  0  0  0  0  0  0  0  0  0  0  0
 26 27  1  0  0  0
 27 20  1  0  0  0
 20 21  2  0  0  0
 21 22  1  0  0  0
 22 23  2  0  0  0
 23 19  1  0  0  0
 23 24  1  0  0  0
 19 18  1  0  0  0
 18  1  1  0  0  0
  1  2  2  0  0  0
  2  3  1  0  0  0
  3  4  1  0  0  0
  4  6  1  0  0  0
  4  5  2  0  0  0
  6  7  2  0  0  0
  7  8  1  0  0  0
  8 16  1  0  0  0
  8  9  2  0  0  0
 16 17  1  0  0  0
  9 10  1  0  0  0
 10 11  2  0  0  0
 10 12  1  0  0  0
 11  6  1  0  0  0
 12 13  1  0  0  0
 13 14  1  0  0  0
 14 15  1  0  0  0
 15  9  1  0  0  0
  5  1  1  0  0  0
 24 25  2  0  0  0
 25 20  1  0  0  0
M  END
>  <minimizedAffinity>
-8.98797

>  <minimizedRMSD>
1.43974

$$$$
CHEMBL1857938 PubChem-56682575


 29 31  0  0  0  0  0  0  0  0999 V2000
   15.5729   -8.3341   17.1342 C   0  0  0  0  0  0  0  0  0  0  0  0
   15.3444   -7.9329   15.8679 N   0  0  0  0  0  0  0  0  0  0  0  0
   16.2092   -8.6842   15.1629 C   0  0  0  0  0  0  0  0  0  0  0  0
   16.9366   -9.5068   15.9976 C   0  0  0  0  0  0  0  0  0  0  0  0
   16.5068   -9.2564   17.2116 O   0  0  0  0  0  0  0  0  0  0  0  0
   14.8246   -7.2017   20.6637 C   0  0  0  0  0  0  0  0  0  0  0  0
   15.4927   -7.7110   19.5380 C   0  0  0  0  0  0  0  0  0  0  0  0
   14.8542   -7.8005   18.3003 C   0  0  0  0  0  0  0  0  0  0  0  0
   13.5282   -7.3827   18.1837 C   0  0  0  0  0  0  0  0  0  0  0  0
   12.8340   -6.8791   19.2932 C   0  0  0  0  0  0  0  0  0  0  0  0
   13.4757   -6.7793   20.5392 C   0  0  0  0  0  0  0  0  0  0  0  0
   16.7374   -6.4711   22.0614 C   0  0  0  0  0  0  0  0  0  0  0  0
   15.4864   -7.1223   21.8944 O   0  0  0  0  0  0  0  0  0  0  0  0
   11.4984   -6.4739   19.1827 O   0  0  0  0  0  0  0  0  0  0  0  0
   10.4958   -7.2789   18.5766 C   0  0  0  0  0  0  0  0  0  0  0  0
   12.7259   -6.2614   21.6095 O   0  0  0  0  0  0  0  0  0  0  0  0
   12.7849   -4.9206   22.0737 C   0  0  0  0  0  0  0  0  0  0  0  0
   16.3547   -8.6029   13.6833 C   0  0  0  0  0  0  0  0  0  0  0  0
   16.3093   -9.9375   13.1108 N   0  0  0  0  0  0  0  0  0  0  0  0
   15.4103  -10.3756   13.3117 H   0  0  0  0  0  0  0  0  0  0  0  0
   16.4812   -9.7836   11.6787 C   0  0  0  0  0  0  0  0  0  0  0  0
   17.9484   -9.5423   11.3712 C   0  0  0  0  0  0  0  0  0  0  0  0
   18.1238   -9.0993    9.9584 C   0  0  0  0  0  0  0  0  0  0  0  0
   17.3625   -9.6734    8.9315 C   0  0  0  0  0  0  0  0  0  0  0  0
   17.5459   -9.2597    7.6091 C   0  0  0  0  0  0  0  0  0  0  0  0
   18.4951   -8.2782    7.3085 C   0  0  0  0  0  0  0  0  0  0  0  0
   18.7007   -7.8505    5.9001 C   0  0  0  0  0  0  0  0  0  0  0  0
   19.2609   -7.7092    8.3307 C   0  0  0  0  0  0  0  0  0  0  0  0
   19.0763   -8.1200    9.6540 C   0  0  0  0  0  0  0  0  0  0  0  0
 12 13  1  0  0  0
 13  6  1  0  0  0
  6  7  2  0  0  0
  7  8  1  0  0  0
  8  1  1  0  0  0
  8  9  2  0  0  0
  1  2  2  0  0  0
  2  3  1  0  0  0
  3 18  1  0  0  0
  3  4  2  0  0  0
 18 19  1  0  0  0
 19 21  1  0  0  0
 21 22  1  0  0  0
 22 23  1  0  0  0
 23 24  2  0  0  0
 24 25  1  0  0  0
 25 26  2  0  0  0
 26 27  1  0  0  0
 26 28  1  0  0  0
 28 29  2  0  0  0
 29 23  1  0  0  0
  4  5  1  0  0  0
  5  1  1  0  0  0
  9 10  1  0  0  0
 10 14  1  0  0  0
 10 11  2  0  0  0
 14 15  1  0  0  0
 11 16  1  0  0  0
 11  6  1  0  0  0
 16 17  1  0  0  0
 19 20  1  0  0  0
M  END
>  <minimizedAffinity>
-8.98777

>  <minimizedRMSD>
1.37730

$$$$
CHEMBL3184780 PubChem-60202210


 38 41  0  0  0  0  0  0  0  0999 V2000
   17.4056  -10.3665   13.7278 N   0  0  0  0  0  0  0  0  0  0  0  0
   18.2431   -9.3109   14.3313 C   0  0  0  0  0  0  0  0  0  0  0  0
   19.6027   -9.8827   14.7754 C   0  0  0  0  0  0  0  0  0  0  0  0
   19.6756  -11.4090   14.6336 C   0  0  0  0  0  0  0  0  0  0  0  0
   18.4201  -12.0923   15.1921 C   0  0  0  0  0  0  0  0  0  0  0  0
   17.1185  -11.4110   14.7287 C   0  0  0  0  0  0  0  0  0  0  0  0
   16.3632  -10.8443   15.9423 C   0  0  0  0  0  0  0  0  0  0  0  0
   17.1260   -9.6763   16.5721 C   0  0  0  0  0  0  0  0  0  0  0  0
   17.5414   -8.6412   15.5238 C   0  0  0  0  0  0  0  0  0  0  0  0
   16.3395   -9.0542   17.6321 N   0  0  0  0  0  0  0  0  0  0  0  0
   15.3242   -8.0640   17.4148 C   0  0  0  0  0  0  0  0  0  0  0  0
   15.0603   -7.6748   16.2440 O   0  0  0  0  0  0  0  0  0  0  0  0
   16.5175   -9.3329   18.5594 H   0  0  0  0  0  0  0  0  0  0  0  0
   14.5887   -7.5010   18.5603 C   0  0  0  0  0  0  0  0  0  0  0  0
   13.3268   -6.9352   18.3816 C   0  0  0  0  0  0  0  0  0  0  0  0
   12.6122   -6.3944   19.4607 C   0  0  0  0  0  0  0  0  0  0  0  0
   13.1808   -6.4210   20.7625 C   0  0  0  0  0  0  0  0  0  0  0  0
   14.4667   -6.9992   20.9396 C   0  0  0  0  0  0  0  0  0  0  0  0
   15.1452   -7.5268   19.8386 C   0  0  0  0  0  0  0  0  0  0  0  0
   11.3471   -5.8351   19.2435 O   0  0  0  0  0  0  0  0  0  0  0  0
   11.1483   -4.4650   18.9196 C   0  0  0  0  0  0  0  0  0  0  0  0
   12.5159   -5.8948   21.8838 O   0  0  0  0  0  0  0  0  0  0  0  0
   12.6501   -4.5695   22.3774 C   0  0  0  0  0  0  0  0  0  0  0  0
   15.1253   -7.0817   22.1770 O   0  0  0  0  0  0  0  0  0  0  0  0
   16.3707   -6.4726   22.4862 C   0  0  0  0  0  0  0  0  0  0  0  0
   16.1646   -9.8130   13.1879 C   0  0  0  0  0  0  0  0  0  0  0  0
   17.4942   -9.1261   11.1583 N   0  0  0  0  0  0  0  0  0  0  0  0
   16.2800   -9.6482   11.7128 C   0  0  0  0  0  0  0  0  0  0  0  0
   15.2986   -9.9420   10.9802 O   0  0  0  0  0  0  0  0  0  0  0  0
   18.2134   -8.9107   11.7951 H   0  0  0  0  0  0  0  0  0  0  0  0
   18.2544   -8.4693    7.0320 C   0  0  0  0  0  0  0  0  0  0  0  0
   17.3107   -9.4137    7.4475 C   0  0  0  0  0  0  0  0  0  0  0  0
   17.0701   -9.6199    8.8091 C   0  0  0  0  0  0  0  0  0  0  0  0
   17.7697   -8.8850    9.7717 C   0  0  0  0  0  0  0  0  0  0  0  0
   18.7168   -7.9373    9.3563 C   0  0  0  0  0  0  0  0  0  0  0  0
   18.9584   -7.7299    7.9957 C   0  0  0  0  0  0  0  0  0  0  0  0
   19.7116   -7.8324    5.1374 C   0  0  0  0  0  0  0  0  0  0  0  0
   18.4721   -8.2865    5.6637 O   0  0  0  0  0  0  0  0  0  0  0  0
 37 38  1  0  0  0
 38 31  1  0  0  0
 31 32  2  0  0  0
 32 33  1  0  0  0
 33 34  2  0  0  0
 34 27  1  0  0  0
 34 35  1  0  0  0
 27 28  1  0  0  0
 28 29  2  0  0  0
 28 26  1  0  0  0
 26  1  1  0  0  0
  2  1  1  0  0  0
  2  3  1  0  0  0
  3  4  1  0  0  0
  4  5  1  0  0  0
  6  5  1  0  0  0
  6  7  1  0  0  0
  6  1  1  0  0  0
  7  8  1  0  0  0
  8 10  1  0  0  0
  8  9  1  0  0  0
 10 11  1  0  0  0
 11 12  2  0  0  0
 11 14  1  0  0  0
 14 15  2  0  0  0
 15 16  1  0  0  0
 16 20  1  0  0  0
 16 17  2  0  0  0
 20 21  1  0  0  0
 17 22  1  0  0  0
 17 18  1  0  0  0
 22 23  1  0  0  0
 18 24  1  0  0  0
 18 19  2  0  0  0
 24 25  1  0  0  0
 19 14  1  0  0  0
  9  2  1  0  0  0
 35 36  2  0  0  0
 36 31  1  0  0  0
 27 30  1  0  0  0
 10 13  1  0  0  0
M  END
>  <minimizedAffinity>
-8.97402

>  <minimizedRMSD>
1.49674

$$$$
CHEMBL472927


 37 40  0  0  0  0  0  0  0  0999 V2000
   16.7071  -10.0193   16.7140 C   0  0  0  0  0  0  0  0  0  0  0  0
   17.6489  -10.9955   17.0475 C   0  0  0  0  0  0  0  0  0  0  0  0
   18.2618  -11.7559   16.0496 C   0  0  0  0  0  0  0  0  0  0  0  0
   17.9518  -11.5396   14.7039 C   0  0  0  0  0  0  0  0  0  0  0  0
   18.5664  -12.4406   13.6878 C   0  0  0  0  0  0  0  0  0  0  0  0
   17.0216  -10.5363   14.3533 C   0  0  0  0  0  0  0  0  0  0  0  0
   16.3938   -9.8022   15.3649 C   0  0  0  0  0  0  0  0  0  0  0  0
   15.2927   -8.0817   17.6283 C   0  0  0  0  0  0  0  0  0  0  0  0
   15.0721   -7.5868   16.4893 O   0  0  0  0  0  0  0  0  0  0  0  0
   16.0884   -9.2689   17.7679 N   0  0  0  0  0  0  0  0  0  0  0  0
   16.2235   -9.6031   18.6840 H   0  0  0  0  0  0  0  0  0  0  0  0
   14.8640   -6.9130   21.2006 C   0  0  0  0  0  0  0  0  0  0  0  0
   15.3904   -7.5236   20.0535 C   0  0  0  0  0  0  0  0  0  0  0  0
   14.7294   -7.4357   18.8268 C   0  0  0  0  0  0  0  0  0  0  0  0
   13.5274   -6.7272   18.7519 C   0  0  0  0  0  0  0  0  0  0  0  0
   12.9773   -6.1059   19.8844 C   0  0  0  0  0  0  0  0  0  0  0  0
   13.6550   -6.2001   21.1266 C   0  0  0  0  0  0  0  0  0  0  0  0
   16.8077   -6.4286   22.6580 C   0  0  0  0  0  0  0  0  0  0  0  0
   15.5271   -7.0016   22.4300 O   0  0  0  0  0  0  0  0  0  0  0  0
   11.7714   -5.4027   19.7798 O   0  0  0  0  0  0  0  0  0  0  0  0
   11.4275   -4.6175   18.6457 C   0  0  0  0  0  0  0  0  0  0  0  0
   13.1807   -5.6116   22.3113 O   0  0  0  0  0  0  0  0  0  0  0  0
   13.3824   -4.2568   22.6874 C   0  0  0  0  0  0  0  0  0  0  0  0
   16.6485  -10.2755   12.9946 N   0  0  0  0  0  0  0  0  0  0  0  0
   15.7066  -10.4150   12.7443 H   0  0  0  0  0  0  0  0  0  0  0  0
   17.5472   -9.8270   11.9761 C   0  0  0  0  0  0  0  0  0  0  0  0
   17.1375   -9.5529   10.7244 N   0  0  0  0  0  0  0  0  0  0  0  0
   18.2619   -9.1271   10.1201 C   0  0  0  0  0  0  0  0  0  0  0  0
   19.3181   -9.1390   11.0103 C   0  0  0  0  0  0  0  0  0  0  0  0
   18.8553   -9.5806   12.1944 N   0  0  0  0  0  0  0  0  0  0  0  0
   19.3587   -9.6975   13.0323 H   0  0  0  0  0  0  0  0  0  0  0  0
   18.3277   -8.7069    8.7103 C   0  0  0  0  0  0  0  0  0  0  0  0
   19.1060   -7.6091    8.3230 C   0  0  0  0  0  0  0  0  0  0  0  0
   19.1573   -7.2244    6.9824 C   0  0  0  0  0  0  0  0  0  0  0  0
   18.4252   -7.9466    6.0382 C   0  0  0  0  0  0  0  0  0  0  0  0
   17.6731   -9.0111    6.4270 N   0  0  0  0  0  0  0  0  0  0  0  0
   17.6102   -9.4015    7.7286 C   0  0  0  0  0  0  0  0  0  0  0  0
 18 19  1  0  0  0
 19 12  1  0  0  0
 12 13  2  0  0  0
 13 14  1  0  0  0
 14  8  1  0  0  0
 14 15  2  0  0  0
  8  9  2  0  0  0
  8 10  1  0  0  0
 10  1  1  0  0  0
  1  2  2  0  0  0
  2  3  1  0  0  0
  3  4  2  0  0  0
  4  5  1  0  0  0
  4  6  1  0  0  0
  6 24  1  0  0  0
  6  7  2  0  0  0
 24 26  1  0  0  0
 26 27  2  0  0  0
 27 28  1  0  0  0
 28 32  1  0  0  0
 28 29  2  0  0  0
 32 33  2  0  0  0
 33 34  1  0  0  0
 34 35  2  0  0  0
 35 36  1  0  0  0
 36 37  2  0  0  0
 37 32  1  0  0  0
 29 30  1  0  0  0
 30 26  1  0  0  0
  7  1  1  0  0  0
 15 16  1  0  0  0
 16 20  1  0  0  0
 16 17  2  0  0  0
 20 21  1  0  0  0
 17 22  1  0  0  0
 17 12  1  0  0  0
 22 23  1  0  0  0
 10 11  1  0  0  0
 24 25  1  0  0  0
 30 31  1  0  0  0
M  END
>  <minimizedAffinity>
-8.96414

>  <minimizedRMSD>
1.30445

$$$$
CHEMBL3639725 PubChem-159119814 PubChem-67236497


 35 39  0  0  0  0  0  0  0  0999 V2000
   16.3934   -9.2993   16.9035 N   0  0  0  0  0  0  0  0  0  0  0  0
   15.5635   -8.1408   17.0604 C   0  0  0  0  0  0  0  0  0  0  0  0
   15.2582   -7.4327   16.0627 O   0  0  0  0  0  0  0  0  0  0  0  0
   16.6044   -9.8202   17.7118 H   0  0  0  0  0  0  0  0  0  0  0  0
   15.0622   -7.7710   18.3927 C   0  0  0  0  0  0  0  0  0  0  0  0
   14.0588   -6.8471   18.5098 N   0  0  0  0  0  0  0  0  0  0  0  0
   13.6010   -6.5156   19.7444 C   0  0  0  0  0  0  0  0  0  0  0  0
   14.1141   -7.0655   20.8784 C   0  0  0  0  0  0  0  0  0  0  0  0
   15.1338   -8.0079   20.8254 C   0  0  0  0  0  0  0  0  0  0  0  0
   15.6130   -8.3660   19.5537 C   0  0  0  0  0  0  0  0  0  0  0  0
   13.4651   -6.5102   21.9584 C   0  0  0  0  0  0  0  0  0  0  0  0
   12.5539   -5.6085   21.3879 C   0  0  0  0  0  0  0  0  0  0  0  0
   12.6340   -5.6301   20.0239 N   0  0  0  0  0  0  0  0  0  0  0  0
   12.0000   -4.7851   19.0171 C   0  0  0  0  0  0  0  0  0  0  0  0
   10.5538   -4.5042   19.3418 C   0  0  0  0  0  0  0  0  0  0  0  0
   10.5309   -3.4012   20.3672 C   0  0  0  0  0  0  0  0  0  0  0  0
   10.5983   -3.9537   21.7073 N   0  0  0  0  0  0  0  0  0  0  0  0
   11.6134   -4.8194   22.2277 C   0  0  0  0  0  0  0  0  0  0  0  0
   11.6757   -4.9585   23.4783 O   0  0  0  0  0  0  0  0  0  0  0  0
    9.8703   -3.7078   22.3228 H   0  0  0  0  0  0  0  0  0  0  0  0
   19.2291  -11.6706   13.6774 C   0  0  0  0  0  0  0  0  0  0  0  0
   18.2015  -10.8125   14.2433 N   0  0  0  0  0  0  0  0  0  0  0  0
   17.9934  -10.6362   15.5583 C   0  0  0  0  0  0  0  0  0  0  0  0
   16.9383   -9.7563   15.6620 C   0  0  0  0  0  0  0  0  0  0  0  0
   16.4869   -9.3824   14.4474 N   0  0  0  0  0  0  0  0  0  0  0  0
   17.2888  -10.0529   13.5950 C   0  0  0  0  0  0  0  0  0  0  0  0
   17.1507   -9.9409   12.1303 C   0  0  0  0  0  0  0  0  0  0  0  0
   16.0051  -10.0339   11.6122 O   0  0  0  0  0  0  0  0  0  0  0  0
   18.3004   -9.7285   11.3003 N   0  0  0  0  0  0  0  0  0  0  0  0
   19.1759   -9.6602   11.7454 H   0  0  0  0  0  0  0  0  0  0  0  0
   18.2722   -9.6059    9.8450 C   0  0  0  0  0  0  0  0  0  0  0  0
   18.5913   -8.1919    9.4039 C   0  0  0  0  0  0  0  0  0  0  0  0
   17.7440   -7.9648    8.1741 C   0  0  0  0  0  0  0  0  0  0  0  0
   16.4993   -8.8011    8.3824 C   0  0  0  0  0  0  0  0  0  0  0  0
   16.9031   -9.9536    9.2839 C   0  0  0  0  0  0  0  0  0  0  0  0
 21 22  1  0  0  0
 22 23  1  0  0  0
 23 24  2  0  0  0
 24 25  1  0  0  0
 24  1  1  0  0  0
 25 26  2  0  0  0
 26 27  1  0  0  0
 26 22  1  0  0  0
 27 28  2  0  0  0
 27 29  1  0  0  0
 29 31  1  0  0  0
 31 32  1  0  0  0
 32 33  1  0  0  0
 33 34  1  0  0  0
 34 35  1  0  0  0
 35 31  1  0  0  0
  1  2  1  0  0  0
  2  3  2  0  0  0
  2  5  1  0  0  0
  5  6  2  0  0  0
  6  7  1  0  0  0
  7  8  2  0  0  0
  8  9  1  0  0  0
  8 11  1  0  0  0
  9 10  2  0  0  0
 10  5  1  0  0  0
 11 12  2  0  0  0
 12 13  1  0  0  0
 13 14  1  0  0  0
 13  7  1  0  0  0
 14 15  1  0  0  0
 15 16  1  0  0  0
 16 17  1  0  0  0
 17 18  1  0  0  0
 18 19  2  0  0  0
 18 12  1  0  0  0
 29 30  1  0  0  0
  1  4  1  0  0  0
 17 20  1  0  0  0
M  END
>  <minimizedAffinity>
-8.95798

>  <minimizedRMSD>
1.59319

$$$$
CHEMBL402084 PubChem-44453666


 36 38  0  0  0  0  0  0  0  0999 V2000
   13.2936   -7.0307   18.6677 C   0  0  0  0  0  0  0  0  0  0  0  0
   12.8955   -6.6255   19.9531 C   0  0  0  0  0  0  0  0  0  0  0  0
   13.7751   -6.7063   21.0388 C   0  0  0  0  0  0  0  0  0  0  0  0
   15.0659   -7.1958   20.8419 C   0  0  0  0  0  0  0  0  0  0  0  0
   15.4761   -7.6016   19.5715 C   0  0  0  0  0  0  0  0  0  0  0  0
   14.6084   -7.5258   18.4758 C   0  0  0  0  0  0  0  0  0  0  0  0
   11.0410   -7.3516   17.6819 C   0  0  0  0  0  0  0  0  0  0  0  0
   12.3993   -6.9421   17.5945 O   0  0  0  0  0  0  0  0  0  0  0  0
   13.3688   -6.2812   22.3818 C   0  0  0  0  0  0  0  0  0  0  0  0
   14.2439   -5.9673   23.2850 N   0  0  0  0  0  0  0  0  0  0  0  0
   13.9027   -5.5556   24.5879 N   0  0  0  0  0  0  0  0  0  0  0  0
   14.5615   -5.9631   25.7991 C   0  0  0  0  0  0  0  0  0  0  0  0
   15.5448   -6.7520   25.7625 O   0  0  0  0  0  0  0  0  0  0  0  0
   13.1453   -4.9331   24.6773 H   0  0  0  0  0  0  0  0  0  0  0  0
   14.0834   -5.4526   27.0962 C   0  0  0  0  0  0  0  0  0  0  0  0
   14.8954   -5.5376   28.2369 C   0  0  0  0  0  0  0  0  0  0  0  0
   14.4402   -5.0538   29.4664 C   0  0  0  0  0  0  0  0  0  0  0  0
   13.1698   -4.4801   29.5676 C   0  0  0  0  0  0  0  0  0  0  0  0
   12.7291   -4.0043   30.7966 O   0  0  0  0  0  0  0  0  0  0  0  0
   12.3521   -4.3888   28.4320 C   0  0  0  0  0  0  0  0  0  0  0  0
   10.7519   -3.6761   28.5276 Cl  0  0  0  0  0  0  0  0  0  0  0  0
   12.8108   -4.8740   27.2036 C   0  0  0  0  0  0  0  0  0  0  0  0
   13.2825   -4.0695   31.5500 H   0  0  0  0  0  0  0  0  0  0  0  0
   15.1085   -7.9494   17.2352 O   0  0  0  0  0  0  0  0  0  0  0  0
   16.1723   -8.8753   17.0641 C   0  0  0  0  0  0  0  0  0  0  0  0
   16.4073   -9.1100   15.6148 C   0  0  0  0  0  0  0  0  0  0  0  0
   15.8220   -8.2670   14.6648 C   0  0  0  0  0  0  0  0  0  0  0  0
   16.0558   -8.4793   13.3030 C   0  0  0  0  0  0  0  0  0  0  0  0
   16.8787   -9.5303   12.8807 C   0  0  0  0  0  0  0  0  0  0  0  0
   17.4701  -10.3678   13.8398 C   0  0  0  0  0  0  0  0  0  0  0  0
   17.2377  -10.1565   15.2020 C   0  0  0  0  0  0  0  0  0  0  0  0
   17.0851   -9.7220   11.4745 N   0  0  0  0  0  0  0  0  0  0  0  0
   16.0932  -10.0802   10.5030 C   0  0  0  0  0  0  0  0  0  0  0  0
   16.4840  -10.1927    9.0742 C   0  0  0  0  0  0  0  0  0  0  0  0
   14.8999  -10.3067   10.8360 O   0  0  0  0  0  0  0  0  0  0  0  0
   18.0029   -9.5946   11.1418 H   0  0  0  0  0  0  0  0  0  0  0  0
  7  8  1  0  0  0
  8  1  1  0  0  0
  1  2  2  0  0  0
  2  3  1  0  0  0
  3  9  1  0  0  0
  3  4  2  0  0  0
  9 10  2  0  0  0
 10 11  1  0  0  0
 11 12  1  0  0  0
 12 13  2  0  0  0
 12 15  1  0  0  0
 15 16  2  0  0  0
 16 17  1  0  0  0
 17 18  2  0  0  0
 18 19  1  0  0  0
 18 20  1  0  0  0
 20 21  1  0  0  0
 20 22  2  0  0  0
 22 15  1  0  0  0
  4  5  1  0  0  0
  5  6  2  0  0  0
  6 24  1  0  0  0
  6  1  1  0  0  0
 24 25  1  0  0  0
 25 26  1  0  0  0
 26 27  2  0  0  0
 27 28  1  0  0  0
 28 29  2  0  0  0
 29 32  1  0  0  0
 29 30  1  0  0  0
 32 33  1  0  0  0
 33 34  1  0  0  0
 33 35  2  0  0  0
 30 31  2  0  0  0
 31 26  1  0  0  0
 11 14  1  0  0  0
 19 23  1  0  0  0
 32 36  1  0  0  0
M  END
>  <minimizedAffinity>
-8.95264

>  <minimizedRMSD>
1.88785

$$$$
CHEMBL3189953 LN00662543 MolPort-002-627-036 PubChem-6052915 ZINC09307657


 33 36  0  0  0  0  0  0  0  0999 V2000
   14.7501   -7.0932   19.8928 C   0  0  0  0  0  0  0  0  0  0  0  0
   13.9223   -6.2474   20.6213 C   0  0  0  0  0  0  0  0  0  0  0  0
   14.4525   -6.1917   21.8629 N   0  0  0  0  0  0  0  0  0  0  0  0
   15.5177   -6.9750   21.8983 N   0  0  0  0  0  0  0  0  0  0  0  0
   15.7280   -7.5278   20.7133 N   0  0  0  0  0  0  0  0  0  0  0  0
   13.9493   -5.5103   23.0150 C   0  0  0  0  0  0  0  0  0  0  0  0
   13.8367   -6.0627   24.2335 N   0  0  0  0  0  0  0  0  0  0  0  0
   13.5192   -5.0761   25.0292 O   0  0  0  0  0  0  0  0  0  0  0  0
   13.4468   -3.9153   24.4341 N   0  0  0  0  0  0  0  0  0  0  0  0
   13.7206   -4.1679   23.1456 C   0  0  0  0  0  0  0  0  0  0  0  0
   13.9124   -3.1671   22.1519 N   0  0  0  0  0  0  0  0  0  0  0  0
   13.7141   -2.2250   22.3575 H   0  0  0  0  0  0  0  0  0  0  0  0
   14.2434   -3.4170   21.2590 H   0  0  0  0  0  0  0  0  0  0  0  0
   12.6005   -5.7124   20.2268 C   0  0  0  0  0  0  0  0  0  0  0  0
   12.3700   -4.6869   19.3235 C   0  0  0  0  0  0  0  0  0  0  0  0
   11.0152   -4.3433   19.2093 C   0  0  0  0  0  0  0  0  0  0  0  0
   10.1638   -5.0778   20.0299 C   0  0  0  0  0  0  0  0  0  0  0  0
   11.1241   -6.1526   20.8941 S   0  0  0  0  0  0  0  0  0  0  0  0
   15.8251   -8.0656   17.8490 N   0  0  0  0  0  0  0  0  0  0  0  0
   14.6861   -7.4448   18.4654 C   0  0  0  0  0  0  0  0  0  0  0  0
   13.6643   -7.1565   17.7878 O   0  0  0  0  0  0  0  0  0  0  0  0
   16.6207   -8.2038   18.4122 H   0  0  0  0  0  0  0  0  0  0  0  0
   17.0221   -8.7447   15.9050 C   0  0  0  0  0  0  0  0  0  0  0  0
   15.9036   -8.4938   16.5097 N   0  0  0  0  0  0  0  0  0  0  0  0
   17.0739  -10.0163   11.8235 C   0  0  0  0  0  0  0  0  0  0  0  0
   16.0299   -9.2140   12.3121 C   0  0  0  0  0  0  0  0  0  0  0  0
   16.0224   -8.8035   13.6482 C   0  0  0  0  0  0  0  0  0  0  0  0
   17.0550   -9.1891   14.5083 C   0  0  0  0  0  0  0  0  0  0  0  0
   18.0982   -9.9899   14.0221 C   0  0  0  0  0  0  0  0  0  0  0  0
   18.1058  -10.4004   12.6859 C   0  0  0  0  0  0  0  0  0  0  0  0
   17.1101  -10.4425   10.4929 O   0  0  0  0  0  0  0  0  0  0  0  0
   16.8370   -9.3557    8.3725 C   0  0  0  0  0  0  0  0  0  0  0  0
   16.1436  -10.0412    9.5311 C   0  0  0  0  0  0  0  0  0  0  0  0
 32 33  1  0  0  0
 33 31  1  0  0  0
 31 25  1  0  0  0
 25 26  2  0  0  0
 26 27  1  0  0  0
 27 28  2  0  0  0
 28 23  1  0  0  0
 28 29  1  0  0  0
 23 24  2  0  0  0
 24 19  1  0  0  0
 19 20  1  0  0  0
 20 21  2  0  0  0
 20  1  1  0  0  0
  1  2  2  0  0  0
  2  3  1  0  0  0
  2 14  1  0  0  0
  3  4  1  0  0  0
  3  6  1  0  0  0
  4  5  2  0  0  0
  5  1  1  0  0  0
  6  7  2  0  0  0
  7  8  1  0  0  0
  8  9  1  0  0  0
  9 10  2  0  0  0
 10 11  1  0  0  0
 10  6  1  0  0  0
 14 15  2  0  0  0
 15 16  1  0  0  0
 16 17  2  0  0  0
 17 18  1  0  0  0
 18 14  1  0  0  0
 29 30  2  0  0  0
 30 25  1  0  0  0
 19 22  1  0  0  0
 11 12  1  0  0  0
 11 13  1  0  0  0
M  END
>  <minimizedAffinity>
-8.94419

>  <minimizedRMSD>
1.69089

$$$$
CHEMBL3668690 PubChem-71042575


 36 40  0  0  0  0  0  0  0  0999 V2000
   18.2538  -11.2119   15.0344 C   0  0  0  0  0  0  0  0  0  0  0  0
   17.4851   -9.9026   15.0931 C   0  0  0  0  0  0  0  0  0  0  0  0
   16.8895   -9.8689   16.4166 N   0  0  0  0  0  0  0  0  0  0  0  0
   17.0531  -11.1003   17.1679 C   0  0  0  0  0  0  0  0  0  0  0  0
   17.9165  -12.0011   16.3002 C   0  0  0  0  0  0  0  0  0  0  0  0
   18.5124  -11.3216   17.5193 C   0  0  0  0  0  0  0  0  0  0  0  0
   16.2503   -8.7088   16.9643 C   0  0  0  0  0  0  0  0  0  0  0  0
   16.2239   -7.6363   16.3024 O   0  0  0  0  0  0  0  0  0  0  0  0
   15.6916   -8.7592   18.2821 N   0  0  0  0  0  0  0  0  0  0  0  0
   15.9651   -9.5095   18.8578 H   0  0  0  0  0  0  0  0  0  0  0  0
   14.7694   -7.8128   18.8354 C   0  0  0  0  0  0  0  0  0  0  0  0
   15.0127   -7.0498   19.9697 C   0  0  0  0  0  0  0  0  0  0  0  0
   13.9050   -6.3233   20.2605 N   0  0  0  0  0  0  0  0  0  0  0  0
   12.9700   -6.6439   19.3383 C   0  0  0  0  0  0  0  0  0  0  0  0
   11.6514   -6.1891   19.2542 C   0  0  0  0  0  0  0  0  0  0  0  0
   10.8394   -6.7087   18.2312 C   0  0  0  0  0  0  0  0  0  0  0  0
   11.3475   -7.6682   17.3314 C   0  0  0  0  0  0  0  0  0  0  0  0
   12.6758   -8.1141   17.4393 C   0  0  0  0  0  0  0  0  0  0  0  0
   13.4656   -7.5649   18.4491 C   0  0  0  0  0  0  0  0  0  0  0  0
   13.7860   -5.4172   21.3693 C   0  0  0  0  0  0  0  0  0  0  0  0
   14.7574   -5.2503   22.1538 O   0  0  0  0  0  0  0  0  0  0  0  0
   12.5791   -4.6959   21.5974 N   0  0  0  0  0  0  0  0  0  0  0  0
   11.8118   -4.8164   20.9924 H   0  0  0  0  0  0  0  0  0  0  0  0
   12.5122   -4.0769   22.3600 H   0  0  0  0  0  0  0  0  0  0  0  0
   16.4247   -9.8794   14.0372 C   0  0  0  0  0  0  0  0  0  0  0  0
   15.2046   -9.8832   14.3592 O   0  0  0  0  0  0  0  0  0  0  0  0
   16.8116   -9.8441   12.6624 N   0  0  0  0  0  0  0  0  0  0  0  0
   17.7707   -9.8043   12.4441 H   0  0  0  0  0  0  0  0  0  0  0  0
   15.8485   -9.8645   11.5696 C   0  0  0  0  0  0  0  0  0  0  0  0
   16.5297   -9.5979   10.2701 C   0  0  0  0  0  0  0  0  0  0  0  0
   17.6864   -8.8109   10.2312 C   0  0  0  0  0  0  0  0  0  0  0  0
   18.3310   -8.5740    9.0134 C   0  0  0  0  0  0  0  0  0  0  0  0
   17.8218   -9.1254    7.8336 C   0  0  0  0  0  0  0  0  0  0  0  0
   16.6677   -9.9137    7.8714 C   0  0  0  0  0  0  0  0  0  0  0  0
   16.0226  -10.1508    9.0890 C   0  0  0  0  0  0  0  0  0  0  0  0
   19.7770   -7.5894    8.9664 Cl  0  0  0  0  0  0  0  0  0  0  0  0
  1  2  1  0  0  0
  2  3  1  0  0  0
  2 25  1  0  0  0
  3  7  1  0  0  0
  4  3  1  0  0  0
  4  5  1  0  0  0
  5  6  1  0  0  0
  5  1  1  0  0  0
  6  4  1  0  0  0
  7  8  2  0  0  0
  7  9  1  0  0  0
  9 11  1  0  0  0
 11 12  2  0  0  0
 12 13  1  0  0  0
 13 14  1  0  0  0
 13 20  1  0  0  0
 14 15  2  0  0  0
 15 16  1  0  0  0
 16 17  2  0  0  0
 17 18  1  0  0  0
 18 19  2  0  0  0
 19 11  1  0  0  0
 19 14  1  0  0  0
 20 21  2  0  0  0
 20 22  1  0  0  0
 25 26  2  0  0  0
 25 27  1  0  0  0
 27 29  1  0  0  0
 29 30  1  0  0  0
 30 31  2  0  0  0
 31 32  1  0  0  0
 32 33  2  0  0  0
 32 36  1  0  0  0
 33 34  1  0  0  0
 34 35  2  0  0  0
 35 30  1  0  0  0
  9 10  1  0  0  0
 22 23  1  0  0  0
 22 24  1  0  0  0
 27 28  1  0  0  0
M  END
>  <minimizedAffinity>
-8.94022

>  <minimizedRMSD>
1.81942

$$$$
CHEMBL1378829 656114 LN01181009 MCULE-4600326943 MolPort-001-671-576 PubChem-1000743 ZINC000000656114 ZINC00656114


 31 32  0  0  0  0  0  0  0  0999 V2000
   15.9246   -8.4904   17.5789 N   0  0  0  0  0  0  0  0  0  0  0  0
   15.9698   -8.2164   16.1700 C   0  0  0  0  0  0  0  0  0  0  0  0
   15.2116   -7.3469   15.6603 O   0  0  0  0  0  0  0  0  0  0  0  0
   16.5449   -9.1776   17.9140 H   0  0  0  0  0  0  0  0  0  0  0  0
   12.9251   -6.9237   19.2261 C   0  0  0  0  0  0  0  0  0  0  0  0
   13.7456   -7.5312   18.2627 C   0  0  0  0  0  0  0  0  0  0  0  0
   15.0711   -7.8687   18.5492 C   0  0  0  0  0  0  0  0  0  0  0  0
   15.5824   -7.5949   19.8158 C   0  0  0  0  0  0  0  0  0  0  0  0
   14.7865   -6.9884   20.7984 C   0  0  0  0  0  0  0  0  0  0  0  0
   13.4532   -6.6480   20.5132 C   0  0  0  0  0  0  0  0  0  0  0  0
   10.7992   -7.3717   18.0303 C   0  0  0  0  0  0  0  0  0  0  0  0
   11.6012   -6.5960   18.9112 O   0  0  0  0  0  0  0  0  0  0  0  0
   15.3011   -6.7131   22.0707 O   0  0  0  0  0  0  0  0  0  0  0  0
   16.6807   -6.4669   22.3075 C   0  0  0  0  0  0  0  0  0  0  0  0
   12.7083   -6.0433   21.5400 O   0  0  0  0  0  0  0  0  0  0  0  0
   12.4856   -4.6469   21.6728 C   0  0  0  0  0  0  0  0  0  0  0  0
   16.9121   -8.9566   15.3125 C   0  0  0  0  0  0  0  0  0  0  0  0
   16.6785   -9.0709   13.9340 C   0  0  0  0  0  0  0  0  0  0  0  0
   17.5713   -9.7762   13.1208 C   0  0  0  0  0  0  0  0  0  0  0  0
   18.7122  -10.3599   13.6794 C   0  0  0  0  0  0  0  0  0  0  0  0
   18.9524  -10.2509   15.0515 C   0  0  0  0  0  0  0  0  0  0  0  0
   18.0553   -9.5526   15.8650 C   0  0  0  0  0  0  0  0  0  0  0  0
   17.3296   -9.8685   11.6559 C   0  0  0  0  0  0  0  0  0  0  0  0
   18.4478   -9.4019   10.9649 O   0  0  0  0  0  0  0  0  0  0  0  0
   17.9277   -8.8126    9.8117 C   0  0  0  0  0  0  0  0  0  0  0  0
   18.9376   -7.8444    9.2144 C   0  0  0  0  0  0  0  0  0  0  0  0
   18.7005   -6.5742    9.7091 F   0  0  0  0  0  0  0  0  0  0  0  0
   20.2200   -8.2362    9.5578 F   0  0  0  0  0  0  0  0  0  0  0  0
   18.7945   -7.8274    7.6984 C   0  0  0  0  0  0  0  0  0  0  0  0
   20.0252   -7.6071    7.1064 F   0  0  0  0  0  0  0  0  0  0  0  0
   18.2782   -9.0293    7.2460 F   0  0  0  0  0  0  0  0  0  0  0  0
 11 12  1  0  0  0
 12  5  1  0  0  0
  5  6  2  0  0  0
  6  7  1  0  0  0
  7  1  1  0  0  0
  7  8  2  0  0  0
  1  2  1  0  0  0
  2  3  2  0  0  0
  2 17  1  0  0  0
 17 18  2  0  0  0
 18 19  1  0  0  0
 19 23  1  0  0  0
 19 20  2  0  0  0
 23 24  1  0  0  0
 24 25  1  0  0  0
 25 26  1  0  0  0
 26 27  1  0  0  0
 26 28  1  0  0  0
 26 29  1  0  0  0
 29 30  1  0  0  0
 29 31  1  0  0  0
 20 21  1  0  0  0
 21 22  2  0  0  0
 22 17  1  0  0  0
  8  9  1  0  0  0
  9 13  1  0  0  0
  9 10  2  0  0  0
 13 14  1  0  0  0
 10 15  1  0  0  0
 10  5  1  0  0  0
 15 16  1  0  0  0
  1  4  1  0  0  0
M  END
>  <minimizedAffinity>
-8.94006

>  <minimizedRMSD>
1.30583

$$$$
CHEMBL246299 PubChem-44143537


 33 36  0  0  0  0  0  0  0  0999 V2000
   15.1181   -7.6397   18.5615 C   0  0  0  0  0  0  0  0  0  0  0  0
   15.9865   -7.7283   19.6764 C   0  0  0  0  0  0  0  0  0  0  0  0
   15.5930   -7.2572   20.9415 C   0  0  0  0  0  0  0  0  0  0  0  0
   14.3187   -6.7100   21.0627 C   0  0  0  0  0  0  0  0  0  0  0  0
   13.7839   -6.1665   22.1761 N   0  0  0  0  0  0  0  0  0  0  0  0
   12.5609   -5.7541   21.7666 C   0  0  0  0  0  0  0  0  0  0  0  0
   12.3154   -6.0332   20.4390 C   0  0  0  0  0  0  0  0  0  0  0  0
   13.4679   -6.6293   19.9844 C   0  0  0  0  0  0  0  0  0  0  0  0
   13.8353   -7.0745   18.7169 C   0  0  0  0  0  0  0  0  0  0  0  0
   11.1090   -5.5142   19.6999 C   0  0  0  0  0  0  0  0  0  0  0  0
   10.6709   -6.4804   18.6151 C   0  0  0  0  0  0  0  0  0  0  0  0
    9.9346   -5.2943   20.6754 C   0  0  0  0  0  0  0  0  0  0  0  0
   10.3562   -4.6442   21.9237 N   0  0  0  0  0  0  0  0  0  0  0  0
   11.5928   -4.9976   22.5530 C   0  0  0  0  0  0  0  0  0  0  0  0
   11.8471   -4.6247   23.7278 O   0  0  0  0  0  0  0  0  0  0  0  0
   14.1863   -6.0886   23.0712 H   0  0  0  0  0  0  0  0  0  0  0  0
    9.7815   -3.9572   22.3324 H   0  0  0  0  0  0  0  0  0  0  0  0
   16.5559   -9.1566   17.1621 N   0  0  0  0  0  0  0  0  0  0  0  0
   15.5543   -8.1340   17.2439 C   0  0  0  0  0  0  0  0  0  0  0  0
   15.0445   -7.6553   16.1940 O   0  0  0  0  0  0  0  0  0  0  0  0
   16.9249   -9.4999   18.0078 H   0  0  0  0  0  0  0  0  0  0  0  0
   17.2781  -10.0813   13.7465 C   0  0  0  0  0  0  0  0  0  0  0  0
   18.2625  -10.9668   14.1948 C   0  0  0  0  0  0  0  0  0  0  0  0
   18.2798  -10.8596   15.8770 S   0  0  0  0  0  0  0  0  0  0  0  0
   17.0602   -9.7165   15.9460 C   0  0  0  0  0  0  0  0  0  0  0  0
   16.6151   -9.3914   14.7158 N   0  0  0  0  0  0  0  0  0  0  0  0
   18.0194   -9.6377   11.3888 N   0  0  0  0  0  0  0  0  0  0  0  0
   16.9686   -9.8963   12.3227 C   0  0  0  0  0  0  0  0  0  0  0  0
   15.7730   -9.9656   11.9280 O   0  0  0  0  0  0  0  0  0  0  0  0
   18.9469   -9.5900   11.7156 H   0  0  0  0  0  0  0  0  0  0  0  0
   17.7610   -9.4430    9.9705 C   0  0  0  0  0  0  0  0  0  0  0  0
   19.7606   -8.0088    9.5848 C   0  0  0  0  0  0  0  0  0  0  0  0
   18.2460   -8.0717    9.5361 C   0  0  0  0  0  0  0  0  0  0  0  0
 32 33  1  0  0  0
 33 31  1  0  0  0
 31 27  1  0  0  0
 27 28  1  0  0  0
 28 29  2  0  0  0
 28 22  1  0  0  0
 22 23  2  0  0  0
 23 24  1  0  0  0
 24 25  1  0  0  0
 25 18  1  0  0  0
 25 26  2  0  0  0
 18 19  1  0  0  0
 19 20  2  0  0  0
 19  1  1  0  0  0
  1  2  2  0  0  0
  2  3  1  0  0  0
  3  4  2  0  0  0
  4  5  1  0  0  0
  5  6  1  0  0  0
  6  7  2  0  0  0
  7  8  1  0  0  0
  7 10  1  0  0  0
  8  9  2  0  0  0
  8  4  1  0  0  0
  9  1  1  0  0  0
 10 11  1  0  0  0
 10 12  1  0  0  0
 12 13  1  0  0  0
 13 14  1  0  0  0
 14 15  2  0  0  0
 14  6  1  0  0  0
 26 22  1  0  0  0
 27 30  1  0  0  0
 18 21  1  0  0  0
  5 16  1  0  0  0
 13 17  1  0  0  0
M  END
>  <minimizedAffinity>
-8.93293

>  <minimizedRMSD>
1.31578

$$$$
CHEMBL4544348 PubChem-155552742


 36 39  0  0  0  0  0  0  0  0999 V2000
   15.2317   -7.8758   19.3826 N   0  0  0  0  0  0  0  0  0  0  0  0
   14.9669   -7.6907   17.9841 C   0  0  0  0  0  0  0  0  0  0  0  0
   14.0261   -6.9446   17.5999 O   0  0  0  0  0  0  0  0  0  0  0  0
   15.7796   -8.3604   17.0160 N   0  0  0  0  0  0  0  0  0  0  0  0
   16.8921   -9.2448   17.3667 C   0  0  0  0  0  0  0  0  0  0  0  0
   17.3902   -9.6694   16.0400 C   0  0  0  0  0  0  0  0  0  0  0  0
   18.4424  -10.5183   15.7268 C   0  0  0  0  0  0  0  0  0  0  0  0
   18.7091  -10.7572   14.4112 N   0  0  0  0  0  0  0  0  0  0  0  0
   17.9680  -10.1829   13.4147 C   0  0  0  0  0  0  0  0  0  0  0  0
   16.9335   -9.3480   13.7323 N   0  0  0  0  0  0  0  0  0  0  0  0
   16.6579   -9.1022   15.0361 C   0  0  0  0  0  0  0  0  0  0  0  0
   15.5872   -8.2342   15.5705 C   0  0  0  0  0  0  0  0  0  0  0  0
   15.9807   -8.4712   19.6141 H   0  0  0  0  0  0  0  0  0  0  0  0
   14.3956   -6.8257   22.8633 C   0  0  0  0  0  0  0  0  0  0  0  0
   15.0547   -7.3876   21.7602 C   0  0  0  0  0  0  0  0  0  0  0  0
   14.5199   -7.2845   20.4781 C   0  0  0  0  0  0  0  0  0  0  0  0
   13.3091   -6.6099   20.2978 C   0  0  0  0  0  0  0  0  0  0  0  0
   12.6268   -6.0375   21.3829 C   0  0  0  0  0  0  0  0  0  0  0  0
   13.1779   -6.1468   22.6850 C   0  0  0  0  0  0  0  0  0  0  0  0
   16.3307   -7.0139   24.3987 C   0  0  0  0  0  0  0  0  0  0  0  0
   14.9337   -6.9297   24.1513 O   0  0  0  0  0  0  0  0  0  0  0  0
   11.4158   -5.3676   21.1729 O   0  0  0  0  0  0  0  0  0  0  0  0
   10.7924   -5.2742   19.8986 C   0  0  0  0  0  0  0  0  0  0  0  0
   12.5674   -5.6065   23.8295 O   0  0  0  0  0  0  0  0  0  0  0  0
   12.7331   -4.2733   24.2906 C   0  0  0  0  0  0  0  0  0  0  0  0
   18.2962  -10.4722   12.0491 N   0  0  0  0  0  0  0  0  0  0  0  0
   19.0973  -11.0250   11.9012 H   0  0  0  0  0  0  0  0  0  0  0  0
   17.5911  -10.0485   10.8738 C   0  0  0  0  0  0  0  0  0  0  0  0
   16.2225  -10.2942   10.6958 C   0  0  0  0  0  0  0  0  0  0  0  0
   15.5724   -9.8654    9.5370 C   0  0  0  0  0  0  0  0  0  0  0  0
   16.2864   -9.1872    8.5468 C   0  0  0  0  0  0  0  0  0  0  0  0
   17.6579   -8.9308    8.7050 C   0  0  0  0  0  0  0  0  0  0  0  0
   18.2979   -9.3686    9.8765 C   0  0  0  0  0  0  0  0  0  0  0  0
   18.3954   -8.2317    7.6846 N   0  0  0  0  0  0  0  0  0  0  0  0
   18.2984   -8.6179    6.2851 C   0  0  0  0  0  0  0  0  0  0  0  0
   19.2650   -7.1130    8.0152 C   0  0  0  0  0  0  0  0  0  0  0  0
 20 21  1  0  0  0
 21 14  1  0  0  0
 14 15  2  0  0  0
 15 16  1  0  0  0
 16  1  1  0  0  0
  1  2  1  0  0  0
  2  3  2  0  0  0
  2  4  1  0  0  0
  4  5  1  0  0  0
  5  6  1  0  0  0
  6  7  2  0  0  0
  7  8  1  0  0  0
  8  9  2  0  0  0
  9 26  1  0  0  0
 26 28  1  0  0  0
 28 29  2  0  0  0
 29 30  1  0  0  0
 30 31  2  0  0  0
 31 32  1  0  0  0
 32 33  2  0  0  0
 32 34  1  0  0  0
 34 35  1  0  0  0
 34 36  1  0  0  0
  9 10  1  0  0  0
 10 11  2  0  0  0
 11 12  1  0  0  0
 16 17  2  0  0  0
 17 18  1  0  0  0
 18 22  1  0  0  0
 22 23  1  0  0  0
 18 19  2  0  0  0
 19 24  1  0  0  0
 24 25  1  0  0  0
 19 14  1  0  0  0
 12  4  1  0  0  0
 11  6  1  0  0  0
 33 28  1  0  0  0
  1 13  1  0  0  0
 26 27  1  0  0  0
M  END
>  <minimizedAffinity>
-8.91153

>  <minimizedRMSD>
1.97710

$$$$
CHEMBL4969580 ChemDiv-D332-0060 MCULE-1298546544 MolPort-007-697-919 PubChem-46263966 ZINC000009942267


 34 37  0  0  0  0  0  0  0  0999 V2000
   16.6467   -8.9336   16.5144 C   0  0  0  0  0  0  0  0  0  0  0  0
   17.7187   -9.8562   16.4874 C   0  0  0  0  0  0  0  0  0  0  0  0
   18.1066  -10.4841   15.2897 C   0  0  0  0  0  0  0  0  0  0  0  0
   17.3898  -10.1592   14.1406 C   0  0  0  0  0  0  0  0  0  0  0  0
   17.5581  -10.6053   12.8900 N   0  0  0  0  0  0  0  0  0  0  0  0
   18.5574  -11.5468   12.4085 C   0  0  0  0  0  0  0  0  0  0  0  0
   16.6003   -9.9680   12.1724 C   0  0  0  0  0  0  0  0  0  0  0  0
   15.8382   -9.1251   12.9183 N   0  0  0  0  0  0  0  0  0  0  0  0
   16.3548   -9.2709   14.1538 C   0  0  0  0  0  0  0  0  0  0  0  0
   15.9502   -8.6327   15.3225 C   0  0  0  0  0  0  0  0  0  0  0  0
   15.0532   -7.6980   18.1040 C   0  0  0  0  0  0  0  0  0  0  0  0
   14.1176   -7.6321   17.2608 O   0  0  0  0  0  0  0  0  0  0  0  0
   16.2995   -8.3259   17.7659 N   0  0  0  0  0  0  0  0  0  0  0  0
   16.9892   -8.3407   18.4683 H   0  0  0  0  0  0  0  0  0  0  0  0
   15.7636   -6.5393   21.6346 C   0  0  0  0  0  0  0  0  0  0  0  0
   15.9300   -7.0803   20.3517 C   0  0  0  0  0  0  0  0  0  0  0  0
   14.8659   -7.1263   19.4491 C   0  0  0  0  0  0  0  0  0  0  0  0
   13.6220   -6.6232   19.8392 C   0  0  0  0  0  0  0  0  0  0  0  0
   13.4266   -6.0757   21.1171 C   0  0  0  0  0  0  0  0  0  0  0  0
   14.5129   -6.0334   22.0283 C   0  0  0  0  0  0  0  0  0  0  0  0
   18.1685   -6.2270   22.1404 C   0  0  0  0  0  0  0  0  0  0  0  0
   16.8308   -6.4944   22.5393 O   0  0  0  0  0  0  0  0  0  0  0  0
   12.1694   -5.5790   21.4806 O   0  0  0  0  0  0  0  0  0  0  0  0
   11.2473   -5.0410   20.5418 C   0  0  0  0  0  0  0  0  0  0  0  0
   14.4113   -5.5049   23.3265 O   0  0  0  0  0  0  0  0  0  0  0  0
   14.2307   -6.2717   24.5084 C   0  0  0  0  0  0  0  0  0  0  0  0
   16.4356  -10.1109   10.6957 C   0  0  0  0  0  0  0  0  0  0  0  0
   17.2906   -9.1556   10.0125 N   0  0  0  0  0  0  0  0  0  0  0  0
   16.8777   -9.1406    8.6025 C   0  0  0  0  0  0  0  0  0  0  0  0
   17.9399   -8.5663    7.6516 C   0  0  0  0  0  0  0  0  0  0  0  0
   18.5093   -7.2136    8.0916 C   0  0  0  0  0  0  0  0  0  0  0  0
   19.0714   -7.1826    9.5206 C   0  0  0  0  0  0  0  0  0  0  0  0
   19.6901   -8.5095    9.9808 C   0  0  0  0  0  0  0  0  0  0  0  0
   18.6641   -9.6449   10.1425 C   0  0  0  0  0  0  0  0  0  0  0  0
 21 22  1  0  0  0
 22 15  1  0  0  0
 15 16  2  0  0  0
 16 17  1  0  0  0
 17 18  2  0  0  0
 17 11  1  0  0  0
 18 19  1  0  0  0
 19 23  1  0  0  0
 19 20  2  0  0  0
 23 24  1  0  0  0
 20 25  1  0  0  0
 20 15  1  0  0  0
 25 26  1  0  0  0
 11 12  2  0  0  0
 11 13  1  0  0  0
 13  1  1  0  0  0
  1  2  2  0  0  0
  2  3  1  0  0  0
  3  4  2  0  0  0
  4  5  1  0  0  0
  5  6  1  0  0  0
  5  7  1  0  0  0
  7 27  1  0  0  0
  7  8  2  0  0  0
 27 28  1  0  0  0
 28 29  1  0  0  0
 29 30  1  0  0  0
 30 31  1  0  0  0
 31 32  1  0  0  0
 32 33  1  0  0  0
 33 34  1  0  0  0
 34 28  1  0  0  0
  8  9  1  0  0  0
  9 10  2  0  0  0
  9  4  1  0  0  0
 10  1  1  0  0  0
 13 14  1  0  0  0
M  END
>  <minimizedAffinity>
-8.90955

>  <minimizedRMSD>
1.37727

$$$$
CHEMBL2031254 PubChem-57326302


 35 38  0  0  0  0  0  0  0  0999 V2000
   17.1718   -8.9887   16.8976 C   0  0  0  0  0  0  0  0  0  0  0  0
   18.7007   -8.4071   16.8042 S   0  0  0  0  0  0  0  0  0  0  0  0
   15.1350   -7.7975   17.8677 C   0  0  0  0  0  0  0  0  0  0  0  0
   14.6677   -7.5102   16.7319 O   0  0  0  0  0  0  0  0  0  0  0  0
   16.3535   -8.5453   17.9855 N   0  0  0  0  0  0  0  0  0  0  0  0
   16.6536   -8.7738   18.8948 H   0  0  0  0  0  0  0  0  0  0  0  0
   12.6856   -6.0369   20.1527 C   0  0  0  0  0  0  0  0  0  0  0  0
   13.0491   -6.5484   21.4102 C   0  0  0  0  0  0  0  0  0  0  0  0
   14.1124   -7.4826   21.5009 C   0  0  0  0  0  0  0  0  0  0  0  0
   14.7817   -7.8784   20.3319 C   0  0  0  0  0  0  0  0  0  0  0  0
   14.4197   -7.3694   19.0827 C   0  0  0  0  0  0  0  0  0  0  0  0
   13.3717   -6.4499   19.0014 C   0  0  0  0  0  0  0  0  0  0  0  0
   14.4971   -8.0095   22.7394 O   0  0  0  0  0  0  0  0  0  0  0  0
   15.4704   -7.3960   23.5745 C   0  0  0  0  0  0  0  0  0  0  0  0
   12.3229   -6.0950   22.5246 O   0  0  0  0  0  0  0  0  0  0  0  0
   12.6782   -4.9824   23.3327 C   0  0  0  0  0  0  0  0  0  0  0  0
   11.6353   -5.1153   20.0711 O   0  0  0  0  0  0  0  0  0  0  0  0
   10.2934   -5.4978   19.8007 C   0  0  0  0  0  0  0  0  0  0  0  0
   16.5957   -9.7535   15.8253 N   0  0  0  0  0  0  0  0  0  0  0  0
   15.6152   -9.8415   15.8360 H   0  0  0  0  0  0  0  0  0  0  0  0
   17.2737  -10.4040   14.7416 C   0  0  0  0  0  0  0  0  0  0  0  0
   17.3078   -9.7716   13.4944 C   0  0  0  0  0  0  0  0  0  0  0  0
   17.9272  -10.3841   12.3961 C   0  0  0  0  0  0  0  0  0  0  0  0
   18.5072  -11.6506   12.5540 C   0  0  0  0  0  0  0  0  0  0  0  0
   18.4647  -12.2959   13.7921 C   0  0  0  0  0  0  0  0  0  0  0  0
   17.8454  -11.6769   14.8805 C   0  0  0  0  0  0  0  0  0  0  0  0
   17.9622   -9.7007   11.0917 C   0  0  0  0  0  0  0  0  0  0  0  0
   18.9673   -8.8748   10.7057 N   0  0  0  0  0  0  0  0  0  0  0  0
   18.5844   -8.4910    9.4756 C   0  0  0  0  0  0  0  0  0  0  0  0
   17.4162   -9.0306    9.0956 N   0  0  0  0  0  0  0  0  0  0  0  0
   16.9894   -9.8076   10.1004 C   0  0  0  0  0  0  0  0  0  0  0  0
   16.8324   -8.7882    7.8963 C   0  0  0  0  0  0  0  0  0  0  0  0
   17.4891   -7.9254    7.0068 C   0  0  0  0  0  0  0  0  0  0  0  0
   18.7165   -7.3466    7.3826 C   0  0  0  0  0  0  0  0  0  0  0  0
   19.2837   -7.6270    8.6364 C   0  0  0  0  0  0  0  0  0  0  0  0
  7  8  2  0  0  0
  8  9  1  0  0  0
  9 10  2  0  0  0
 10 11  1  0  0  0
 11 12  2  0  0  0
 11  3  1  0  0  0
  3  4  2  0  0  0
  3  5  1  0  0  0
  5  1  1  0  0  0
  1  2  2  0  0  0
  1 19  1  0  0  0
 19 21  1  0  0  0
 21 22  2  0  0  0
 22 23  1  0  0  0
 23 24  2  0  0  0
 24 25  1  0  0  0
 25 26  2  0  0  0
 23 27  1  0  0  0
 27 28  1  0  0  0
 28 29  2  0  0  0
 29 30  1  0  0  0
 30 31  1  0  0  0
 30 32  1  0  0  0
 32 33  2  0  0  0
 33 34  1  0  0  0
 34 35  2  0  0  0
  9 13  1  0  0  0
 13 14  1  0  0  0
  8 15  1  0  0  0
 15 16  1  0  0  0
  7 17  1  0  0  0
 17 18  1  0  0  0
 12  7  1  0  0  0
 26 21  1  0  0  0
 31 27  2  0  0  0
 35 29  1  0  0  0
  5  6  1  0  0  0
 19 20  1  0  0  0
M  END
>  <minimizedAffinity>
-8.89815

>  <minimizedRMSD>
1.19923

$$$$
CHEMBL1347607 1181469 MCULE-9796392930 MolPort-002-210-869 PubChem-1345163 ZINC000001181469 ZINC01181469


 31 33  0  0  0  0  0  0  0  0999 V2000
   15.3598   -7.9589   17.4598 C   0  0  0  0  0  0  0  0  0  0  0  0
   15.0367   -7.5341   16.3170 O   0  0  0  0  0  0  0  0  0  0  0  0
   16.4945   -8.8214   17.6216 N   0  0  0  0  0  0  0  0  0  0  0  0
   16.7238   -9.0937   18.5395 H   0  0  0  0  0  0  0  0  0  0  0  0
   14.3094   -7.4311   21.0555 C   0  0  0  0  0  0  0  0  0  0  0  0
   15.0511   -7.8064   19.9264 C   0  0  0  0  0  0  0  0  0  0  0  0
   14.5712   -7.5594   18.6387 C   0  0  0  0  0  0  0  0  0  0  0  0
   13.3339   -6.9292   18.4839 C   0  0  0  0  0  0  0  0  0  0  0  0
   12.5702   -6.5424   19.5966 C   0  0  0  0  0  0  0  0  0  0  0  0
   13.0648   -6.7969   20.9012 C   0  0  0  0  0  0  0  0  0  0  0  0
   15.7999   -6.8864   22.9578 C   0  0  0  0  0  0  0  0  0  0  0  0
   14.7912   -7.6790   22.3461 O   0  0  0  0  0  0  0  0  0  0  0  0
   11.3339   -5.9125   19.4114 O   0  0  0  0  0  0  0  0  0  0  0  0
   11.2078   -4.5549   19.0088 C   0  0  0  0  0  0  0  0  0  0  0  0
   12.3711   -6.4459   22.0719 O   0  0  0  0  0  0  0  0  0  0  0  0
   12.3635   -5.1529   22.6596 C   0  0  0  0  0  0  0  0  0  0  0  0
   17.3229   -9.3214   16.5665 C   0  0  0  0  0  0  0  0  0  0  0  0
   18.9453   -9.1532   16.7230 S   0  0  0  0  0  0  0  0  0  0  0  0
   16.7519  -10.1186   15.5153 N   0  0  0  0  0  0  0  0  0  0  0  0
   16.1746  -10.8626   15.8026 H   0  0  0  0  0  0  0  0  0  0  0  0
   16.9200   -9.9632   14.0994 C   0  0  0  0  0  0  0  0  0  0  0  0
   18.1051  -10.3323   13.4476 C   0  0  0  0  0  0  0  0  0  0  0  0
   18.2477  -10.1316   12.0722 C   0  0  0  0  0  0  0  0  0  0  0  0
   17.2109   -9.5494   11.3279 C   0  0  0  0  0  0  0  0  0  0  0  0
   16.0329   -9.1658   11.9863 C   0  0  0  0  0  0  0  0  0  0  0  0
   15.8922   -9.3676   13.3621 C   0  0  0  0  0  0  0  0  0  0  0  0
   17.3556   -9.3438    9.9134 N   0  0  0  0  0  0  0  0  0  0  0  0
   16.5099   -9.9788    8.9217 C   0  0  0  0  0  0  0  0  0  0  0  0
   17.0929   -9.5925    7.5762 C   0  0  0  0  0  0  0  0  0  0  0  0
   18.0711   -8.4570    7.8409 C   0  0  0  0  0  0  0  0  0  0  0  0
   18.3632   -8.4809    9.3288 C   0  0  0  0  0  0  0  0  0  0  0  0
 11 12  1  0  0  0
 12  5  1  0  0  0
  5  6  2  0  0  0
  6  7  1  0  0  0
  7  8  2  0  0  0
  7  1  1  0  0  0
  8  9  1  0  0  0
  9 13  1  0  0  0
  9 10  2  0  0  0
 13 14  1  0  0  0
 10 15  1  0  0  0
 10  5  1  0  0  0
 15 16  1  0  0  0
  1  2  2  0  0  0
  1  3  1  0  0  0
  3 17  1  0  0  0
 17 18  2  0  0  0
 17 19  1  0  0  0
 19 21  1  0  0  0
 21 22  2  0  0  0
 22 23  1  0  0  0
 23 24  2  0  0  0
 24 25  1  0  0  0
 24 27  1  0  0  0
 25 26  2  0  0  0
 26 21  1  0  0  0
 27 28  1  0  0  0
 28 29  1  0  0  0
 29 30  1  0  0  0
 30 31  1  0  0  0
 31 27  1  0  0  0
  3  4  1  0  0  0
 19 20  1  0  0  0
M  END
>  <minimizedAffinity>
-8.87266

>  <minimizedRMSD>
1.38299

$$$$
CHEMBL3668734 PubChem-71042582


 36 40  0  0  0  0  0  0  0  0999 V2000
   18.2292  -11.2143   14.9752 C   0  0  0  0  0  0  0  0  0  0  0  0
   17.4663   -9.9026   15.0517 C   0  0  0  0  0  0  0  0  0  0  0  0
   16.8904   -9.8733   16.3841 N   0  0  0  0  0  0  0  0  0  0  0  0
   17.0608  -11.1088   17.1270 C   0  0  0  0  0  0  0  0  0  0  0  0
   17.9080  -12.0085   16.2421 C   0  0  0  0  0  0  0  0  0  0  0  0
   18.5244  -11.3370   17.4554 C   0  0  0  0  0  0  0  0  0  0  0  0
   16.2644   -8.7134   16.9471 C   0  0  0  0  0  0  0  0  0  0  0  0
   16.2312   -7.6378   16.2905 O   0  0  0  0  0  0  0  0  0  0  0  0
   15.7272   -8.7675   18.2738 N   0  0  0  0  0  0  0  0  0  0  0  0
   16.0067   -9.5217   18.8415 H   0  0  0  0  0  0  0  0  0  0  0  0
   14.8184   -7.8197   18.8462 C   0  0  0  0  0  0  0  0  0  0  0  0
   15.0738   -7.0805   19.9937 C   0  0  0  0  0  0  0  0  0  0  0  0
   13.9766   -6.3446   20.2996 N   0  0  0  0  0  0  0  0  0  0  0  0
   13.0358   -6.6360   19.3736 C   0  0  0  0  0  0  0  0  0  0  0  0
   11.7233   -6.1619   19.3000 C   0  0  0  0  0  0  0  0  0  0  0  0
   10.9028   -6.6518   18.2693 C   0  0  0  0  0  0  0  0  0  0  0  0
   11.3966   -7.6017   17.3513 C   0  0  0  0  0  0  0  0  0  0  0  0
   12.7187   -8.0674   17.4487 C   0  0  0  0  0  0  0  0  0  0  0  0
   13.5174   -7.5475   18.4670 C   0  0  0  0  0  0  0  0  0  0  0  0
   13.8718   -5.4567   21.4245 C   0  0  0  0  0  0  0  0  0  0  0  0
   14.8465   -5.3173   22.2102 O   0  0  0  0  0  0  0  0  0  0  0  0
   12.6754   -4.7229   21.6674 N   0  0  0  0  0  0  0  0  0  0  0  0
   11.9056   -4.8220   21.0617 H   0  0  0  0  0  0  0  0  0  0  0  0
   12.6182   -4.1167   22.4410 H   0  0  0  0  0  0  0  0  0  0  0  0
   16.3904   -9.8703   14.0118 C   0  0  0  0  0  0  0  0  0  0  0  0
   15.1752   -9.8832   14.3513 O   0  0  0  0  0  0  0  0  0  0  0  0
   16.7571   -9.8156   12.6321 N   0  0  0  0  0  0  0  0  0  0  0  0
   17.7128   -9.7689   12.4003 H   0  0  0  0  0  0  0  0  0  0  0  0
   15.7782   -9.8258   11.5533 C   0  0  0  0  0  0  0  0  0  0  0  0
   16.4465   -9.5884   10.2416 C   0  0  0  0  0  0  0  0  0  0  0  0
   17.5999   -8.8037   10.1659 C   0  0  0  0  0  0  0  0  0  0  0  0
   18.2215   -8.6029    8.9325 C   0  0  0  0  0  0  0  0  0  0  0  0
   17.6799   -9.1941    7.7890 C   0  0  0  0  0  0  0  0  0  0  0  0
   16.5574   -9.9572    7.8831 N   0  0  0  0  0  0  0  0  0  0  0  0
   15.9360  -10.1652    9.0755 C   0  0  0  0  0  0  0  0  0  0  0  0
   19.6665   -7.6222    8.8208 Cl  0  0  0  0  0  0  0  0  0  0  0  0
  1  2  1  0  0  0
  2  3  1  0  0  0
  2 25  1  0  0  0
  3  7  1  0  0  0
  4  3  1  0  0  0
  4  5  1  0  0  0
  5  6  1  0  0  0
  5  1  1  0  0  0
  6  4  1  0  0  0
  7  8  2  0  0  0
  7  9  1  0  0  0
  9 11  1  0  0  0
 11 12  2  0  0  0
 12 13  1  0  0  0
 13 14  1  0  0  0
 13 20  1  0  0  0
 14 15  2  0  0  0
 15 16  1  0  0  0
 16 17  2  0  0  0
 17 18  1  0  0  0
 18 19  2  0  0  0
 19 11  1  0  0  0
 19 14  1  0  0  0
 20 21  2  0  0  0
 20 22  1  0  0  0
 25 26  2  0  0  0
 25 27  1  0  0  0
 27 29  1  0  0  0
 29 30  1  0  0  0
 30 31  2  0  0  0
 31 32  1  0  0  0
 32 33  2  0  0  0
 32 36  1  0  0  0
 33 34  1  0  0  0
 34 35  2  0  0  0
 35 30  1  0  0  0
  9 10  1  0  0  0
 22 23  1  0  0  0
 22 24  1  0  0  0
 27 28  1  0  0  0
M  END
>  <minimizedAffinity>
-8.86912

>  <minimizedRMSD>
1.80409

$$$$
CHEMBL124493 PubChem-10174090 PubChem-161728621


 34 35  0  0  0  0  0  0  0  0999 V2000
   17.9841   -8.7200   15.6751 C   0  0  0  0  0  0  0  0  0  0  0  0
   16.6628   -9.3574   16.0711 C   0  0  0  0  0  0  0  0  0  0  0  0
   16.9133  -10.4379   16.9189 O   0  0  0  0  0  0  0  0  0  0  0  0
   17.4502  -11.0974   16.4523 H   0  0  0  0  0  0  0  0  0  0  0  0
   15.8296   -8.3420   16.8064 C   0  0  0  0  0  0  0  0  0  0  0  0
   15.3012   -7.3769   16.1880 O   0  0  0  0  0  0  0  0  0  0  0  0
   15.6415   -8.4912   18.2222 N   0  0  0  0  0  0  0  0  0  0  0  0
   16.0771   -9.2663   18.6450 H   0  0  0  0  0  0  0  0  0  0  0  0
   14.8861   -7.6304   19.0854 C   0  0  0  0  0  0  0  0  0  0  0  0
   15.3471   -7.4069   20.3813 C   0  0  0  0  0  0  0  0  0  0  0  0
   14.6430   -6.5678   21.2441 C   0  0  0  0  0  0  0  0  0  0  0  0
   13.4618   -5.9317   20.8318 C   0  0  0  0  0  0  0  0  0  0  0  0
   12.9645   -6.1813   19.5238 C   0  0  0  0  0  0  0  0  0  0  0  0
   13.6988   -7.0181   18.6681 C   0  0  0  0  0  0  0  0  0  0  0  0
   11.6739   -5.5903   19.0070 C   0  0  0  0  0  0  0  0  0  0  0  0
   10.6533   -5.7895   19.9197 F   0  0  0  0  0  0  0  0  0  0  0  0
   11.3012   -6.1886   17.8143 F   0  0  0  0  0  0  0  0  0  0  0  0
   11.8394   -4.2364   18.7814 F   0  0  0  0  0  0  0  0  0  0  0  0
   12.7970   -5.0542   21.7574 N   0  0  0  0  0  0  0  0  0  0  0  0
   12.1575   -5.5340   22.7164 O   0  0  0  0  0  0  0  0  0  0  0  0
   13.0386   -3.7005   21.7397 O   0  0  0  0  0  0  0  0  0  0  0  0
   15.9509   -9.8599   14.8156 C   0  0  0  0  0  0  0  0  0  0  0  0
   16.8845  -10.3940   13.8833 O   0  0  0  0  0  0  0  0  0  0  0  0
   16.8941  -10.0957   12.5129 C   0  0  0  0  0  0  0  0  0  0  0  0
   15.7341  -10.1410   11.7057 C   0  0  0  0  0  0  0  0  0  0  0  0
   14.5263  -10.4816   12.2207 F   0  0  0  0  0  0  0  0  0  0  0  0
   15.8167   -9.8304   10.3429 C   0  0  0  0  0  0  0  0  0  0  0  0
   14.7026   -9.8745    9.5703 F   0  0  0  0  0  0  0  0  0  0  0  0
   17.0429   -9.4748    9.7746 C   0  0  0  0  0  0  0  0  0  0  0  0
   17.1170   -9.1749    8.4539 F   0  0  0  0  0  0  0  0  0  0  0  0
   18.1925   -9.4282   10.5669 C   0  0  0  0  0  0  0  0  0  0  0  0
   19.3823   -9.0830   10.0146 F   0  0  0  0  0  0  0  0  0  0  0  0
   18.1180   -9.7372   11.9290 C   0  0  0  0  0  0  0  0  0  0  0  0
   19.2407   -9.6887   12.6893 F   0  0  0  0  0  0  0  0  0  0  0  0
  2  1  1  0  0  0
  2  3  1  0  0  0
  2 22  1  0  0  0
  2  5  1  0  0  0
 22 23  1  0  0  0
 23 24  1  0  0  0
 24 25  2  0  0  0
 25 26  1  0  0  0
 25 27  1  0  0  0
 27 28  1  0  0  0
 27 29  2  0  0  0
 29 30  1  0  0  0
 29 31  1  0  0  0
 31 32  1  0  0  0
 31 33  2  0  0  0
 33 34  1  0  0  0
 33 24  1  0  0  0
  5  6  2  0  0  0
  5  7  1  0  0  0
  7  9  1  0  0  0
  9 10  2  0  0  0
 10 11  1  0  0  0
 11 12  2  0  0  0
 12 19  1  0  0  0
 12 13  1  0  0  0
 19 20  2  0  0  0
 19 21  1  0  0  0
 13 15  1  0  0  0
 13 14  2  0  0  0
 15 16  1  0  0  0
 15 17  1  0  0  0
 15 18  1  0  0  0
 14  9  1  0  0  0
  3  4  1  0  0  0
  7  8  1  0  0  0
M  CHG 1  19   1
M  CHG 1  21  -1
M  END
>  <minimizedAffinity>
-8.85992

>  <minimizedRMSD>
1.65722

$$$$
CHEMBL4900787 ChemDiv-M008-7369 MCULE-9609210935 MolPort-010-961-019 PubChem-53200084 ZINC000065306318 ZINC65306318


 31 33  0  0  0  0  0  0  0  0999 V2000
   15.9000   -8.2822   18.2712 N   0  0  0  0  0  0  0  0  0  0  0  0
   15.5648   -8.2356   16.8769 C   0  0  0  0  0  0  0  0  0  0  0  0
   14.5859   -7.5504   16.4760 O   0  0  0  0  0  0  0  0  0  0  0  0
   16.6756   -8.8356   18.5190 H   0  0  0  0  0  0  0  0  0  0  0  0
   15.3644   -6.4493   21.4757 C   0  0  0  0  0  0  0  0  0  0  0  0
   15.9786   -7.1154   20.4050 C   0  0  0  0  0  0  0  0  0  0  0  0
   15.2253   -7.6085   19.3422 C   0  0  0  0  0  0  0  0  0  0  0  0
   13.8388   -7.4327   19.3511 C   0  0  0  0  0  0  0  0  0  0  0  0
   13.1964   -6.7703   20.4088 C   0  0  0  0  0  0  0  0  0  0  0  0
   13.9703   -6.2711   21.4872 C   0  0  0  0  0  0  0  0  0  0  0  0
   17.4460   -6.3923   22.8178 C   0  0  0  0  0  0  0  0  0  0  0  0
   16.1221   -5.9541   22.5433 O   0  0  0  0  0  0  0  0  0  0  0  0
   11.8061   -6.6085   20.3913 O   0  0  0  0  0  0  0  0  0  0  0  0
   11.1533   -5.5925   19.6412 C   0  0  0  0  0  0  0  0  0  0  0  0
   13.4159   -5.5959   22.5879 O   0  0  0  0  0  0  0  0  0  0  0  0
   13.1068   -4.2100   22.6239 C   0  0  0  0  0  0  0  0  0  0  0  0
   16.3634   -8.9905   15.8935 C   0  0  0  0  0  0  0  0  0  0  0  0
   17.1457  -10.1316   16.1104 C   0  0  0  0  0  0  0  0  0  0  0  0
   17.3077  -10.8019   17.4310 C   0  0  0  0  0  0  0  0  0  0  0  0
   17.7752  -10.6145   15.0055 N   0  0  0  0  0  0  0  0  0  0  0  0
   17.5093   -9.8778   13.9065 C   0  0  0  0  0  0  0  0  0  0  0  0
   16.4791   -8.5926   14.2602 S   0  0  0  0  0  0  0  0  0  0  0  0
   18.0631  -10.1968   12.6235 N   0  0  0  0  0  0  0  0  0  0  0  0
   18.9359  -10.6524   12.6243 H   0  0  0  0  0  0  0  0  0  0  0  0
   17.4868   -9.9258   11.3402 C   0  0  0  0  0  0  0  0  0  0  0  0
   16.2424  -10.3725   11.0109 N   0  0  0  0  0  0  0  0  0  0  0  0
   15.6876  -10.1199    9.7949 C   0  0  0  0  0  0  0  0  0  0  0  0
   16.3953   -9.3844    8.8425 C   0  0  0  0  0  0  0  0  0  0  0  0
   17.6718   -8.9162    9.1566 C   0  0  0  0  0  0  0  0  0  0  0  0
   18.4432   -8.1312    8.1582 C   0  0  0  0  0  0  0  0  0  0  0  0
   18.2230   -9.1865   10.4102 C   0  0  0  0  0  0  0  0  0  0  0  0
 11 12  1  0  0  0
 12  5  1  0  0  0
  5  6  2  0  0  0
  6  7  1  0  0  0
  7  1  1  0  0  0
  7  8  2  0  0  0
  1  2  1  0  0  0
  2  3  2  0  0  0
  2 17  1  0  0  0
 17 18  2  0  0  0
 18 19  1  0  0  0
 18 20  1  0  0  0
 20 21  2  0  0  0
 21 23  1  0  0  0
 21 22  1  0  0  0
 23 25  1  0  0  0
 25 26  2  0  0  0
 26 27  1  0  0  0
 27 28  2  0  0  0
 28 29  1  0  0  0
 29 30  1  0  0  0
 29 31  2  0  0  0
 31 25  1  0  0  0
 22 17  1  0  0  0
  8  9  1  0  0  0
  9 13  1  0  0  0
  9 10  2  0  0  0
 13 14  1  0  0  0
 10 15  1  0  0  0
 10  5  1  0  0  0
 15 16  1  0  0  0
  1  4  1  0  0  0
 23 24  1  0  0  0
M  END
>  <minimizedAffinity>
-8.85590

>  <minimizedRMSD>
1.53054

$$$$
CHEMBL1389891 4939737 ChemDiv-F259-0188 LN01256441 MCULE-7199141641 MolPort-000-123-952 PubChem-4009024 ZINC000004939737 ZINC04939737


 31 33  0  0  0  0  0  0  0  0999 V2000
   16.1975   -8.4290   17.9606 N   0  0  0  0  0  0  0  0  0  0  0  0
   15.0297   -7.6950   18.3603 C   0  0  0  0  0  0  0  0  0  0  0  0
   14.0967   -7.4763   17.5402 O   0  0  0  0  0  0  0  0  0  0  0  0
   16.8884   -8.5650   18.6486 H   0  0  0  0  0  0  0  0  0  0  0  0
   16.6232   -9.8359   12.0143 C   0  0  0  0  0  0  0  0  0  0  0  0
   17.2501  -10.6126   12.9306 N   0  0  0  0  0  0  0  0  0  0  0  0
   17.0408  -10.1442   14.1867 C   0  0  0  0  0  0  0  0  0  0  0  0
   17.5576  -10.7313   15.3403 C   0  0  0  0  0  0  0  0  0  0  0  0
   17.2635  -10.1432   16.5819 C   0  0  0  0  0  0  0  0  0  0  0  0
   16.4642   -8.9849   16.6659 C   0  0  0  0  0  0  0  0  0  0  0  0
   15.9507   -8.4057   15.4887 C   0  0  0  0  0  0  0  0  0  0  0  0
   16.2557   -9.0064   14.2714 C   0  0  0  0  0  0  0  0  0  0  0  0
   15.7877   -8.5410   12.7301 S   0  0  0  0  0  0  0  0  0  0  0  0
   17.4728   -9.4215    9.6359 C   0  0  0  0  0  0  0  0  0  0  0  0
   18.2041   -8.4492    9.9684 O   0  0  0  0  0  0  0  0  0  0  0  0
   16.6895  -10.1187   10.6110 N   0  0  0  0  0  0  0  0  0  0  0  0
   16.1410  -10.8681   10.2843 H   0  0  0  0  0  0  0  0  0  0  0  0
   17.9037   -8.8223    7.2339 C   0  0  0  0  0  0  0  0  0  0  0  0
   17.4031   -9.8750    8.2098 C   0  0  0  0  0  0  0  0  0  0  0  0
   14.9208   -7.1930   19.7414 C   0  0  0  0  0  0  0  0  0  0  0  0
   13.6735   -6.8767   20.2846 C   0  0  0  0  0  0  0  0  0  0  0  0
   13.5607   -6.3984   21.5978 C   0  0  0  0  0  0  0  0  0  0  0  0
   14.7113   -6.2309   22.3874 C   0  0  0  0  0  0  0  0  0  0  0  0
   15.9816   -6.5499   21.8429 C   0  0  0  0  0  0  0  0  0  0  0  0
   16.0649   -7.0269   20.5252 C   0  0  0  0  0  0  0  0  0  0  0  0
   12.3106   -6.0815   22.1420 O   0  0  0  0  0  0  0  0  0  0  0  0
   11.5107   -5.0090   21.6627 C   0  0  0  0  0  0  0  0  0  0  0  0
   14.5310   -5.7480   23.6946 O   0  0  0  0  0  0  0  0  0  0  0  0
   14.7954   -6.4839   24.8804 C   0  0  0  0  0  0  0  0  0  0  0  0
   17.1454   -6.3936   22.6049 O   0  0  0  0  0  0  0  0  0  0  0  0
   18.4192   -6.1324   22.0302 C   0  0  0  0  0  0  0  0  0  0  0  0
 18 19  1  0  0  0
 19 14  1  0  0  0
 14 15  2  0  0  0
 14 16  1  0  0  0
 16  5  1  0  0  0
  5  6  2  0  0  0
  6  7  1  0  0  0
  7  8  2  0  0  0
  8  9  1  0  0  0
  9 10  2  0  0  0
 10  1  1  0  0  0
 10 11  1  0  0  0
  1  2  1  0  0  0
  2  3  2  0  0  0
  2 20  1  0  0  0
 20 21  2  0  0  0
 21 22  1  0  0  0
 22 26  1  0  0  0
 22 23  2  0  0  0
 26 27  1  0  0  0
 23 28  1  0  0  0
 23 24  1  0  0  0
 28 29  1  0  0  0
 24 30  1  0  0  0
 24 25  2  0  0  0
 30 31  1  0  0  0
 25 20  1  0  0  0
 11 12  2  0  0  0
 12 13  1  0  0  0
 12  7  1  0  0  0
 13  5  1  0  0  0
 16 17  1  0  0  0
  1  4  1  0  0  0
M  END
>  <minimizedAffinity>
-8.85187

>  <minimizedRMSD>
1.88784

$$$$
CHEMBL1398141 ChemDiv-G674-0773 MCULE-8456019054 MolPort-010-744-492 PubChem-16029589 ZINC000008611035 ZINC08611035


 33 35  0  0  0  0  0  0  0  0999 V2000
   17.1828  -10.1697   13.3251 N   0  0  0  0  0  0  0  0  0  0  0  0
   16.6053   -9.2944   14.1512 N   0  0  0  0  0  0  0  0  0  0  0  0
   16.6107   -9.4450   15.4992 C   0  0  0  0  0  0  0  0  0  0  0  0
   17.2499  -10.5748   16.0343 C   0  0  0  0  0  0  0  0  0  0  0  0
   17.2719  -10.7717   17.2812 O   0  0  0  0  0  0  0  0  0  0  0  0
   17.8478  -11.4665   15.1927 N   0  0  0  0  0  0  0  0  0  0  0  0
   18.5164  -12.6437   15.7407 C   0  0  0  0  0  0  0  0  0  0  0  0
   17.8285  -11.2651   13.8421 C   0  0  0  0  0  0  0  0  0  0  0  0
   18.4213  -12.0799   13.0795 O   0  0  0  0  0  0  0  0  0  0  0  0
   16.9552   -9.4555    9.1274 C   0  0  0  0  0  0  0  0  0  0  0  0
   15.8617   -9.9821    9.8198 C   0  0  0  0  0  0  0  0  0  0  0  0
   15.9406  -10.2083   11.1962 C   0  0  0  0  0  0  0  0  0  0  0  0
   17.1129   -9.9039   11.9068 C   0  0  0  0  0  0  0  0  0  0  0  0
   18.2147   -9.3893   11.2027 C   0  0  0  0  0  0  0  0  0  0  0  0
   18.1363   -9.1629    9.8264 C   0  0  0  0  0  0  0  0  0  0  0  0
   17.9214   -8.7605    6.9588 C   0  0  0  0  0  0  0  0  0  0  0  0
   16.8424   -9.2357    7.7522 O   0  0  0  0  0  0  0  0  0  0  0  0
   15.9420   -8.4169   16.3293 C   0  0  0  0  0  0  0  0  0  0  0  0
   15.5903   -7.3321   15.7916 O   0  0  0  0  0  0  0  0  0  0  0  0
   15.7199   -8.6338   17.7308 N   0  0  0  0  0  0  0  0  0  0  0  0
   16.0972   -9.4583   18.1144 H   0  0  0  0  0  0  0  0  0  0  0  0
   15.0063   -7.7755   18.6303 C   0  0  0  0  0  0  0  0  0  0  0  0
   15.5241   -7.5578   19.9034 C   0  0  0  0  0  0  0  0  0  0  0  0
   14.8668   -6.7421   20.8276 C   0  0  0  0  0  0  0  0  0  0  0  0
   13.6385   -6.1224   20.4710 C   0  0  0  0  0  0  0  0  0  0  0  0
   13.1104   -6.3417   19.1705 C   0  0  0  0  0  0  0  0  0  0  0  0
   13.8020   -7.1680   18.2732 C   0  0  0  0  0  0  0  0  0  0  0  0
   15.4860   -6.5926   22.0789 O   0  0  0  0  0  0  0  0  0  0  0  0
   15.1979   -7.3658   23.2352 C   0  0  0  0  0  0  0  0  0  0  0  0
   12.9887   -5.3130   21.4191 O   0  0  0  0  0  0  0  0  0  0  0  0
   13.1481   -3.9077   21.5518 C   0  0  0  0  0  0  0  0  0  0  0  0
   11.9112   -5.7383   18.7737 O   0  0  0  0  0  0  0  0  0  0  0  0
   10.6352   -6.3263   18.9943 C   0  0  0  0  0  0  0  0  0  0  0  0
 16 17  1  0  0  0
 17 10  1  0  0  0
 10 11  2  0  0  0
 11 12  1  0  0  0
 12 13  2  0  0  0
 13 14  1  0  0  0
 13  1  1  0  0  0
 14 15  2  0  0  0
 15 10  1  0  0  0
  1  2  1  0  0  0
  2  3  2  0  0  0
  3 18  1  0  0  0
  3  4  1  0  0  0
 18 19  2  0  0  0
 18 20  1  0  0  0
 20 22  1  0  0  0
 22 23  2  0  0  0
 23 24  1  0  0  0
 24 28  1  0  0  0
 24 25  2  0  0  0
 28 29  1  0  0  0
 25 30  1  0  0  0
 25 26  1  0  0  0
 30 31  1  0  0  0
 26 32  1  0  0  0
 26 27  2  0  0  0
 32 33  1  0  0  0
 27 22  1  0  0  0
  4  5  2  0  0  0
  4  6  1  0  0  0
  6  7  1  0  0  0
  6  8  1  0  0  0
  8  9  2  0  0  0
  8  1  1  0  0  0
 20 21  1  0  0  0
M  END
>  <minimizedAffinity>
-8.84954

>  <minimizedRMSD>
1.87341

$$$$
CHEMBL3397883 PubChem-118727075


 30 32  0  0  0  0  0  0  0  0999 V2000
   16.0685   -8.9710   16.6449 C   0  0  0  0  0  0  0  0  0  0  0  0
   16.0567   -8.1750   17.8613 N   0  0  0  0  0  0  0  0  0  0  0  0
   16.5743   -7.3080   17.7168 H   0  0  0  0  0  0  0  0  0  0  0  0
   14.6659   -7.8802   18.1677 C   0  0  0  0  0  0  0  0  0  0  0  0
   14.5603   -7.1810   19.4812 C   0  0  0  0  0  0  0  0  0  0  0  0
   15.6276   -7.2231   20.3743 C   0  0  0  0  0  0  0  0  0  0  0  0
   15.5436   -6.5786   21.6172 C   0  0  0  0  0  0  0  0  0  0  0  0
   14.3734   -5.8845   21.9731 C   0  0  0  0  0  0  0  0  0  0  0  0
   13.2829   -5.8454   21.0659 C   0  0  0  0  0  0  0  0  0  0  0  0
   13.3941   -6.4995   19.8283 C   0  0  0  0  0  0  0  0  0  0  0  0
   12.1046   -5.1644   21.3937 O   0  0  0  0  0  0  0  0  0  0  0  0
   11.0420   -4.9646   20.4707 C   0  0  0  0  0  0  0  0  0  0  0  0
   14.3532   -5.2592   23.2315 O   0  0  0  0  0  0  0  0  0  0  0  0
   13.8177   -5.8288   24.4174 C   0  0  0  0  0  0  0  0  0  0  0  0
   16.6138   -6.6140   22.5186 O   0  0  0  0  0  0  0  0  0  0  0  0
   17.9427   -6.2682   22.1515 C   0  0  0  0  0  0  0  0  0  0  0  0
   17.4321   -8.8642   15.9556 C   0  0  0  0  0  0  0  0  0  0  0  0
   17.1736   -9.5615   11.9423 N   0  0  0  0  0  0  0  0  0  0  0  0
   15.8590   -9.4234   12.5680 C   0  0  0  0  0  0  0  0  0  0  0  0
   15.9966   -8.9615   14.0255 C   0  0  0  0  0  0  0  0  0  0  0  0
   17.3816   -9.0677   14.5029 N   0  0  0  0  0  0  0  0  0  0  0  0
   17.9541  -10.3738   14.1582 C   0  0  0  0  0  0  0  0  0  0  0  0
   17.9145  -10.6138   12.6409 C   0  0  0  0  0  0  0  0  0  0  0  0
   16.9568  -10.0325   10.5834 C   0  0  0  0  0  0  0  0  0  0  0  0
   17.6660   -9.1524    9.6095 C   0  0  0  0  0  0  0  0  0  0  0  0
   17.1857   -9.0382    8.3008 C   0  0  0  0  0  0  0  0  0  0  0  0
   17.8494   -8.2219    7.3796 C   0  0  0  0  0  0  0  0  0  0  0  0
   18.9964   -7.5212    7.7654 C   0  0  0  0  0  0  0  0  0  0  0  0
   19.4809   -7.6376    9.0718 C   0  0  0  0  0  0  0  0  0  0  0  0
   18.8175   -8.4537    9.9933 C   0  0  0  0  0  0  0  0  0  0  0  0
 18 19  1  0  0  0
 19 20  1  0  0  0
 20 21  1  0  0  0
 21 22  1  0  0  0
 22 23  1  0  0  0
 21 17  1  0  0  0
 17  1  1  0  0  0
  1  2  1  0  0  0
  2  4  1  0  0  0
  4  5  1  0  0  0
  5  6  2  0  0  0
  6  7  1  0  0  0
  7  8  2  0  0  0
  8  9  1  0  0  0
  9 10  2  0  0  0
  9 11  1  0  0  0
 11 12  1  0  0  0
  8 13  1  0  0  0
 13 14  1  0  0  0
  7 15  1  0  0  0
 15 16  1  0  0  0
 18 24  1  0  0  0
 24 25  1  0  0  0
 25 26  2  0  0  0
 26 27  1  0  0  0
 27 28  2  0  0  0
 28 29  1  0  0  0
 29 30  2  0  0  0
 23 18  1  0  0  0
 10  5  1  0  0  0
 30 25  1  0  0  0
  2  3  1  0  0  0
M  END
>  <minimizedAffinity>
-8.84244

>  <minimizedRMSD>
1.59157

$$$$
CHEMBL3126627 PubChem-24851764


 37 39  0  0  0  0  0  0  0  0999 V2000
   12.6841   -6.7589   18.9478 C   0  0  0  0  0  0  0  0  0  0  0  0
   13.5730   -7.2955   18.0100 C   0  0  0  0  0  0  0  0  0  0  0  0
   14.7619   -7.9021   18.4211 C   0  0  0  0  0  0  0  0  0  0  0  0
   15.0518   -7.9836   19.7856 C   0  0  0  0  0  0  0  0  0  0  0  0
   14.1759   -7.4582   20.7391 C   0  0  0  0  0  0  0  0  0  0  0  0
   14.5398   -7.6509   22.1712 C   0  0  0  0  0  0  0  0  0  0  0  0
   12.9745   -6.8265   20.3235 C   0  0  0  0  0  0  0  0  0  0  0  0
   15.6925   -8.4618   17.4287 C   0  0  0  0  0  0  0  0  0  0  0  0
   16.8470   -9.0799   17.7492 N   0  0  0  0  0  0  0  0  0  0  0  0
   17.3678   -9.4245   16.6116 O   0  0  0  0  0  0  0  0  0  0  0  0
   16.5834   -9.0435   15.6329 C   0  0  0  0  0  0  0  0  0  0  0  0
   15.4841   -8.4156   16.0952 N   0  0  0  0  0  0  0  0  0  0  0  0
   16.8660   -9.2738   14.2099 C   0  0  0  0  0  0  0  0  0  0  0  0
   15.9711   -8.8440   13.2245 C   0  0  0  0  0  0  0  0  0  0  0  0
   16.2542   -9.0707   11.8767 C   0  0  0  0  0  0  0  0  0  0  0  0
   17.4384   -9.7263   11.5287 C   0  0  0  0  0  0  0  0  0  0  0  0
   18.2957  -10.1431   12.4996 N   0  0  0  0  0  0  0  0  0  0  0  0
   18.0374   -9.9312   13.8182 C   0  0  0  0  0  0  0  0  0  0  0  0
   17.7497   -9.9940   10.0946 C   0  0  0  0  0  0  0  0  0  0  0  0
   17.6814   -8.7154    9.2738 C   0  0  0  0  0  0  0  0  0  0  0  0
   19.0098   -7.9943    9.3611 C   0  0  0  0  0  0  0  0  0  0  0  0
   17.3856   -9.0357    7.8204 C   0  0  0  0  0  0  0  0  0  0  0  0
   11.5604   -4.6178   18.4086 C   0  0  0  0  0  0  0  0  0  0  0  0
   11.4154   -6.1271   18.4718 C   0  0  0  0  0  0  0  0  0  0  0  0
   12.0413   -6.2702   21.2179 O   0  0  0  0  0  0  0  0  0  0  0  0
   12.3659   -5.6094   22.4356 C   0  0  0  0  0  0  0  0  0  0  0  0
   12.7935   -4.1789   22.1599 C   0  0  0  0  0  0  0  0  0  0  0  0
   11.6942   -3.4370   21.7251 O   0  0  0  0  0  0  0  0  0  0  0  0
   11.0087   -3.4421   22.4113 H   0  0  0  0  0  0  0  0  0  0  0  0
   13.3546   -3.5701   23.4301 C   0  0  0  0  0  0  0  0  0  0  0  0
   14.7995   -3.7294   23.4584 N   0  0  0  0  0  0  0  0  0  0  0  0
   15.4378   -4.6924   24.2970 C   0  0  0  0  0  0  0  0  0  0  0  0
   14.7579   -5.4397   25.0502 O   0  0  0  0  0  0  0  0  0  0  0  0
   15.3544   -3.1559   22.8819 H   0  0  0  0  0  0  0  0  0  0  0  0
   16.9216   -4.7925   24.3043 C   0  0  0  0  0  0  0  0  0  0  0  0
   17.4732   -3.6018   23.8330 O   0  0  0  0  0  0  0  0  0  0  0  0
   17.1665   -3.4397   22.9272 H   0  0  0  0  0  0  0  0  0  0  0  0
 23 24  1  0  0  0
 24  1  1  0  0  0
  1  2  2  0  0  0
  2  3  1  0  0  0
  3  8  1  0  0  0
  3  4  2  0  0  0
  8  9  2  0  0  0
  9 10  1  0  0  0
 10 11  1  0  0  0
 11 13  1  0  0  0
 11 12  2  0  0  0
 13 14  2  0  0  0
 14 15  1  0  0  0
 15 16  2  0  0  0
 16 19  1  0  0  0
 16 17  1  0  0  0
 19 20  1  0  0  0
 20 21  1  0  0  0
 20 22  1  0  0  0
 17 18  2  0  0  0
 18 13  1  0  0  0
 12  8  1  0  0  0
  4  5  1  0  0  0
  5  6  1  0  0  0
  5  7  2  0  0  0
  7 25  1  0  0  0
  7  1  1  0  0  0
 25 26  1  0  0  0
 27 26  1  0  0  0
 27 28  1  0  0  0
 27 30  1  0  0  0
 30 31  1  0  0  0
 31 32  1  0  0  0
 32 33  2  0  0  0
 32 35  1  0  0  0
 35 36  1  0  0  0
 28 29  1  0  0  0
 31 34  1  0  0  0
 36 37  1  0  0  0
M  END
>  <minimizedAffinity>
-8.83642

>  <minimizedRMSD>
1.81891

$$$$
CHEMBL3355064 PubChem-118720609


 32 35  0  0  0  0  0  0  0  0999 V2000
   14.3419   -7.3877   18.5561 C   0  0  0  0  0  0  0  0  0  0  0  0
   14.8634   -7.8051   19.7880 C   0  0  0  0  0  0  0  0  0  0  0  0
   14.3185   -7.3263   20.9798 C   0  0  0  0  0  0  0  0  0  0  0  0
   13.2445   -6.4300   20.9599 C   0  0  0  0  0  0  0  0  0  0  0  0
   12.7074   -6.0027   19.7230 C   0  0  0  0  0  0  0  0  0  0  0  0
   13.2722   -6.4897   18.5336 C   0  0  0  0  0  0  0  0  0  0  0  0
   11.5618   -5.0227   19.6499 C   0  0  0  0  0  0  0  0  0  0  0  0
   10.3915   -5.6330   20.0643 F   0  0  0  0  0  0  0  0  0  0  0  0
   11.8257   -3.9390   20.4670 F   0  0  0  0  0  0  0  0  0  0  0  0
   11.3802   -4.5646   18.3554 F   0  0  0  0  0  0  0  0  0  0  0  0
   14.8659   -7.8462   17.3446 O   0  0  0  0  0  0  0  0  0  0  0  0
   15.8210   -8.8958   17.2694 C   0  0  0  0  0  0  0  0  0  0  0  0
   16.5493   -9.2541   14.7276 C   0  0  0  0  0  0  0  0  0  0  0  0
   16.2203   -9.0925   15.8760 C   0  0  0  0  0  0  0  0  0  0  0  0
   15.9663   -9.5270   12.3597 C   0  0  0  0  0  0  0  0  0  0  0  0
   16.9410   -9.4458   13.3601 C   0  0  0  0  0  0  0  0  0  0  0  0
   18.2973   -9.5507   13.0299 C   0  0  0  0  0  0  0  0  0  0  0  0
   18.6857   -9.7372   11.6991 C   0  0  0  0  0  0  0  0  0  0  0  0
   17.7164   -9.8190   10.6955 C   0  0  0  0  0  0  0  0  0  0  0  0
   16.3493   -9.7131   11.0291 C   0  0  0  0  0  0  0  0  0  0  0  0
   15.3929   -9.7967   10.0162 C   0  0  0  0  0  0  0  0  0  0  0  0
   15.7841   -9.9782    8.7256 N   0  0  0  0  0  0  0  0  0  0  0  0
   17.0977  -10.0828    8.3832 C   0  0  0  0  0  0  0  0  0  0  0  0
   18.0902  -10.0049    9.3642 C   0  0  0  0  0  0  0  0  0  0  0  0
   12.7182   -5.9289   22.2684 C   0  0  0  0  0  0  0  0  0  0  0  0
   13.6396   -4.9623   22.8438 N   0  0  0  0  0  0  0  0  0  0  0  0
   12.9623   -4.3664   23.9949 C   0  0  0  0  0  0  0  0  0  0  0  0
   13.8974   -3.4127   24.7551 C   0  0  0  0  0  0  0  0  0  0  0  0
   15.2563   -3.4382   24.2096 N   0  0  0  0  0  0  0  0  0  0  0  0
   15.7321   -4.8213   24.1726 C   0  0  0  0  0  0  0  0  0  0  0  0
   14.8082   -5.7064   23.3212 C   0  0  0  0  0  0  0  0  0  0  0  0
   15.8723   -2.8809   24.8014 H   0  0  0  0  0  0  0  0  0  0  0  0
 15 16  2  0  0  0
 16 17  1  0  0  0
 17 18  2  0  0  0
 18 19  1  0  0  0
 19 20  2  0  0  0
 20 21  1  0  0  0
 21 22  2  0  0  0
 22 23  1  0  0  0
 23 24  2  0  0  0
 16 13  1  0  0  0
 13 14  3  0  0  0
 14 12  1  0  0  0
 12 11  1  0  0  0
 11  1  1  0  0  0
  1  2  2  0  0  0
  2  3  1  0  0  0
  3  4  2  0  0  0
  4  5  1  0  0  0
  5  6  2  0  0  0
  5  7  1  0  0  0
  7  8  1  0  0  0
  7  9  1  0  0  0
  7 10  1  0  0  0
  4 25  1  0  0  0
 25 26  1  0  0  0
 26 27  1  0  0  0
 27 28  1  0  0  0
 28 29  1  0  0  0
 29 30  1  0  0  0
 30 31  1  0  0  0
 20 15  1  0  0  0
  6  1  1  0  0  0
 31 26  1  0  0  0
 24 19  1  0  0  0
 29 32  1  0  0  0
M  END
>  <minimizedAffinity>
-8.82880

>  <minimizedRMSD>
1.92448

$$$$
CHEMBL3904372 PubChem-53247316


 35 38  0  0  0  0  0  0  0  0999 V2000
   15.4562   -8.0982   17.0715 C   0  0  0  0  0  0  0  0  0  0  0  0
   14.8400   -7.6640   16.0599 O   0  0  0  0  0  0  0  0  0  0  0  0
   16.5390   -9.0253   16.9178 N   0  0  0  0  0  0  0  0  0  0  0  0
   16.9901   -9.3367   17.7356 H   0  0  0  0  0  0  0  0  0  0  0  0
   10.7002   -6.7950   18.6041 C   0  0  0  0  0  0  0  0  0  0  0  0
   11.1137   -5.7122   19.5861 C   0  0  0  0  0  0  0  0  0  0  0  0
    9.9083   -5.4564   20.5164 C   0  0  0  0  0  0  0  0  0  0  0  0
   10.2835   -4.7993   21.7709 N   0  0  0  0  0  0  0  0  0  0  0  0
   11.5004   -5.1419   22.4316 C   0  0  0  0  0  0  0  0  0  0  0  0
   11.7137   -4.7752   23.6170 O   0  0  0  0  0  0  0  0  0  0  0  0
   12.5005   -5.8758   21.6661 C   0  0  0  0  0  0  0  0  0  0  0  0
   13.7594   -6.2813   22.1101 C   0  0  0  0  0  0  0  0  0  0  0  0
   14.3359   -6.8077   20.9683 C   0  0  0  0  0  0  0  0  0  0  0  0
   13.4496   -6.6918   19.9271 C   0  0  0  0  0  0  0  0  0  0  0  0
   12.3013   -6.1342   20.3545 N   0  0  0  0  0  0  0  0  0  0  0  0
   13.7822   -7.0963   18.6336 C   0  0  0  0  0  0  0  0  0  0  0  0
   15.0610   -7.6500   18.4181 C   0  0  0  0  0  0  0  0  0  0  0  0
   15.9639   -7.7719   19.5011 C   0  0  0  0  0  0  0  0  0  0  0  0
   15.6075   -7.3449   20.7920 C   0  0  0  0  0  0  0  0  0  0  0  0
   11.4292   -4.4435   18.8137 C   0  0  0  0  0  0  0  0  0  0  0  0
    9.6913   -4.1163   22.1608 H   0  0  0  0  0  0  0  0  0  0  0  0
   17.0142   -9.5328   15.6673 C   0  0  0  0  0  0  0  0  0  0  0  0
   18.0628  -10.4174   15.5405 C   0  0  0  0  0  0  0  0  0  0  0  0
   18.1973  -10.6470   14.2243 N   0  0  0  0  0  0  0  0  0  0  0  0
   17.2491   -9.9134   13.5978 C   0  0  0  0  0  0  0  0  0  0  0  0
   16.4951   -9.2080   14.4656 N   0  0  0  0  0  0  0  0  0  0  0  0
   19.1929  -11.5284   13.6369 C   0  0  0  0  0  0  0  0  0  0  0  0
   17.0295   -9.8608   12.1398 C   0  0  0  0  0  0  0  0  0  0  0  0
   15.9473  -10.2996   11.6644 O   0  0  0  0  0  0  0  0  0  0  0  0
   18.0302   -9.3187   11.2676 N   0  0  0  0  0  0  0  0  0  0  0  0
   18.8605   -8.9870   11.6798 H   0  0  0  0  0  0  0  0  0  0  0  0
   17.9135   -9.2202    9.8149 C   0  0  0  0  0  0  0  0  0  0  0  0
   18.4969  -10.4702    9.1914 C   0  0  0  0  0  0  0  0  0  0  0  0
   16.4557   -9.1089    9.4071 C   0  0  0  0  0  0  0  0  0  0  0  0
   18.6834   -8.0168    9.3021 C   0  0  0  0  0  0  0  0  0  0  0  0
  5  6  1  0  0  0
  6  7  1  0  0  0
  6 20  1  0  0  0
  7  8  1  0  0  0
  8  9  1  0  0  0
  9 10  2  0  0  0
  9 11  1  0  0  0
 11 12  2  0  0  0
 12 13  1  0  0  0
 13 14  2  0  0  0
 14 15  1  0  0  0
 14 16  1  0  0  0
 15  6  1  0  0  0
 15 11  1  0  0  0
 16 17  2  0  0  0
 17 18  1  0  0  0
 17  1  1  0  0  0
 18 19  2  0  0  0
 19 13  1  0  0  0
  1  2  2  0  0  0
  1  3  1  0  0  0
  3 22  1  0  0  0
 22 23  2  0  0  0
 23 24  1  0  0  0
 24 25  1  0  0  0
 24 27  1  0  0  0
 25 26  2  0  0  0
 25 28  1  0  0  0
 26 22  1  0  0  0
 28 29  2  0  0  0
 28 30  1  0  0  0
 30 32  1  0  0  0
 32 33  1  0  0  0
 32 34  1  0  0  0
 32 35  1  0  0  0
  8 21  1  0  0  0
  3  4  1  0  0  0
 30 31  1  0  0  0
M  END
>  <minimizedAffinity>
-8.82237

>  <minimizedRMSD>
1.59499

$$$$
CHEMBL4582100 PubChem-155566060


 33 36  0  0  0  0  0  0  0  0999 V2000
   14.3575   -6.3662   22.3966 C   0  0  0  0  0  0  0  0  0  0  0  0
   15.5496   -6.8979   21.8888 C   0  0  0  0  0  0  0  0  0  0  0  0
   15.6684   -7.1928   20.5294 C   0  0  0  0  0  0  0  0  0  0  0  0
   14.5956   -6.9604   19.6542 C   0  0  0  0  0  0  0  0  0  0  0  0
   13.3976   -6.4281   20.1536 C   0  0  0  0  0  0  0  0  0  0  0  0
   13.2871   -6.1347   21.5226 C   0  0  0  0  0  0  0  0  0  0  0  0
   12.7402   -4.4400   28.3222 C   0  0  0  0  0  0  0  0  0  0  0  0
   11.7695   -4.0235   27.4053 C   0  0  0  0  0  0  0  0  0  0  0  0
   11.9081   -4.3291   26.0478 C   0  0  0  0  0  0  0  0  0  0  0  0
   13.0189   -5.0525   25.6042 C   0  0  0  0  0  0  0  0  0  0  0  0
   13.9989   -5.4737   26.5257 C   0  0  0  0  0  0  0  0  0  0  0  0
   13.8538   -5.1639   27.8853 C   0  0  0  0  0  0  0  0  0  0  0  0
   15.0957   -6.1959   26.0396 C   0  0  0  0  0  0  0  0  0  0  0  0
   16.0017   -6.5973   26.8184 O   0  0  0  0  0  0  0  0  0  0  0  0
   15.1853   -6.4680   24.7115 N   0  0  0  0  0  0  0  0  0  0  0  0
   14.2299   -6.0541   23.8327 C   0  0  0  0  0  0  0  0  0  0  0  0
   13.1561   -5.3506   24.2873 N   0  0  0  0  0  0  0  0  0  0  0  0
   15.9590   -6.9762   24.3761 H   0  0  0  0  0  0  0  0  0  0  0  0
   12.3328   -6.1995   19.2752 O   0  0  0  0  0  0  0  0  0  0  0  0
   11.9591   -4.8988   18.8416 C   0  0  0  0  0  0  0  0  0  0  0  0
   14.6978   -7.2500   18.2896 O   0  0  0  0  0  0  0  0  0  0  0  0
   15.0795   -8.5310   17.8002 C   0  0  0  0  0  0  0  0  0  0  0  0
   15.6895   -8.4236   16.4411 C   0  0  0  0  0  0  0  0  0  0  0  0
   15.9072   -7.2918   15.9296 O   0  0  0  0  0  0  0  0  0  0  0  0
   16.0187   -9.6279   15.7374 N   0  0  0  0  0  0  0  0  0  0  0  0
   15.8208  -10.4754   16.1977 H   0  0  0  0  0  0  0  0  0  0  0  0
   16.6063   -9.7277   14.4329 C   0  0  0  0  0  0  0  0  0  0  0  0
   15.9236   -9.3193   13.2764 C   0  0  0  0  0  0  0  0  0  0  0  0
   16.5287   -9.4318   12.0214 C   0  0  0  0  0  0  0  0  0  0  0  0
   17.8206   -9.9533   11.9137 C   0  0  0  0  0  0  0  0  0  0  0  0
   18.5064  -10.3619   13.0607 C   0  0  0  0  0  0  0  0  0  0  0  0
   17.8998  -10.2489   14.3155 C   0  0  0  0  0  0  0  0  0  0  0  0
   18.4080  -10.0627   10.6983 F   0  0  0  0  0  0  0  0  0  0  0  0
  7  8  2  0  0  0
  8  9  1  0  0  0
  9 10  2  0  0  0
 10 11  1  0  0  0
 11 12  2  0  0  0
 11 13  1  0  0  0
 13 14  2  0  0  0
 13 15  1  0  0  0
 15 16  1  0  0  0
 16 17  2  0  0  0
 16  1  1  0  0  0
  1  2  2  0  0  0
  2  3  1  0  0  0
  3  4  2  0  0  0
  4  5  1  0  0  0
  5  6  2  0  0  0
  5 19  1  0  0  0
 19 20  1  0  0  0
  4 21  1  0  0  0
 21 22  1  0  0  0
 22 23  1  0  0  0
 23 24  2  0  0  0
 23 25  1  0  0  0
 25 27  1  0  0  0
 27 28  2  0  0  0
 28 29  1  0  0  0
 29 30  2  0  0  0
 30 31  1  0  0  0
 31 32  2  0  0  0
 30 33  1  0  0  0
 12  7  1  0  0  0
  6  1  1  0  0  0
 32 27  1  0  0  0
 17 10  1  0  0  0
 15 18  1  0  0  0
 25 26  1  0  0  0
M  END
>  <minimizedAffinity>
-8.81655

>  <minimizedRMSD>
1.84312

$$$$
CHEMBL2031246 MCULE-5347508660 PubChem-57326207 ZINC84654091


 36 38  0  0  0  0  0  0  0  0999 V2000
   17.0796   -8.8496   16.7054 C   0  0  0  0  0  0  0  0  0  0  0  0
   18.6954   -8.5811   16.7642 S   0  0  0  0  0  0  0  0  0  0  0  0
   15.0180   -7.7666   17.7558 C   0  0  0  0  0  0  0  0  0  0  0  0
   14.4831   -7.5182   16.6404 O   0  0  0  0  0  0  0  0  0  0  0  0
   16.2929   -8.4223   17.8228 N   0  0  0  0  0  0  0  0  0  0  0  0
   16.6604   -8.5942   18.7198 H   0  0  0  0  0  0  0  0  0  0  0  0
   12.4497   -6.3205   20.1332 C   0  0  0  0  0  0  0  0  0  0  0  0
   13.1204   -6.6886   18.9575 C   0  0  0  0  0  0  0  0  0  0  0  0
   14.3269   -7.3861   19.0010 C   0  0  0  0  0  0  0  0  0  0  0  0
   14.8684   -7.7282   20.2401 C   0  0  0  0  0  0  0  0  0  0  0  0
   14.2329   -7.3805   21.4344 C   0  0  0  0  0  0  0  0  0  0  0  0
   13.0096   -6.6599   21.3954 C   0  0  0  0  0  0  0  0  0  0  0  0
   11.0638   -4.4429   19.2952 C   0  0  0  0  0  0  0  0  0  0  0  0
   11.2338   -5.6338   20.0513 O   0  0  0  0  0  0  0  0  0  0  0  0
   12.3987   -6.3003   22.6102 O   0  0  0  0  0  0  0  0  0  0  0  0
   12.5694   -5.0615   23.2848 C   0  0  0  0  0  0  0  0  0  0  0  0
   14.8690   -7.7815   22.6208 O   0  0  0  0  0  0  0  0  0  0  0  0
   15.8180   -7.0104   23.3426 C   0  0  0  0  0  0  0  0  0  0  0  0
   16.4858   -9.6354   15.6577 N   0  0  0  0  0  0  0  0  0  0  0  0
   15.5176   -9.7960   15.7356 H   0  0  0  0  0  0  0  0  0  0  0  0
   17.1286  -10.2148   14.5124 C   0  0  0  0  0  0  0  0  0  0  0  0
   18.0030  -11.3049   14.6236 C   0  0  0  0  0  0  0  0  0  0  0  0
   18.6262  -11.8290   13.4904 C   0  0  0  0  0  0  0  0  0  0  0  0
   18.3867  -11.2600   12.2386 C   0  0  0  0  0  0  0  0  0  0  0  0
   17.5266  -10.1606   12.1124 C   0  0  0  0  0  0  0  0  0  0  0  0
   16.9086   -9.6416   13.2553 C   0  0  0  0  0  0  0  0  0  0  0  0
   17.2618   -9.5461   10.8439 N   0  0  0  0  0  0  0  0  0  0  0  0
   18.2129   -8.8832   10.0012 C   0  0  0  0  0  0  0  0  0  0  0  0
   19.4313   -8.8166   10.3209 O   0  0  0  0  0  0  0  0  0  0  0  0
   16.3331   -9.5834   10.5193 H   0  0  0  0  0  0  0  0  0  0  0  0
   17.7504   -8.2915    8.7105 C   0  0  0  0  0  0  0  0  0  0  0  0
   17.5758   -9.3988    7.6596 C   0  0  0  0  0  0  0  0  0  0  0  0
   17.7357   -8.8544    6.2422 C   0  0  0  0  0  0  0  0  0  0  0  0
   19.1287   -8.2491    6.0250 C   0  0  0  0  0  0  0  0  0  0  0  0
   19.7525   -7.6568    7.2963 C   0  0  0  0  0  0  0  0  0  0  0  0
   18.6792   -7.1505    8.2590 C   0  0  0  0  0  0  0  0  0  0  0  0
 13 14  1  0  0  0
 14  7  1  0  0  0
  7  8  2  0  0  0
  8  9  1  0  0  0
  9 10  2  0  0  0
 10 11  1  0  0  0
 11 12  2  0  0  0
 12 15  1  0  0  0
 15 16  1  0  0  0
 11 17  1  0  0  0
 17 18  1  0  0  0
  9  3  1  0  0  0
  3  4  2  0  0  0
  3  5  1  0  0  0
  5  1  1  0  0  0
  1  2  2  0  0  0
  1 19  1  0  0  0
 19 21  1  0  0  0
 21 22  2  0  0  0
 22 23  1  0  0  0
 23 24  2  0  0  0
 24 25  1  0  0  0
 25 26  2  0  0  0
 25 27  1  0  0  0
 27 28  1  0  0  0
 28 29  2  0  0  0
 28 31  1  0  0  0
 31 32  1  0  0  0
 32 33  1  0  0  0
 33 34  1  0  0  0
 34 35  1  0  0  0
 35 36  1  0  0  0
 12  7  1  0  0  0
 26 21  1  0  0  0
 36 31  1  0  0  0
  5  6  1  0  0  0
 19 20  1  0  0  0
 27 30  1  0  0  0
M  END
>  <minimizedAffinity>
-8.81116

>  <minimizedRMSD>
1.70016

$$$$
CHEMBL5181691


 40 43  0  0  0  0  0  0  0  0999 V2000
   17.4280  -10.4887   12.4356 C   0  0  0  0  0  0  0  0  0  0  0  0
   18.3312  -11.4156   12.8587 N   0  0  0  0  0  0  0  0  0  0  0  0
   18.7115  -11.4921   14.1616 C   0  0  0  0  0  0  0  0  0  0  0  0
   18.1908  -10.6341   15.0772 N   0  0  0  0  0  0  0  0  0  0  0  0
   17.2858   -9.6903   14.7065 C   0  0  0  0  0  0  0  0  0  0  0  0
   16.8810   -9.5964   13.3646 C   0  0  0  0  0  0  0  0  0  0  0  0
   15.9761   -8.6527   12.9937 N   0  0  0  0  0  0  0  0  0  0  0  0
   15.4554   -7.7947   13.9092 C   0  0  0  0  0  0  0  0  0  0  0  0
   15.8357   -7.8713   15.2121 N   0  0  0  0  0  0  0  0  0  0  0  0
   16.7388   -8.7981   15.6359 C   0  0  0  0  0  0  0  0  0  0  0  0
   17.1371   -8.8742   17.0158 N   0  0  0  0  0  0  0  0  0  0  0  0
   18.0112   -9.2861   17.2044 H   0  0  0  0  0  0  0  0  0  0  0  0
   16.3973   -8.4163   18.1236 N   0  0  0  0  0  0  0  0  0  0  0  0
   15.1962   -7.9385   18.0365 C   0  0  0  0  0  0  0  0  0  0  0  0
   14.4684   -7.4745   19.2214 C   0  0  0  0  0  0  0  0  0  0  0  0
   13.2821   -6.7583   19.0519 C   0  0  0  0  0  0  0  0  0  0  0  0
   12.5592   -6.2988   20.1641 C   0  0  0  0  0  0  0  0  0  0  0  0
   13.0377   -6.5645   21.4557 C   0  0  0  0  0  0  0  0  0  0  0  0
   14.2285   -7.2831   21.6369 C   0  0  0  0  0  0  0  0  0  0  0  0
   14.9389   -7.7353   20.5140 C   0  0  0  0  0  0  0  0  0  0  0  0
   12.3275   -6.1126   22.5626 O   0  0  0  0  0  0  0  0  0  0  0  0
   11.5317   -5.6323   22.4446 H   0  0  0  0  0  0  0  0  0  0  0  0
   14.6853   -7.5355   22.9350 O   0  0  0  0  0  0  0  0  0  0  0  0
   15.9032   -7.0038   23.4386 C   0  0  0  0  0  0  0  0  0  0  0  0
   11.3689   -5.5798   20.0096 O   0  0  0  0  0  0  0  0  0  0  0  0
   11.2140   -4.5466   19.0461 C   0  0  0  0  0  0  0  0  0  0  0  0
   17.0311  -10.4137   11.0572 N   0  0  0  0  0  0  0  0  0  0  0  0
   16.3062  -11.0191   10.7792 H   0  0  0  0  0  0  0  0  0  0  0  0
   17.5692   -9.5584   10.0389 C   0  0  0  0  0  0  0  0  0  0  0  0
   16.9401   -9.5244    8.7901 C   0  0  0  0  0  0  0  0  0  0  0  0
   17.4322   -8.7048    7.7703 C   0  0  0  0  0  0  0  0  0  0  0  0
   18.5600   -7.9076    7.9872 C   0  0  0  0  0  0  0  0  0  0  0  0
   19.1952   -7.9405    9.2385 C   0  0  0  0  0  0  0  0  0  0  0  0
   18.7017   -8.7604   10.2566 C   0  0  0  0  0  0  0  0  0  0  0  0
   19.0288   -7.0995    6.9457 O   0  0  0  0  0  0  0  0  0  0  0  0
   20.1625   -7.4310    6.1486 C   0  0  0  0  0  0  0  0  0  0  0  0
   19.8294   -7.3224    4.6692 C   0  0  0  0  0  0  0  0  0  0  0  0
   18.9051   -8.4510    4.2565 C   0  0  0  0  0  0  0  0  0  0  0  0
   17.9891   -7.9809    3.3170 O   0  0  0  0  0  0  0  0  0  0  0  0
   17.4676   -7.2614    3.7058 H   0  0  0  0  0  0  0  0  0  0  0  0
  1  2  2  0  0  0
  2  3  1  0  0  0
  3  4  2  0  0  0
  4  5  1  0  0  0
  5  6  2  0  0  0
  6  7  1  0  0  0
  7  8  2  0  0  0
  8  9  1  0  0  0
  9 10  2  0  0  0
 10 11  1  0  0  0
 11 13  1  0  0  0
 13 14  2  0  0  0
 14 15  1  0  0  0
 15 16  2  0  0  0
 16 17  1  0  0  0
 17 18  2  0  0  0
 18 19  1  0  0  0
 19 20  2  0  0  0
 19 23  1  0  0  0
 23 24  1  0  0  0
 18 21  1  0  0  0
 17 25  1  0  0  0
 25 26  1  0  0  0
  1 27  1  0  0  0
 27 29  1  0  0  0
 29 30  2  0  0  0
 30 31  1  0  0  0
 31 32  2  0  0  0
 32 33  1  0  0  0
 33 34  2  0  0  0
 32 35  1  0  0  0
 35 36  1  0  0  0
 36 37  1  0  0  0
 37 38  1  0  0  0
 38 39  1  0  0  0
  6  1  1  0  0  0
 20 15  1  0  0  0
 34 29  1  0  0  0
 10  5  1  0  0  0
 11 12  1  0  0  0
 21 22  1  0  0  0
 27 28  1  0  0  0
 39 40  1  0  0  0
M  END
>  <minimizedAffinity>
-8.80300

>  <minimizedRMSD>
1.89318

$$$$
CHEMBL4984535 33013086 ChemDiv-D400-3666 MCULE-2387379610 MCULE-3243689754 MolPort-007-705-086 MolPort-047-120-545 PubChem-46267194 ZINC000033013086 ZINC33013086


 36 40  0  0  0  0  0  0  0  0999 V2000
   13.6798   -6.9662   18.9373 C   0  0  0  0  0  0  0  0  0  0  0  0
   14.8981   -7.3630   18.3659 C   0  0  0  0  0  0  0  0  0  0  0  0
   16.0127   -7.5785   19.1918 C   0  0  0  0  0  0  0  0  0  0  0  0
   15.9175   -7.3961   20.5721 C   0  0  0  0  0  0  0  0  0  0  0  0
   14.7074   -6.9965   21.1490 C   0  0  0  0  0  0  0  0  0  0  0  0
   13.5931   -6.7851   20.3280 C   0  0  0  0  0  0  0  0  0  0  0  0
   14.6063   -6.8061   22.6039 C   0  0  0  0  0  0  0  0  0  0  0  0
   15.3327   -7.5011   23.5020 N   0  0  0  0  0  0  0  0  0  0  0  0
   14.9561   -7.0479   24.6581 O   0  0  0  0  0  0  0  0  0  0  0  0
   14.0448   -6.1202   24.4937 C   0  0  0  0  0  0  0  0  0  0  0  0
   13.7739   -5.9180   23.1888 N   0  0  0  0  0  0  0  0  0  0  0  0
   13.3992   -5.3917   25.5944 C   0  0  0  0  0  0  0  0  0  0  0  0
   13.9845   -5.3833   26.8678 C   0  0  0  0  0  0  0  0  0  0  0  0
   13.3732   -4.6944   27.9198 C   0  0  0  0  0  0  0  0  0  0  0  0
   12.1738   -4.0096   27.7032 C   0  0  0  0  0  0  0  0  0  0  0  0
   11.5851   -4.0139   26.4347 C   0  0  0  0  0  0  0  0  0  0  0  0
   12.1956   -4.7042   25.3834 C   0  0  0  0  0  0  0  0  0  0  0  0
   11.6568   -5.6901   18.3026 C   0  0  0  0  0  0  0  0  0  0  0  0
   12.5710   -6.7597   18.1093 O   0  0  0  0  0  0  0  0  0  0  0  0
   14.9774   -7.5465   16.9798 O   0  0  0  0  0  0  0  0  0  0  0  0
   14.8203   -8.8153   16.3538 C   0  0  0  0  0  0  0  0  0  0  0  0
   16.1550   -9.4113   16.0327 C   0  0  0  0  0  0  0  0  0  0  0  0
   16.8163   -9.9717   16.9491 O   0  0  0  0  0  0  0  0  0  0  0  0
   16.6705   -9.3765   14.6945 N   0  0  0  0  0  0  0  0  0  0  0  0
   18.0008   -9.8873   14.3957 C   0  0  0  0  0  0  0  0  0  0  0  0
   17.9275  -10.7886   13.1606 C   0  0  0  0  0  0  0  0  0  0  0  0
   17.2603  -10.1345   12.0226 N   0  0  0  0  0  0  0  0  0  0  0  0
   15.9195   -9.6576   12.3917 C   0  0  0  0  0  0  0  0  0  0  0  0
   15.9368   -8.7330   13.6128 C   0  0  0  0  0  0  0  0  0  0  0  0
   18.0668   -9.0186   11.5325 C   0  0  0  0  0  0  0  0  0  0  0  0
   17.9958   -8.9374   10.0442 C   0  0  0  0  0  0  0  0  0  0  0  0
   17.1197   -9.7643    9.3296 C   0  0  0  0  0  0  0  0  0  0  0  0
   17.0551   -9.6773    7.9353 C   0  0  0  0  0  0  0  0  0  0  0  0
   17.8636   -8.7619    7.2538 C   0  0  0  0  0  0  0  0  0  0  0  0
   18.7360   -7.9331    7.9666 C   0  0  0  0  0  0  0  0  0  0  0  0
   18.8008   -8.0198    9.3611 C   0  0  0  0  0  0  0  0  0  0  0  0
 18 19  1  0  0  0
 19  1  1  0  0  0
  1  2  2  0  0  0
  2 20  1  0  0  0
  2  3  1  0  0  0
 20 21  1  0  0  0
 21 22  1  0  0  0
 22 23  2  0  0  0
 22 24  1  0  0  0
 24 25  1  0  0  0
 25 26  1  0  0  0
 26 27  1  0  0  0
 27 30  1  0  0  0
 27 28  1  0  0  0
 30 31  1  0  0  0
 31 32  2  0  0  0
 32 33  1  0  0  0
 33 34  2  0  0  0
 34 35  1  0  0  0
 35 36  2  0  0  0
 36 31  1  0  0  0
 28 29  1  0  0  0
 29 24  1  0  0  0
  3  4  2  0  0  0
  4  5  1  0  0  0
  5  6  2  0  0  0
  5  7  1  0  0  0
  6  1  1  0  0  0
  7  8  2  0  0  0
  8  9  1  0  0  0
  9 10  1  0  0  0
 10 11  2  0  0  0
 10 12  1  0  0  0
 11  7  1  0  0  0
 12 13  2  0  0  0
 13 14  1  0  0  0
 14 15  2  0  0  0
 15 16  1  0  0  0
 16 17  2  0  0  0
 17 12  1  0  0  0
M  END
>  <minimizedAffinity>
-8.79806

>  <minimizedRMSD>
1.38906

$$$$
CHEMBL1172718 PubChem-24826800 PubChem-88996409


 37 41  0  0  0  0  0  0  0  0999 V2000
   15.7725   -8.4113   16.9577 C   0  0  0  0  0  0  0  0  0  0  0  0
   15.0880   -7.5074   16.4049 O   0  0  0  0  0  0  0  0  0  0  0  0
   15.8086   -8.5295   18.3883 N   0  0  0  0  0  0  0  0  0  0  0  0
   16.3736   -9.2467   18.7565 H   0  0  0  0  0  0  0  0  0  0  0  0
   18.7865  -12.1437   13.7385 C   0  0  0  0  0  0  0  0  0  0  0  0
   18.0121  -11.1563   14.5469 C   0  0  0  0  0  0  0  0  0  0  0  0
   17.6382  -11.5032   15.8484 C   0  0  0  0  0  0  0  0  0  0  0  0
   16.9088  -10.6076   16.6346 C   0  0  0  0  0  0  0  0  0  0  0  0
   16.5456   -9.3525   16.1286 C   0  0  0  0  0  0  0  0  0  0  0  0
   16.9253   -9.0038   14.8248 C   0  0  0  0  0  0  0  0  0  0  0  0
   17.6546   -9.8955   14.0314 C   0  0  0  0  0  0  0  0  0  0  0  0
   18.0195   -9.4964   12.6964 C   0  0  0  0  0  0  0  0  0  0  0  0
   18.3245   -9.1562   11.5805 C   0  0  0  0  0  0  0  0  0  0  0  0
   18.6916   -8.7421   10.2539 C   0  0  0  0  0  0  0  0  0  0  0  0
   19.7583   -7.9247    9.9055 C   0  0  0  0  0  0  0  0  0  0  0  0
   19.7581   -7.7588    8.5542 N   0  0  0  0  0  0  0  0  0  0  0  0
   18.6972   -8.4765    8.1328 C   0  0  0  0  0  0  0  0  0  0  0  0
   18.2653   -8.6278    6.8203 C   0  0  0  0  0  0  0  0  0  0  0  0
   17.1296   -9.4267    6.6132 C   0  0  0  0  0  0  0  0  0  0  0  0
   16.4835  -10.0317    7.7095 C   0  0  0  0  0  0  0  0  0  0  0  0
   16.9662   -9.8372    8.9702 N   0  0  0  0  0  0  0  0  0  0  0  0
   18.0446   -9.0738    9.1331 N   0  0  0  0  0  0  0  0  0  0  0  0
   15.1088   -7.7135   19.3378 C   0  0  0  0  0  0  0  0  0  0  0  0
   15.7816   -7.2959   20.4896 C   0  0  0  0  0  0  0  0  0  0  0  0
   15.1329   -6.5034   21.4396 C   0  0  0  0  0  0  0  0  0  0  0  0
   13.8006   -6.1228   21.2501 C   0  0  0  0  0  0  0  0  0  0  0  0
   13.1180   -6.5337   20.0908 C   0  0  0  0  0  0  0  0  0  0  0  0
   11.4466   -6.0790   19.7951 Cl  0  0  0  0  0  0  0  0  0  0  0  0
   13.7744   -7.3274   19.1452 C   0  0  0  0  0  0  0  0  0  0  0  0
   13.1450   -5.2536   22.2744 C   0  0  0  0  0  0  0  0  0  0  0  0
   14.0546   -5.0150   23.3838 N   0  0  0  0  0  0  0  0  0  0  0  0
   13.7918   -3.6615   23.8574 C   0  0  0  0  0  0  0  0  0  0  0  0
   14.6930   -3.3506   25.0571 C   0  0  0  0  0  0  0  0  0  0  0  0
   14.5108   -4.3153   26.1515 N   0  0  0  0  0  0  0  0  0  0  0  0
   13.2195   -4.0899   26.7901 C   0  0  0  0  0  0  0  0  0  0  0  0
   14.5848   -5.7021   25.6701 C   0  0  0  0  0  0  0  0  0  0  0  0
   13.6844   -5.9375   24.4528 C   0  0  0  0  0  0  0  0  0  0  0  0
  5  6  1  0  0  0
  6  7  2  0  0  0
  7  8  1  0  0  0
  8  9  2  0  0  0
  9  1  1  0  0  0
  9 10  1  0  0  0
  1  2  2  0  0  0
  1  3  1  0  0  0
  3 23  1  0  0  0
 23 24  2  0  0  0
 24 25  1  0  0  0
 25 26  2  0  0  0
 26 30  1  0  0  0
 26 27  1  0  0  0
 30 31  1  0  0  0
 31 32  1  0  0  0
 32 33  1  0  0  0
 33 34  1  0  0  0
 34 35  1  0  0  0
 34 36  1  0  0  0
 36 37  1  0  0  0
 37 31  1  0  0  0
 27 28  1  0  0  0
 27 29  2  0  0  0
 29 23  1  0  0  0
 10 11  2  0  0  0
 11 12  1  0  0  0
 11  6  1  0  0  0
 12 13  3  0  0  0
 13 14  1  0  0  0
 14 15  2  0  0  0
 15 16  1  0  0  0
 16 17  2  0  0  0
 17 18  1  0  0  0
 18 19  2  0  0  0
 19 20  1  0  0  0
 20 21  2  0  0  0
 21 22  1  0  0  0
 22 14  1  0  0  0
 22 17  1  0  0  0
  3  4  1  0  0  0
M  END
>  <minimizedAffinity>
-8.79713

>  <minimizedRMSD>
1.72800

$$$$
CHEMBL1498366 4908608 MCULE-3914336582 MolPort-000-096-119 PubChem-3220741 ZINC000004908608


 32 34  0  0  0  0  0  0  0  0999 V2000
   17.3641   -8.9742   16.6319 C   0  0  0  0  0  0  0  0  0  0  0  0
   17.2620   -8.1471   15.3512 C   0  0  0  0  0  0  0  0  0  0  0  0
   16.1432   -8.6434   14.4293 C   0  0  0  0  0  0  0  0  0  0  0  0
   16.2175  -10.0858   14.1664 N   0  0  0  0  0  0  0  0  0  0  0  0
   16.1508  -10.8473   15.4210 C   0  0  0  0  0  0  0  0  0  0  0  0
   17.2714  -10.4815   16.3995 C   0  0  0  0  0  0  0  0  0  0  0  0
   15.2060   -7.8827   17.5804 C   0  0  0  0  0  0  0  0  0  0  0  0
   14.6914   -7.7036   16.4446 O   0  0  0  0  0  0  0  0  0  0  0  0
   16.4977   -8.4940   17.7091 N   0  0  0  0  0  0  0  0  0  0  0  0
   16.8397   -8.6029   18.6258 H   0  0  0  0  0  0  0  0  0  0  0  0
   13.0766   -6.6523   21.1016 C   0  0  0  0  0  0  0  0  0  0  0  0
   12.4812   -6.4990   19.8245 C   0  0  0  0  0  0  0  0  0  0  0  0
   13.1931   -6.9073   18.6834 C   0  0  0  0  0  0  0  0  0  0  0  0
   14.4746   -7.4602   18.7877 C   0  0  0  0  0  0  0  0  0  0  0  0
   15.0518   -7.6066   20.0524 C   0  0  0  0  0  0  0  0  0  0  0  0
   14.3580   -7.2061   21.1947 C   0  0  0  0  0  0  0  0  0  0  0  0
   12.6839   -5.0565   22.9896 C   0  0  0  0  0  0  0  0  0  0  0  0
   12.4548   -6.2784   22.3025 O   0  0  0  0  0  0  0  0  0  0  0  0
   11.2009   -5.9487   19.6941 O   0  0  0  0  0  0  0  0  0  0  0  0
   10.9684   -4.5537   19.5503 C   0  0  0  0  0  0  0  0  0  0  0  0
   17.4397  -10.4062   13.4321 C   0  0  0  0  0  0  0  0  0  0  0  0
   17.3165   -9.9689   12.0131 C   0  0  0  0  0  0  0  0  0  0  0  0
   16.2220  -10.1199   11.4072 O   0  0  0  0  0  0  0  0  0  0  0  0
   18.4551   -9.3942   11.3596 N   0  0  0  0  0  0  0  0  0  0  0  0
   19.2800   -9.3222   11.8923 H   0  0  0  0  0  0  0  0  0  0  0  0
   18.5173   -8.9131   10.0102 C   0  0  0  0  0  0  0  0  0  0  0  0
   17.7323   -9.4667    8.9868 C   0  0  0  0  0  0  0  0  0  0  0  0
   17.8185   -8.9707    7.6828 C   0  0  0  0  0  0  0  0  0  0  0  0
   16.9837   -9.5633    6.6058 C   0  0  0  0  0  0  0  0  0  0  0  0
   18.6898   -7.9175    7.3926 C   0  0  0  0  0  0  0  0  0  0  0  0
   19.4741   -7.3611    8.4067 C   0  0  0  0  0  0  0  0  0  0  0  0
   19.3869   -7.8582    9.7107 C   0  0  0  0  0  0  0  0  0  0  0  0
 17 18  1  0  0  0
 18 11  1  0  0  0
 11 12  2  0  0  0
 12 19  1  0  0  0
 12 13  1  0  0  0
 19 20  1  0  0  0
 13 14  2  0  0  0
 14 15  1  0  0  0
 14  7  1  0  0  0
 15 16  2  0  0  0
 16 11  1  0  0  0
  7  8  2  0  0  0
  7  9  1  0  0  0
  9  1  1  0  0  0
  1  2  1  0  0  0
  2  3  1  0  0  0
  3  4  1  0  0  0
  4 21  1  0  0  0
  4  5  1  0  0  0
 21 22  1  0  0  0
 22 23  2  0  0  0
 22 24  1  0  0  0
 24 26  1  0  0  0
 26 27  2  0  0  0
 27 28  1  0  0  0
 28 29  1  0  0  0
 28 30  2  0  0  0
 30 31  1  0  0  0
 31 32  2  0  0  0
 32 26  1  0  0  0
  5  6  1  0  0  0
  6  1  1  0  0  0
  9 10  1  0  0  0
 24 25  1  0  0  0
M  END
>  <minimizedAffinity>
-8.79650

>  <minimizedRMSD>
1.32386

$$$$
CHEMBL1356790 ChemDiv-D353-0426 MCULE-7968617164 MolPort-007-701-175 PubChem-16016332 ZINC000008587174 ZINC08587174


 29 31  0  0  0  0  0  0  0  0999 V2000
   15.4714   -8.0789   17.5433 C   0  0  0  0  0  0  0  0  0  0  0  0
   15.2622   -7.7024   16.2659 N   0  0  0  0  0  0  0  0  0  0  0  0
   16.1813   -8.3193   15.5400 N   0  0  0  0  0  0  0  0  0  0  0  0
   16.9130   -9.0467   16.4039 C   0  0  0  0  0  0  0  0  0  0  0  0
   16.4870   -8.9046   17.6342 O   0  0  0  0  0  0  0  0  0  0  0  0
   12.6841   -6.5268   19.5675 C   0  0  0  0  0  0  0  0  0  0  0  0
   13.4607   -6.9534   18.4804 C   0  0  0  0  0  0  0  0  0  0  0  0
   14.6657   -7.6262   18.6856 C   0  0  0  0  0  0  0  0  0  0  0  0
   15.0994   -7.8704   19.9893 C   0  0  0  0  0  0  0  0  0  0  0  0
   14.3436   -7.4514   21.0957 C   0  0  0  0  0  0  0  0  0  0  0  0
   13.1171   -6.7720   20.8822 C   0  0  0  0  0  0  0  0  0  0  0  0
   11.3842   -4.6004   18.7106 C   0  0  0  0  0  0  0  0  0  0  0  0
   11.4719   -5.8582   19.3656 O   0  0  0  0  0  0  0  0  0  0  0  0
   14.8037   -7.7032   22.3936 O   0  0  0  0  0  0  0  0  0  0  0  0
   15.7747   -6.8930   23.0424 C   0  0  0  0  0  0  0  0  0  0  0  0
   12.2938   -6.3192   21.9274 O   0  0  0  0  0  0  0  0  0  0  0  0
   12.4505   -5.0855   22.6148 C   0  0  0  0  0  0  0  0  0  0  0  0
   18.2900  -10.0830   15.9268 S   0  0  0  0  0  0  0  0  0  0  0  0
   17.3372  -10.9055   14.6123 C   0  0  0  0  0  0  0  0  0  0  0  0
   17.8889  -10.5408   13.2457 C   0  0  0  0  0  0  0  0  0  0  0  0
   16.8295  -10.4627   12.3004 O   0  0  0  0  0  0  0  0  0  0  0  0
   17.0017   -9.9468   11.0127 C   0  0  0  0  0  0  0  0  0  0  0  0
   16.0836  -10.2101    9.9836 C   0  0  0  0  0  0  0  0  0  0  0  0
   16.2818   -9.6731    8.7089 C   0  0  0  0  0  0  0  0  0  0  0  0
   17.3961   -8.8702    8.4488 C   0  0  0  0  0  0  0  0  0  0  0  0
   17.5773   -8.3139    7.0779 C   0  0  0  0  0  0  0  0  0  0  0  0
   18.3200   -8.6048    9.4755 C   0  0  0  0  0  0  0  0  0  0  0  0
   19.7398   -7.6062    9.2015 Cl  0  0  0  0  0  0  0  0  0  0  0  0
   18.1152   -9.1439   10.7498 C   0  0  0  0  0  0  0  0  0  0  0  0
 12 13  1  0  0  0
 13  6  1  0  0  0
  6  7  2  0  0  0
  7  8  1  0  0  0
  8  9  2  0  0  0
  8  1  1  0  0  0
  9 10  1  0  0  0
 10 14  1  0  0  0
 10 11  2  0  0  0
 14 15  1  0  0  0
 11 16  1  0  0  0
 11  6  1  0  0  0
 16 17  1  0  0  0
  1  2  2  0  0  0
  2  3  1  0  0  0
  3  4  2  0  0  0
  4  5  1  0  0  0
  4 18  1  0  0  0
  5  1  1  0  0  0
 18 19  1  0  0  0
 19 20  1  0  0  0
 20 21  1  0  0  0
 21 22  1  0  0  0
 22 23  2  0  0  0
 23 24  1  0  0  0
 24 25  2  0  0  0
 25 26  1  0  0  0
 25 27  1  0  0  0
 27 28  1  0  0  0
 27 29  2  0  0  0
 29 22  1  0  0  0
M  END
>  <minimizedAffinity>
-8.77966

>  <minimizedRMSD>
1.67580

$$$$
CHEMBL4794123 PubChem-162673652


 37 41  0  0  0  0  0  0  0  0999 V2000
   14.3472   -7.6560   17.7496 N   0  0  0  0  0  0  0  0  0  0  0  0
   15.4204   -7.9288   18.5420 C   0  0  0  0  0  0  0  0  0  0  0  0
   15.4434   -7.4784   19.8240 N   0  0  0  0  0  0  0  0  0  0  0  0
   14.4081   -6.7569   20.3302 C   0  0  0  0  0  0  0  0  0  0  0  0
   13.2900   -6.4615   19.5276 C   0  0  0  0  0  0  0  0  0  0  0  0
   13.2914   -6.9380   18.2130 C   0  0  0  0  0  0  0  0  0  0  0  0
   12.2174   -5.7074   20.0648 C   0  0  0  0  0  0  0  0  0  0  0  0
   12.2757   -5.2530   21.4133 C   0  0  0  0  0  0  0  0  0  0  0  0
   13.4263   -5.5894   22.1528 C   0  0  0  0  0  0  0  0  0  0  0  0
   14.4243   -6.3059   21.6078 N   0  0  0  0  0  0  0  0  0  0  0  0
   15.3775   -6.4462   22.5441 C   0  0  0  0  0  0  0  0  0  0  0  0
   14.9005   -5.7798   23.6608 C   0  0  0  0  0  0  0  0  0  0  0  0
   13.6826   -5.2351   23.4277 N   0  0  0  0  0  0  0  0  0  0  0  0
   11.0140   -5.4352   19.2124 C   0  0  0  0  0  0  0  0  0  0  0  0
   15.6344   -5.6667   24.9554 C   0  0  0  0  0  0  0  0  0  0  0  0
   14.6620   -5.6959   26.1186 C   0  0  0  0  0  0  0  0  0  0  0  0
   16.4430   -4.3845   24.9940 C   0  0  0  0  0  0  0  0  0  0  0  0
   11.1824   -4.4497   22.0241 C   0  0  0  0  0  0  0  0  0  0  0  0
   11.0228   -3.2420   21.7051 O   0  0  0  0  0  0  0  0  0  0  0  0
   10.2477   -5.0450   23.0219 C   0  0  0  0  0  0  0  0  0  0  0  0
   16.5321   -8.6858   18.0486 N   0  0  0  0  0  0  0  0  0  0  0  0
   17.2484   -8.8941   18.6912 H   0  0  0  0  0  0  0  0  0  0  0  0
   16.7026   -9.1692   16.7109 C   0  0  0  0  0  0  0  0  0  0  0  0
   17.4172  -10.3516   16.5027 C   0  0  0  0  0  0  0  0  0  0  0  0
   17.5857  -10.8346   15.2044 C   0  0  0  0  0  0  0  0  0  0  0  0
   17.0328  -10.1411   14.1279 C   0  0  0  0  0  0  0  0  0  0  0  0
   16.3386   -8.9413   14.3687 C   0  0  0  0  0  0  0  0  0  0  0  0
   16.1808   -8.4991   15.6451 N   0  0  0  0  0  0  0  0  0  0  0  0
   15.6905   -8.1882   13.2429 C   0  0  0  0  0  0  0  0  0  0  0  0
   16.2530   -8.6192   11.8893 C   0  0  0  0  0  0  0  0  0  0  0  0
   16.2668  -10.0813   11.8024 N   0  0  0  0  0  0  0  0  0  0  0  0
   17.2723  -10.6203   12.7252 C   0  0  0  0  0  0  0  0  0  0  0  0
   16.5857  -10.4925   10.4314 C   0  0  0  0  0  0  0  0  0  0  0  0
   17.2057   -9.3754    9.5908 C   0  0  0  0  0  0  0  0  0  0  0  0
   16.5963   -9.3655    8.2743 N   0  0  0  0  0  0  0  0  0  0  0  0
   17.6559   -9.0737    7.3267 C   0  0  0  0  0  0  0  0  0  0  0  0
   15.8742   -8.6467    8.2265 H   0  0  0  0  0  0  0  0  0  0  0  0
  1  2  2  0  0  0
  2  3  1  0  0  0
  3  4  2  0  0  0
  4  5  1  0  0  0
  5  6  2  0  0  0
  5  7  1  0  0  0
  7  8  2  0  0  0
  8  9  1  0  0  0
  9 10  1  0  0  0
 10 11  1  0  0  0
 11 12  2  0  0  0
 12 13  1  0  0  0
 12 15  1  0  0  0
 15 16  1  0  0  0
 15 17  1  0  0  0
  8 18  1  0  0  0
 18 19  2  0  0  0
 18 20  1  0  0  0
  7 14  1  0  0  0
  2 21  1  0  0  0
 21 23  1  0  0  0
 23 24  2  0  0  0
 24 25  1  0  0  0
 25 26  2  0  0  0
 26 27  1  0  0  0
 27 28  2  0  0  0
 27 29  1  0  0  0
 29 30  1  0  0  0
 30 31  1  0  0  0
 31 32  1  0  0  0
 31 33  1  0  0  0
 33 34  1  0  0  0
 34 35  1  0  0  0
 35 36  1  0  0  0
  6  1  1  0  0  0
 13  9  2  0  0  0
 28 23  1  0  0  0
 10  4  1  0  0  0
 32 26  1  0  0  0
 21 22  1  0  0  0
 35 37  1  0  0  0
M  END
>  <minimizedAffinity>
-8.77428

>  <minimizedRMSD>
1.01689

$$$$
CHEMBL1094078 PubChem-46236374


 28 29  0  0  0  0  0  0  0  0999 V2000
   15.0937   -7.8946   17.9910 C   0  0  0  0  0  0  0  0  0  0  0  0
   14.1923   -7.1602   17.5015 O   0  0  0  0  0  0  0  0  0  0  0  0
   15.3296   -7.9312   19.4042 N   0  0  0  0  0  0  0  0  0  0  0  0
   16.0489   -8.5268   19.7159 H   0  0  0  0  0  0  0  0  0  0  0  0
   14.6272   -7.1905   20.4116 C   0  0  0  0  0  0  0  0  0  0  0  0
   15.1408   -7.1622   21.7044 C   0  0  0  0  0  0  0  0  0  0  0  0
   14.5015   -6.4581   22.7280 C   0  0  0  0  0  0  0  0  0  0  0  0
   13.2994   -5.7523   22.4519 C   0  0  0  0  0  0  0  0  0  0  0  0
   12.7738   -5.7803   21.1324 C   0  0  0  0  0  0  0  0  0  0  0  0
   13.4473   -6.4995   20.1345 C   0  0  0  0  0  0  0  0  0  0  0  0
   15.1122   -6.5013   23.9916 O   0  0  0  0  0  0  0  0  0  0  0  0
   16.1959   -5.6829   24.4079 C   0  0  0  0  0  0  0  0  0  0  0  0
   12.6722   -5.0504   23.4961 O   0  0  0  0  0  0  0  0  0  0  0  0
   11.3172   -5.2008   23.8955 C   0  0  0  0  0  0  0  0  0  0  0  0
   11.5920   -5.0987   20.8175 O   0  0  0  0  0  0  0  0  0  0  0  0
   11.1919   -4.8125   19.4835 C   0  0  0  0  0  0  0  0  0  0  0  0
   16.0411   -8.4863   15.8141 C   0  0  0  0  0  0  0  0  0  0  0  0
   15.9226   -8.7304   17.1173 C   0  0  0  0  0  0  0  0  0  0  0  0
   17.4406   -9.9791   12.6570 C   0  0  0  0  0  0  0  0  0  0  0  0
   18.4077  -10.8599   13.1677 C   0  0  0  0  0  0  0  0  0  0  0  0
   18.6041  -10.9673   14.5468 C   0  0  0  0  0  0  0  0  0  0  0  0
   17.8363  -10.1962   15.4230 C   0  0  0  0  0  0  0  0  0  0  0  0
   16.8669   -9.3127   14.9232 C   0  0  0  0  0  0  0  0  0  0  0  0
   16.6760   -9.2106   13.5412 C   0  0  0  0  0  0  0  0  0  0  0  0
   17.2201   -9.8490   11.2834 O   0  0  0  0  0  0  0  0  0  0  0  0
   18.1983   -9.3230   10.3948 C   0  0  0  0  0  0  0  0  0  0  0  0
   17.0787   -9.7987    8.2655 C   0  0  0  0  0  0  0  0  0  0  0  0
   17.5514   -8.8957    9.1203 C   0  0  0  0  0  0  0  0  0  0  0  0
 27 28  2  0  0  0
 28 26  1  0  0  0
 26 25  1  0  0  0
 25 19  1  0  0  0
 19 20  2  0  0  0
 20 21  1  0  0  0
 21 22  2  0  0  0
 22 23  1  0  0  0
 23 17  1  0  0  0
 23 24  2  0  0  0
 17 18  2  0  0  0
 18  1  1  0  0  0
  1  2  2  0  0  0
  1  3  1  0  0  0
  3  5  1  0  0  0
  5  6  2  0  0  0
  6  7  1  0  0  0
  7 11  1  0  0  0
  7  8  2  0  0  0
 11 12  1  0  0  0
  8 13  1  0  0  0
  8  9  1  0  0  0
 13 14  1  0  0  0
  9 15  1  0  0  0
  9 10  2  0  0  0
 15 16  1  0  0  0
 10  5  1  0  0  0
 24 19  1  0  0  0
  3  4  1  0  0  0
M  END
>  <minimizedAffinity>
-8.77416

>  <minimizedRMSD>
1.70552

$$$$
CHEMBL3668566 PubChem-71009706


 39 42  0  0  0  0  0  0  0  0999 V2000
   18.7115  -10.9303   14.6849 C   0  0  0  0  0  0  0  0  0  0  0  0
   18.2777  -11.8379   15.8313 C   0  0  0  0  0  0  0  0  0  0  0  0
   17.4944  -10.9720   16.8012 C   0  0  0  0  0  0  0  0  0  0  0  0
   17.2813   -9.7089   16.1246 N   0  0  0  0  0  0  0  0  0  0  0  0
   17.9302   -9.6346   14.8283 C   0  0  0  0  0  0  0  0  0  0  0  0
   16.6026   -8.6055   16.7373 C   0  0  0  0  0  0  0  0  0  0  0  0
   16.5648   -7.4897   16.1526 O   0  0  0  0  0  0  0  0  0  0  0  0
   16.0160   -8.7620   18.0347 N   0  0  0  0  0  0  0  0  0  0  0  0
   17.4139  -12.8849   15.3161 N   0  0  0  0  0  0  0  0  0  0  0  0
   16.2879   -9.5498   18.5588 H   0  0  0  0  0  0  0  0  0  0  0  0
   16.6053  -12.4640   14.8586 H   0  0  0  0  0  0  0  0  0  0  0  0
   17.0997  -13.4758   16.0859 H   0  0  0  0  0  0  0  0  0  0  0  0
   15.0682   -7.8721   18.6358 C   0  0  0  0  0  0  0  0  0  0  0  0
   15.2714   -7.2005   19.8338 C   0  0  0  0  0  0  0  0  0  0  0  0
   14.1506   -6.5040   20.1463 N   0  0  0  0  0  0  0  0  0  0  0  0
   13.2471   -6.7534   19.1722 C   0  0  0  0  0  0  0  0  0  0  0  0
   11.9302   -6.2940   19.0802 C   0  0  0  0  0  0  0  0  0  0  0  0
   11.1545   -6.7319   17.9932 C   0  0  0  0  0  0  0  0  0  0  0  0
   11.6964   -7.6159   17.0372 C   0  0  0  0  0  0  0  0  0  0  0  0
   13.0223   -8.0670   17.1530 C   0  0  0  0  0  0  0  0  0  0  0  0
   13.7760   -7.5990   18.2289 C   0  0  0  0  0  0  0  0  0  0  0  0
   13.9926   -5.6881   21.3181 C   0  0  0  0  0  0  0  0  0  0  0  0
   14.9396   -5.5812   22.1433 O   0  0  0  0  0  0  0  0  0  0  0  0
   12.7755   -4.9892   21.5641 N   0  0  0  0  0  0  0  0  0  0  0  0
   12.0278   -5.0638   20.9280 H   0  0  0  0  0  0  0  0  0  0  0  0
   12.6822   -4.4318   22.3703 H   0  0  0  0  0  0  0  0  0  0  0  0
   16.9159   -9.5137   13.7346 C   0  0  0  0  0  0  0  0  0  0  0  0
   15.8545   -8.8580   13.9197 O   0  0  0  0  0  0  0  0  0  0  0  0
   17.1708  -10.1395   12.4761 N   0  0  0  0  0  0  0  0  0  0  0  0
   18.0285  -10.6050   12.3462 H   0  0  0  0  0  0  0  0  0  0  0  0
   16.2154  -10.1180   11.3768 C   0  0  0  0  0  0  0  0  0  0  0  0
   16.8422   -9.5322   10.1541 C   0  0  0  0  0  0  0  0  0  0  0  0
   18.1255   -8.9643   10.2057 C   0  0  0  0  0  0  0  0  0  0  0  0
   18.7022   -8.4375    9.0431 C   0  0  0  0  0  0  0  0  0  0  0  0
   18.0014   -8.4774    7.8338 C   0  0  0  0  0  0  0  0  0  0  0  0
   16.7247   -9.0435    7.7820 C   0  0  0  0  0  0  0  0  0  0  0  0
   16.1470   -9.5706    8.9401 C   0  0  0  0  0  0  0  0  0  0  0  0
   19.9416   -7.8894    9.0838 F   0  0  0  0  0  0  0  0  0  0  0  0
   18.8156   -8.9281   11.3745 F   0  0  0  0  0  0  0  0  0  0  0  0
  1  2  1  0  0  0
  2  3  1  0  0  0
  2  9  1  0  0  0
  3  4  1  0  0  0
  4  5  1  0  0  0
  4  6  1  0  0  0
  5 27  1  0  0  0
  5  1  1  0  0  0
 27 28  2  0  0  0
 27 29  1  0  0  0
 29 31  1  0  0  0
 31 32  1  0  0  0
 32 33  2  0  0  0
 33 34  1  0  0  0
 33 39  1  0  0  0
 34 35  2  0  0  0
 34 38  1  0  0  0
 35 36  1  0  0  0
 36 37  2  0  0  0
 37 32  1  0  0  0
  6  7  2  0  0  0
  6  8  1  0  0  0
  8 13  1  0  0  0
 13 14  2  0  0  0
 14 15  1  0  0  0
 15 16  1  0  0  0
 15 22  1  0  0  0
 16 17  2  0  0  0
 17 18  1  0  0  0
 18 19  2  0  0  0
 19 20  1  0  0  0
 20 21  2  0  0  0
 21 13  1  0  0  0
 21 16  1  0  0  0
 22 23  2  0  0  0
 22 24  1  0  0  0
 29 30  1  0  0  0
  8 10  1  0  0  0
 24 25  1  0  0  0
 24 26  1  0  0  0
  9 11  1  0  0  0
  9 12  1  0  0  0
M  END
>  <minimizedAffinity>
-8.76839

>  <minimizedRMSD>
1.95175

$$$$
CHEMBL1362094 2204551 ChemDiv-D134-0578 LN00701614 MCULE-1165593701 MolPort-002-638-919 PubChem-1838117 ZINC000002204551 ZINC02204551


 31 33  0  0  0  0  0  0  0  0999 V2000
   15.3367   -8.1706   17.3359 C   0  0  0  0  0  0  0  0  0  0  0  0
   15.4781   -7.5320   16.1563 N   0  0  0  0  0  0  0  0  0  0  0  0
   16.1034   -8.3755   15.3936 O   0  0  0  0  0  0  0  0  0  0  0  0
   16.3361   -9.4788   16.0585 C   0  0  0  0  0  0  0  0  0  0  0  0
   15.8702   -9.4114   17.3196 N   0  0  0  0  0  0  0  0  0  0  0  0
   12.7851   -6.4058   19.4978 C   0  0  0  0  0  0  0  0  0  0  0  0
   13.4285   -6.9745   18.3887 C   0  0  0  0  0  0  0  0  0  0  0  0
   14.6778   -7.5798   18.5112 C   0  0  0  0  0  0  0  0  0  0  0  0
   15.2959   -7.6188   19.7600 C   0  0  0  0  0  0  0  0  0  0  0  0
   14.6889   -7.0642   20.8893 C   0  0  0  0  0  0  0  0  0  0  0  0
   13.4150   -6.4455   20.7709 C   0  0  0  0  0  0  0  0  0  0  0  0
   11.3461   -4.5451   18.7069 C   0  0  0  0  0  0  0  0  0  0  0  0
   11.5302   -5.8056   19.3385 O   0  0  0  0  0  0  0  0  0  0  0  0
   15.4040   -7.1620   22.0938 O   0  0  0  0  0  0  0  0  0  0  0  0
   16.5978   -6.4557   22.3992 C   0  0  0  0  0  0  0  0  0  0  0  0
   12.8222   -5.8938   21.9202 O   0  0  0  0  0  0  0  0  0  0  0  0
   12.9551   -4.5473   22.3530 C   0  0  0  0  0  0  0  0  0  0  0  0
   17.0572  -10.6574   15.4986 C   0  0  0  0  0  0  0  0  0  0  0  0
   18.5635  -10.4295   15.5163 C   0  0  0  0  0  0  0  0  0  0  0  0
   19.0663   -9.8893   14.1825 C   0  0  0  0  0  0  0  0  0  0  0  0
   18.2651  -10.4273   13.0452 C   0  0  0  0  0  0  0  0  0  0  0  0
   18.2018  -11.6713   12.8528 O   0  0  0  0  0  0  0  0  0  0  0  0
   17.5791   -9.5203   12.1801 N   0  0  0  0  0  0  0  0  0  0  0  0
   17.6277   -8.5564   12.3744 H   0  0  0  0  0  0  0  0  0  0  0  0
   16.8110   -9.9599   11.0230 C   0  0  0  0  0  0  0  0  0  0  0  0
   17.3706   -9.3717    9.7720 C   0  0  0  0  0  0  0  0  0  0  0  0
   18.3650   -8.3901    9.8447 C   0  0  0  0  0  0  0  0  0  0  0  0
   18.8820   -7.8287    8.6731 C   0  0  0  0  0  0  0  0  0  0  0  0
   18.4037   -8.2468    7.4273 C   0  0  0  0  0  0  0  0  0  0  0  0
   17.4081   -9.2257    7.3530 C   0  0  0  0  0  0  0  0  0  0  0  0
   16.8908   -9.7872    8.5245 C   0  0  0  0  0  0  0  0  0  0  0  0
 12 13  1  0  0  0
 13  6  1  0  0  0
  6  7  2  0  0  0
  7  8  1  0  0  0
  8  9  2  0  0  0
  8  1  1  0  0  0
  9 10  1  0  0  0
 10 14  1  0  0  0
 10 11  2  0  0  0
 14 15  1  0  0  0
 11 16  1  0  0  0
 11  6  1  0  0  0
 16 17  1  0  0  0
  1  2  2  0  0  0
  2  3  1  0  0  0
  3  4  1  0  0  0
  4 18  1  0  0  0
  4  5  2  0  0  0
 18 19  1  0  0  0
 19 20  1  0  0  0
 20 21  1  0  0  0
 21 22  2  0  0  0
 21 23  1  0  0  0
 23 25  1  0  0  0
 25 26  1  0  0  0
 26 27  2  0  0  0
 27 28  1  0  0  0
 28 29  2  0  0  0
 29 30  1  0  0  0
 30 31  2  0  0  0
 31 26  1  0  0  0
  5  1  1  0  0  0
 23 24  1  0  0  0
M  END
>  <minimizedAffinity>
-8.76437

>  <minimizedRMSD>
1.38163

$$$$
CHEMBL1446869 1347245 MCULE-1853991019 MolPort-000-113-514 PubChem-1446072 ZINC000001347245 ZINC01347245


 27 29  0  0  0  0  0  0  0  0999 V2000
   16.1220   -8.5599   15.1519 N   0  0  0  0  0  0  0  0  0  0  0  0
   16.8035   -9.3654   15.9466 N   0  0  0  0  0  0  0  0  0  0  0  0
   16.4068   -9.1695   17.1936 N   0  0  0  0  0  0  0  0  0  0  0  0
   15.4611   -8.2094   17.1118 C   0  0  0  0  0  0  0  0  0  0  0  0
   15.2728   -7.8141   15.8368 N   0  0  0  0  0  0  0  0  0  0  0  0
   14.7314   -7.6630   18.2653 C   0  0  0  0  0  0  0  0  0  0  0  0
   13.4384   -7.1509   18.1048 C   0  0  0  0  0  0  0  0  0  0  0  0
   12.7392   -6.6302   19.1978 C   0  0  0  0  0  0  0  0  0  0  0  0
   11.1204   -6.0007   18.9416 Cl  0  0  0  0  0  0  0  0  0  0  0  0
   13.3308   -6.6168   20.4727 C   0  0  0  0  0  0  0  0  0  0  0  0
   14.6269   -7.1314   20.6285 C   0  0  0  0  0  0  0  0  0  0  0  0
   15.3220   -7.6505   19.5339 C   0  0  0  0  0  0  0  0  0  0  0  0
   12.5997   -6.0793   21.5862 N   0  0  0  0  0  0  0  0  0  0  0  0
   12.5348   -4.7061   21.9909 C   0  0  0  0  0  0  0  0  0  0  0  0
   11.7220   -4.3363   23.1784 C   0  0  0  0  0  0  0  0  0  0  0  0
   13.1520   -3.8071   21.3612 O   0  0  0  0  0  0  0  0  0  0  0  0
   12.0891   -6.7226   22.1291 H   0  0  0  0  0  0  0  0  0  0  0  0
   16.3066   -8.4876   13.7128 C   0  0  0  0  0  0  0  0  0  0  0  0
   16.7956   -9.8249   13.1831 C   0  0  0  0  0  0  0  0  0  0  0  0
   17.1982   -9.6253    8.9122 C   0  0  0  0  0  0  0  0  0  0  0  0
   18.2693   -9.2711    9.7396 C   0  0  0  0  0  0  0  0  0  0  0  0
   18.1406   -9.3401   11.1301 C   0  0  0  0  0  0  0  0  0  0  0  0
   16.9381   -9.7683   11.7024 C   0  0  0  0  0  0  0  0  0  0  0  0
   15.8612  -10.1182   10.8813 C   0  0  0  0  0  0  0  0  0  0  0  0
   15.9903  -10.0493    9.4912 C   0  0  0  0  0  0  0  0  0  0  0  0
   18.1559   -8.5492    6.9015 C   0  0  0  0  0  0  0  0  0  0  0  0
   17.3590   -9.5463    7.5263 O   0  0  0  0  0  0  0  0  0  0  0  0
 26 27  1  0  0  0
 27 20  1  0  0  0
 20 21  2  0  0  0
 21 22  1  0  0  0
 22 23  2  0  0  0
 23 19  1  0  0  0
 23 24  1  0  0  0
 19 18  1  0  0  0
 18  1  1  0  0  0
  1  2  1  0  0  0
  2  3  2  0  0  0
  3  4  1  0  0  0
  4  5  2  0  0  0
  4  6  1  0  0  0
  5  1  1  0  0  0
  6  7  2  0  0  0
  7  8  1  0  0  0
  8  9  1  0  0  0
  8 10  2  0  0  0
 10 13  1  0  0  0
 10 11  1  0  0  0
 13 14  1  0  0  0
 14 15  1  0  0  0
 14 16  2  0  0  0
 11 12  2  0  0  0
 12  6  1  0  0  0
 24 25  2  0  0  0
 25 20  1  0  0  0
 13 17  1  0  0  0
M  END
>  <minimizedAffinity>
-8.74407

>  <minimizedRMSD>
1.75465

$$$$
CHEMBL4638193


 36 39  0  0  0  0  0  0  0  0999 V2000
   18.2874   -9.3235   14.3049 C   0  0  0  0  0  0  0  0  0  0  0  0
   17.4210  -10.3496   13.6946 N   0  0  0  0  0  0  0  0  0  0  0  0
   17.1143  -11.4014   14.6825 C   0  0  0  0  0  0  0  0  0  0  0  0
   16.3785  -10.8336   15.9071 C   0  0  0  0  0  0  0  0  0  0  0  0
   17.1654   -9.6870   16.5477 C   0  0  0  0  0  0  0  0  0  0  0  0
   17.6096   -8.6518   15.5108 C   0  0  0  0  0  0  0  0  0  0  0  0
   18.4018  -12.1190   15.1299 C   0  0  0  0  0  0  0  0  0  0  0  0
   19.6700  -11.4599   14.5714 C   0  0  0  0  0  0  0  0  0  0  0  0
   19.6352   -9.9342   14.7333 C   0  0  0  0  0  0  0  0  0  0  0  0
   16.3853   -9.0551   17.6073 N   0  0  0  0  0  0  0  0  0  0  0  0
   15.3691   -8.0675   17.3829 C   0  0  0  0  0  0  0  0  0  0  0  0
   15.1060   -7.6863   16.2093 O   0  0  0  0  0  0  0  0  0  0  0  0
   16.5685   -9.3241   18.5365 H   0  0  0  0  0  0  0  0  0  0  0  0
   14.6284   -7.4996   18.5223 C   0  0  0  0  0  0  0  0  0  0  0  0
   13.3288   -7.0191   18.3514 C   0  0  0  0  0  0  0  0  0  0  0  0
   12.6120   -6.4837   19.4301 C   0  0  0  0  0  0  0  0  0  0  0  0
   13.1991   -6.4245   20.7053 C   0  0  0  0  0  0  0  0  0  0  0  0
   14.5192   -6.9100   20.8875 C   0  0  0  0  0  0  0  0  0  0  0  0
   15.2133   -7.4420   19.7892 C   0  0  0  0  0  0  0  0  0  0  0  0
   15.1305   -6.8631   22.1459 O   0  0  0  0  0  0  0  0  0  0  0  0
   16.4884   -6.4861   22.3351 C   0  0  0  0  0  0  0  0  0  0  0  0
   12.4274   -5.8786   21.7451 O   0  0  0  0  0  0  0  0  0  0  0  0
   12.5252   -4.5434   22.2193 C   0  0  0  0  0  0  0  0  0  0  0  0
   11.3088   -6.0039   19.2581 O   0  0  0  0  0  0  0  0  0  0  0  0
   10.2332   -6.8292   18.8312 C   0  0  0  0  0  0  0  0  0  0  0  0
   16.1955   -9.7499   13.1726 C   0  0  0  0  0  0  0  0  0  0  0  0
   16.2866   -9.6230   11.6932 C   0  0  0  0  0  0  0  0  0  0  0  0
   15.3081   -9.9750   10.9828 O   0  0  0  0  0  0  0  0  0  0  0  0
   17.4952   -9.1271   11.1029 N   0  0  0  0  0  0  0  0  0  0  0  0
   18.2321   -8.9124   11.7195 H   0  0  0  0  0  0  0  0  0  0  0  0
   17.7411   -8.9117    9.7070 C   0  0  0  0  0  0  0  0  0  0  0  0
   17.0559   -9.6273    8.7129 C   0  0  0  0  0  0  0  0  0  0  0  0
   17.3185   -9.3870    7.3610 C   0  0  0  0  0  0  0  0  0  0  0  0
   18.2672   -8.4290    6.9936 C   0  0  0  0  0  0  0  0  0  0  0  0
   18.9511   -7.7107    7.9781 C   0  0  0  0  0  0  0  0  0  0  0  0
   18.6871   -7.9516    9.3300 C   0  0  0  0  0  0  0  0  0  0  0  0
  1  2  1  0  0  0
  2  3  1  0  0  0
  3  4  1  0  0  0
  4  5  1  0  0  0
  5  6  1  0  0  0
  5 10  1  0  0  0
 10 11  1  0  0  0
 11 12  2  0  0  0
 11 14  1  0  0  0
 14 15  2  0  0  0
 15 16  1  0  0  0
 16 17  2  0  0  0
 17 18  1  0  0  0
 18 19  2  0  0  0
 18 20  1  0  0  0
 20 21  1  0  0  0
 17 22  1  0  0  0
 22 23  1  0  0  0
 16 24  1  0  0  0
 24 25  1  0  0  0
  3  7  1  0  0  0
  7  8  1  0  0  0
  8  9  1  0  0  0
  2 26  1  0  0  0
 26 27  1  0  0  0
 27 28  2  0  0  0
 27 29  1  0  0  0
 29 31  1  0  0  0
 31 32  2  0  0  0
 32 33  1  0  0  0
 33 34  2  0  0  0
 34 35  1  0  0  0
 35 36  2  0  0  0
  1  6  1  0  0  0
 19 14  1  0  0  0
 36 31  1  0  0  0
  9  1  1  0  0  0
 10 13  1  0  0  0
 29 30  1  0  0  0
M  END
>  <minimizedAffinity>
-8.73278

>  <minimizedRMSD>
1.12653

$$$$
CHEMBL4638343


 38 41  0  0  0  0  0  0  0  0999 V2000
   17.9443   -9.1531   14.4798 C   0  0  0  0  0  0  0  0  0  0  0  0
   17.0352  -10.2529   14.1052 N   0  0  0  0  0  0  0  0  0  0  0  0
   17.0019  -11.2723   15.1681 C   0  0  0  0  0  0  0  0  0  0  0  0
   16.3419  -10.6576   16.4051 C   0  0  0  0  0  0  0  0  0  0  0  0
   17.0808   -9.3835   16.8458 C   0  0  0  0  0  0  0  0  0  0  0  0
   17.3411   -8.4159   15.6790 C   0  0  0  0  0  0  0  0  0  0  0  0
   18.3957  -11.8257   15.5435 C   0  0  0  0  0  0  0  0  0  0  0  0
   19.5391  -11.1361   14.8026 C   0  0  0  0  0  0  0  0  0  0  0  0
   19.3773   -9.6183   14.8215 C   0  0  0  0  0  0  0  0  0  0  0  0
   16.3675   -8.7162   17.9294 N   0  0  0  0  0  0  0  0  0  0  0  0
   15.1843   -7.9246   17.7553 C   0  0  0  0  0  0  0  0  0  0  0  0
   14.7043   -7.7503   16.6016 O   0  0  0  0  0  0  0  0  0  0  0  0
   16.7224   -8.8160   18.8423 H   0  0  0  0  0  0  0  0  0  0  0  0
   14.5283   -7.3159   18.9256 C   0  0  0  0  0  0  0  0  0  0  0  0
   13.2457   -6.7736   18.8173 C   0  0  0  0  0  0  0  0  0  0  0  0
   12.6099   -6.2006   19.9285 C   0  0  0  0  0  0  0  0  0  0  0  0
   13.2635   -6.1648   21.1724 C   0  0  0  0  0  0  0  0  0  0  0  0
   14.5656   -6.7147   21.2907 C   0  0  0  0  0  0  0  0  0  0  0  0
   15.1779   -7.2828   20.1618 C   0  0  0  0  0  0  0  0  0  0  0  0
   15.2388   -6.6990   22.5180 O   0  0  0  0  0  0  0  0  0  0  0  0
   16.6288   -6.4254   22.6359 C   0  0  0  0  0  0  0  0  0  0  0  0
   12.5736   -5.5761   22.2458 O   0  0  0  0  0  0  0  0  0  0  0  0
   12.7541   -4.2421   22.6988 C   0  0  0  0  0  0  0  0  0  0  0  0
   11.3234   -5.6599   19.8204 O   0  0  0  0  0  0  0  0  0  0  0  0
   11.0570   -4.4284   19.1631 C   0  0  0  0  0  0  0  0  0  0  0  0
   17.3876  -10.8449   12.8154 C   0  0  0  0  0  0  0  0  0  0  0  0
   17.2657   -9.8321   11.7300 C   0  0  0  0  0  0  0  0  0  0  0  0
   16.3845   -8.9362   11.8092 O   0  0  0  0  0  0  0  0  0  0  0  0
   18.2006   -9.8494   10.6463 N   0  0  0  0  0  0  0  0  0  0  0  0
   18.9743  -10.4528   10.7270 H   0  0  0  0  0  0  0  0  0  0  0  0
   18.1034   -9.0589    9.4505 C   0  0  0  0  0  0  0  0  0  0  0  0
   19.1224   -8.1302    9.1611 C   0  0  0  0  0  0  0  0  0  0  0  0
   19.0599   -7.3547    8.0005 C   0  0  0  0  0  0  0  0  0  0  0  0
   18.0002   -7.5103    7.1068 C   0  0  0  0  0  0  0  0  0  0  0  0
   17.0029   -8.4513    7.3650 C   0  0  0  0  0  0  0  0  0  0  0  0
   17.0468   -9.2313    8.5246 C   0  0  0  0  0  0  0  0  0  0  0  0
   16.0070  -10.2865    8.6926 C   0  0  0  0  0  0  0  0  0  0  0  0
   20.2714   -7.9324   10.0903 C   0  0  0  0  0  0  0  0  0  0  0  0
  1  2  1  0  0  0
  2  3  1  0  0  0
  3  4  1  0  0  0
  4  5  1  0  0  0
  5  6  1  0  0  0
  5 10  1  0  0  0
 10 11  1  0  0  0
 11 12  2  0  0  0
 11 14  1  0  0  0
 14 15  2  0  0  0
 15 16  1  0  0  0
 16 17  2  0  0  0
 17 18  1  0  0  0
 18 19  2  0  0  0
 18 20  1  0  0  0
 20 21  1  0  0  0
 17 22  1  0  0  0
 22 23  1  0  0  0
 16 24  1  0  0  0
 24 25  1  0  0  0
  3  7  1  0  0  0
  7  8  1  0  0  0
  8  9  1  0  0  0
  2 26  1  0  0  0
 26 27  1  0  0  0
 27 28  2  0  0  0
 27 29  1  0  0  0
 29 31  1  0  0  0
 31 32  2  0  0  0
 32 33  1  0  0  0
 33 34  2  0  0  0
 34 35  1  0  0  0
 35 36  2  0  0  0
 36 37  1  0  0  0
 32 38  1  0  0  0
  1  6  1  0  0  0
 19 14  1  0  0  0
 36 31  1  0  0  0
  9  1  1  0  0  0
 10 13  1  0  0  0
 29 30  1  0  0  0
M  END
>  <minimizedAffinity>
-8.73072

>  <minimizedRMSD>
1.88817

$$$$
CHEMBL1736908 612014 CSC047220095 MCULE-5864346652 MolPort-001-597-607 PubChem-972007 ZINC000000612014 ZINC00612014


 25 26  0  0  0  0  0  0  0  0999 V2000
   15.2873   -7.7981   19.8750 N   0  0  0  0  0  0  0  0  0  0  0  0
   15.1757   -7.7703   18.4464 C   0  0  0  0  0  0  0  0  0  0  0  0
   14.2713   -7.0988   17.8794 O   0  0  0  0  0  0  0  0  0  0  0  0
   16.1075   -8.5173   17.6651 N   0  0  0  0  0  0  0  0  0  0  0  0
   16.0166   -8.3431   20.2498 H   0  0  0  0  0  0  0  0  0  0  0  0
   16.8074   -9.0360   18.1237 H   0  0  0  0  0  0  0  0  0  0  0  0
   12.8518   -5.7827   22.7226 C   0  0  0  0  0  0  0  0  0  0  0  0
   12.3865   -5.9349   21.3925 C   0  0  0  0  0  0  0  0  0  0  0  0
   13.1954   -6.6014   20.4566 C   0  0  0  0  0  0  0  0  0  0  0  0
   14.4475   -7.1149   20.8157 C   0  0  0  0  0  0  0  0  0  0  0  0
   14.8953   -6.9594   22.1274 C   0  0  0  0  0  0  0  0  0  0  0  0
   14.1046   -6.3000   23.0695 C   0  0  0  0  0  0  0  0  0  0  0  0
   11.4594   -3.8903   23.5855 C   0  0  0  0  0  0  0  0  0  0  0  0
   12.1263   -5.1355   23.7342 O   0  0  0  0  0  0  0  0  0  0  0  0
   11.1385   -5.4302   21.0093 O   0  0  0  0  0  0  0  0  0  0  0  0
   10.9083   -4.8059   19.7531 C   0  0  0  0  0  0  0  0  0  0  0  0
   16.0544   -8.5356   16.2133 C   0  0  0  0  0  0  0  0  0  0  0  0
   16.4861   -9.9000   15.7088 C   0  0  0  0  0  0  0  0  0  0  0  0
   16.8076   -9.8433   14.2543 C   0  0  0  0  0  0  0  0  0  0  0  0
   18.0404  -10.3235   13.7995 C   0  0  0  0  0  0  0  0  0  0  0  0
   18.3588  -10.2605   12.4395 C   0  0  0  0  0  0  0  0  0  0  0  0
   17.4465   -9.7132   11.5323 C   0  0  0  0  0  0  0  0  0  0  0  0
   17.8454   -9.6351    9.8301 Cl  0  0  0  0  0  0  0  0  0  0  0  0
   16.2169   -9.2253   11.9849 C   0  0  0  0  0  0  0  0  0  0  0  0
   15.8979   -9.2880   13.3447 C   0  0  0  0  0  0  0  0  0  0  0  0
 13 14  1  0  0  0
 14  7  1  0  0  0
  7  8  2  0  0  0
  8 15  1  0  0  0
  8  9  1  0  0  0
 15 16  1  0  0  0
  9 10  2  0  0  0
 10  1  1  0  0  0
 10 11  1  0  0  0
  1  2  1  0  0  0
  2  3  2  0  0  0
  2  4  1  0  0  0
  4 17  1  0  0  0
 17 18  1  0  0  0
 18 19  1  0  0  0
 19 20  2  0  0  0
 20 21  1  0  0  0
 21 22  2  0  0  0
 22 23  1  0  0  0
 22 24  1  0  0  0
 24 25  2  0  0  0
 25 19  1  0  0  0
 11 12  2  0  0  0
 12  7  1  0  0  0
  1  5  1  0  0  0
  4  6  1  0  0  0
M  END
>  <minimizedAffinity>
-8.71741

>  <minimizedRMSD>
1.96187

$$$$
CHEMBL3608326 PubChem-122186807


 33 35  0  0  0  0  0  0  0  0999 V2000
   14.9897   -7.8425   16.3893 N   0  0  0  0  0  0  0  0  0  0  0  0
   15.9118   -8.7450   16.2803 C   0  0  0  0  0  0  0  0  0  0  0  0
   16.4211   -9.1460   14.9688 C   0  0  0  0  0  0  0  0  0  0  0  0
   17.4806  -10.0191   14.7705 C   0  0  0  0  0  0  0  0  0  0  0  0
   17.7640  -10.2328   13.4139 C   0  0  0  0  0  0  0  0  0  0  0  0
   16.9228   -9.5242   12.5585 C   0  0  0  0  0  0  0  0  0  0  0  0
   15.8293   -8.6341   13.4805 S   0  0  0  0  0  0  0  0  0  0  0  0
   16.9812   -9.5501   11.0861 C   0  0  0  0  0  0  0  0  0  0  0  0
   16.0923  -10.3496   10.3547 C   0  0  0  0  0  0  0  0  0  0  0  0
   16.1481  -10.3738    8.9590 C   0  0  0  0  0  0  0  0  0  0  0  0
   17.0937   -9.5981    8.2839 C   0  0  0  0  0  0  0  0  0  0  0  0
   17.9894   -8.7934    8.9996 C   0  0  0  0  0  0  0  0  0  0  0  0
   17.9272   -8.7745   10.4003 C   0  0  0  0  0  0  0  0  0  0  0  0
   18.9840   -7.9778    8.2847 C   0  0  0  0  0  0  0  0  0  0  0  0
   20.0479   -7.6210    8.8573 O   0  0  0  0  0  0  0  0  0  0  0  0
   18.7581   -7.5928    6.9682 O   0  0  0  0  0  0  0  0  0  0  0  0
   17.9702   -7.8526    6.5327 H   0  0  0  0  0  0  0  0  0  0  0  0
   15.0389   -7.6654   18.9166 C   0  0  0  0  0  0  0  0  0  0  0  0
   16.1134   -8.3165   19.0268 O   0  0  0  0  0  0  0  0  0  0  0  0
   14.4615   -7.4167   17.6234 N   0  0  0  0  0  0  0  0  0  0  0  0
   13.6221   -6.9029   17.5984 H   0  0  0  0  0  0  0  0  0  0  0  0
   14.2929   -6.8981   22.5513 C   0  0  0  0  0  0  0  0  0  0  0  0
   14.9187   -7.3781   21.3898 C   0  0  0  0  0  0  0  0  0  0  0  0
   14.3683   -7.1543   20.1252 C   0  0  0  0  0  0  0  0  0  0  0  0
   13.1735   -6.4393   20.0217 C   0  0  0  0  0  0  0  0  0  0  0  0
   12.5268   -5.9483   21.1649 C   0  0  0  0  0  0  0  0  0  0  0  0
   13.0794   -6.1728   22.4375 C   0  0  0  0  0  0  0  0  0  0  0  0
   16.2563   -6.9806   24.0645 C   0  0  0  0  0  0  0  0  0  0  0  0
   14.8673   -7.1375   23.8051 O   0  0  0  0  0  0  0  0  0  0  0  0
   11.3290   -5.2317   21.0605 O   0  0  0  0  0  0  0  0  0  0  0  0
   10.7715   -4.8395   19.8133 C   0  0  0  0  0  0  0  0  0  0  0  0
   12.3830   -5.6550   23.5428 O   0  0  0  0  0  0  0  0  0  0  0  0
   12.6929   -4.4376   24.2056 C   0  0  0  0  0  0  0  0  0  0  0  0
 28 29  1  0  0  0
 29 22  1  0  0  0
 22 23  2  0  0  0
 23 24  1  0  0  0
 24 18  1  0  0  0
 18 19  2  0  0  0
 18 20  1  0  0  0
 20  1  1  0  0  0
  1  2  2  0  0  0
  2  3  1  0  0  0
  3  4  2  0  0  0
  4  5  1  0  0  0
  5  6  2  0  0  0
  6  8  1  0  0  0
  8  9  2  0  0  0
  9 10  1  0  0  0
 10 11  2  0  0  0
 11 12  1  0  0  0
 12 14  1  0  0  0
 14 15  2  0  0  0
 14 16  1  0  0  0
 12 13  2  0  0  0
  6  7  1  0  0  0
 24 25  2  0  0  0
 25 26  1  0  0  0
 26 30  1  0  0  0
 30 31  1  0  0  0
 26 27  2  0  0  0
 27 32  1  0  0  0
 32 33  1  0  0  0
 27 22  1  0  0  0
  7  3  1  0  0  0
 13  8  1  0  0  0
 20 21  1  0  0  0
 16 17  1  0  0  0
M  END
>  <minimizedAffinity>
-8.71313

>  <minimizedRMSD>
1.67553

$$$$
CHEMBL5282204


 34 38  0  0  0  0  0  0  0  0999 V2000
   16.8338   -9.4666   14.3891 C   0  0  0  0  0  0  0  0  0  0  0  0
   15.7577   -8.7007   14.8896 C   0  0  0  0  0  0  0  0  0  0  0  0
   15.7110   -8.4699   16.2612 C   0  0  0  0  0  0  0  0  0  0  0  0
   14.7888   -7.7759   16.9482 N   0  0  0  0  0  0  0  0  0  0  0  0
   15.2475   -7.8841   18.2251 C   0  0  0  0  0  0  0  0  0  0  0  0
   16.3647   -8.5886   18.3239 O   0  0  0  0  0  0  0  0  0  0  0  0
   16.6594   -8.9565   17.1071 C   0  0  0  0  0  0  0  0  0  0  0  0
   17.7369   -9.7148   16.6622 C   0  0  0  0  0  0  0  0  0  0  0  0
   17.8159   -9.9679   15.2803 C   0  0  0  0  0  0  0  0  0  0  0  0
   13.9294  -10.2074   10.0191 C   0  0  0  0  0  0  0  0  0  0  0  0
   15.3969  -10.3293    9.7984 C   0  0  0  0  0  0  0  0  0  0  0  0
   15.8230  -10.6586    8.6600 O   0  0  0  0  0  0  0  0  0  0  0  0
   16.3157  -10.0751   10.8672 N   0  0  0  0  0  0  0  0  0  0  0  0
   15.9108   -9.8039   12.1721 N   0  0  0  0  0  0  0  0  0  0  0  0
   16.9385   -9.7436   12.9467 C   0  0  0  0  0  0  0  0  0  0  0  0
   18.2275   -9.9898   12.2235 C   0  0  0  0  0  0  0  0  0  0  0  0
   17.7633  -10.2002   10.7794 C   0  0  0  0  0  0  0  0  0  0  0  0
   18.3356   -9.1370    9.8948 C   0  0  0  0  0  0  0  0  0  0  0  0
   17.7419   -8.7325    8.3836 S   0  0  0  0  0  0  0  0  0  0  0  0
   18.8678   -7.5310    8.0381 C   0  0  0  0  0  0  0  0  0  0  0  0
   19.7301   -7.4463    9.1294 C   0  0  0  0  0  0  0  0  0  0  0  0
   19.4393   -8.3417   10.1685 C   0  0  0  0  0  0  0  0  0  0  0  0
   14.5704   -7.2791   19.3810 C   0  0  0  0  0  0  0  0  0  0  0  0
   13.5431   -6.3524   19.1954 C   0  0  0  0  0  0  0  0  0  0  0  0
   12.8880   -5.7668   20.2906 C   0  0  0  0  0  0  0  0  0  0  0  0
   13.2787   -6.1248   21.6065 C   0  0  0  0  0  0  0  0  0  0  0  0
   14.3137   -7.0585   21.7891 C   0  0  0  0  0  0  0  0  0  0  0  0
   14.9506   -7.6275   20.6770 C   0  0  0  0  0  0  0  0  0  0  0  0
   14.6935   -7.4067   23.0906 O   0  0  0  0  0  0  0  0  0  0  0  0
   15.9389   -7.0241   23.6585 C   0  0  0  0  0  0  0  0  0  0  0  0
   12.6811   -5.5915   22.7611 O   0  0  0  0  0  0  0  0  0  0  0  0
   13.0096   -4.3396   23.3463 C   0  0  0  0  0  0  0  0  0  0  0  0
   11.8608   -4.8401   20.0772 O   0  0  0  0  0  0  0  0  0  0  0  0
   10.4859   -5.1999   20.0464 C   0  0  0  0  0  0  0  0  0  0  0  0
 10 11  1  0  0  0
 11 12  2  0  0  0
 11 13  1  0  0  0
 13 14  1  0  0  0
 14 15  2  0  0  0
 15  1  1  0  0  0
  1  2  2  0  0  0
  2  3  1  0  0  0
  3  4  1  0  0  0
  4  5  2  0  0  0
  5 23  1  0  0  0
 23 24  2  0  0  0
 24 25  1  0  0  0
 25 26  2  0  0  0
 26 27  1  0  0  0
 27 28  2  0  0  0
 27 29  1  0  0  0
 29 30  1  0  0  0
 26 31  1  0  0  0
 31 32  1  0  0  0
 25 33  1  0  0  0
 33 34  1  0  0  0
  5  6  1  0  0  0
  6  7  1  0  0  0
  7  8  1  0  0  0
  8  9  2  0  0  0
 15 16  1  0  0  0
 16 17  1  0  0  0
 17 18  1  0  0  0
 18 19  1  0  0  0
 19 20  1  0  0  0
 20 21  2  0  0  0
 21 22  1  0  0  0
 17 13  1  0  0  0
 22 18  2  0  0  0
  9  1  1  0  0  0
  7  3  2  0  0  0
 28 23  1  0  0  0
M  END
>  <minimizedAffinity>
-8.70973

>  <minimizedRMSD>
1.11963

$$$$
CHEMBL478660 PubChem-44578883


 30 33  0  0  0  0  0  0  0  0999 V2000
   16.4647   -8.5541   15.2447 C   0  0  0  0  0  0  0  0  0  0  0  0
   16.7910   -7.2072   15.4009 O   0  0  0  0  0  0  0  0  0  0  0  0
   15.9840   -6.6712   15.3522 H   0  0  0  0  0  0  0  0  0  0  0  0
   15.5193   -8.9909   16.3546 C   0  0  0  0  0  0  0  0  0  0  0  0
   15.9386   -8.4547   17.6049 O   0  0  0  0  0  0  0  0  0  0  0  0
   15.0759   -7.7802   18.4750 C   0  0  0  0  0  0  0  0  0  0  0  0
   15.5505   -7.3930   19.7324 C   0  0  0  0  0  0  0  0  0  0  0  0
   14.7164   -6.7201   20.6296 C   0  0  0  0  0  0  0  0  0  0  0  0
   13.3963   -6.4284   20.2769 C   0  0  0  0  0  0  0  0  0  0  0  0
   12.9044   -6.8166   19.0101 C   0  0  0  0  0  0  0  0  0  0  0  0
   13.7488   -7.4918   18.1182 C   0  0  0  0  0  0  0  0  0  0  0  0
   11.5741   -6.5082   18.6875 C   0  0  0  0  0  0  0  0  0  0  0  0
   10.7881   -5.8341   19.6214 C   0  0  0  0  0  0  0  0  0  0  0  0
   11.3445   -5.4831   20.8537 C   0  0  0  0  0  0  0  0  0  0  0  0
   10.6440   -4.8749   21.7034 O   0  0  0  0  0  0  0  0  0  0  0  0
   12.6088   -5.7870   21.1352 O   0  0  0  0  0  0  0  0  0  0  0  0
   10.9732   -6.8792   17.3728 C   0  0  0  0  0  0  0  0  0  0  0  0
   15.8032   -8.7528   13.8911 C   0  0  0  0  0  0  0  0  0  0  0  0
   16.2821   -9.9787   13.2666 N   0  0  0  0  0  0  0  0  0  0  0  0
   15.4346  -10.2482   12.0921 C   0  0  0  0  0  0  0  0  0  0  0  0
   15.8292   -9.4206   10.8630 C   0  0  0  0  0  0  0  0  0  0  0  0
   17.2631   -9.5388   10.5902 N   0  0  0  0  0  0  0  0  0  0  0  0
   18.1055  -10.2388   11.5567 C   0  0  0  0  0  0  0  0  0  0  0  0
   17.7151   -9.7964   12.9655 C   0  0  0  0  0  0  0  0  0  0  0  0
   17.8318   -8.9732    9.3937 C   0  0  0  0  0  0  0  0  0  0  0  0
   18.8504   -8.0081    9.4724 C   0  0  0  0  0  0  0  0  0  0  0  0
   19.4014   -7.4587    8.3113 C   0  0  0  0  0  0  0  0  0  0  0  0
   18.9403   -7.8679    7.0579 C   0  0  0  0  0  0  0  0  0  0  0  0
   17.9283   -8.8262    6.9651 C   0  0  0  0  0  0  0  0  0  0  0  0
   17.3772   -9.3755    8.1262 C   0  0  0  0  0  0  0  0  0  0  0  0
  6  7  2  0  0  0
  7  8  1  0  0  0
  8  9  2  0  0  0
  9 10  1  0  0  0
 10 11  2  0  0  0
 10 12  1  0  0  0
 12 13  2  0  0  0
 13 14  1  0  0  0
 14 15  2  0  0  0
 14 16  1  0  0  0
 12 17  1  0  0  0
  6  5  1  0  0  0
  5  4  1  0  0  0
  4  1  1  0  0  0
  1 18  1  0  0  0
 18 19  1  0  0  0
 19 20  1  0  0  0
 20 21  1  0  0  0
 21 22  1  0  0  0
 22 23  1  0  0  0
 23 24  1  0  0  0
 22 25  1  0  0  0
 25 26  2  0  0  0
 26 27  1  0  0  0
 27 28  2  0  0  0
 28 29  1  0  0  0
 29 30  2  0  0  0
  1  2  1  0  0  0
 11  6  1  0  0  0
 24 19  1  0  0  0
 30 25  1  0  0  0
 16  9  1  0  0  0
  2  3  1  0  0  0
M  END
>  <minimizedAffinity>
-8.70249

>  <minimizedRMSD>
1.28901

$$$$
CHEMBL1084310 PubChem-136086836


 33 37  0  0  0  0  0  0  0  0999 V2000
   15.0815   -7.8411   18.8162 C   0  0  0  0  0  0  0  0  0  0  0  0
   15.4923   -7.6291   20.1324 C   0  0  0  0  0  0  0  0  0  0  0  0
   14.6425   -7.0018   21.0446 C   0  0  0  0  0  0  0  0  0  0  0  0
   13.3629   -6.5702   20.6633 C   0  0  0  0  0  0  0  0  0  0  0  0
   12.9440   -6.7896   19.3270 C   0  0  0  0  0  0  0  0  0  0  0  0
   11.5996   -6.3885   18.8219 C   0  0  0  0  0  0  0  0  0  0  0  0
   13.8052   -7.4195   18.4230 C   0  0  0  0  0  0  0  0  0  0  0  0
   12.5182   -5.9102   21.6907 C   0  0  0  0  0  0  0  0  0  0  0  0
   12.8371   -5.9417   23.0218 N   0  0  0  0  0  0  0  0  0  0  0  0
   11.8239   -5.2435   23.5446 C   0  0  0  0  0  0  0  0  0  0  0  0
   11.8278   -4.4500   24.6213 N   0  0  0  0  0  0  0  0  0  0  0  0
   10.9443   -3.4855   24.3555 N   0  0  0  0  0  0  0  0  0  0  0  0
   10.4588   -3.6216   23.0886 C   0  0  0  0  0  0  0  0  0  0  0  0
   11.0227   -4.7787   22.6134 C   0  0  0  0  0  0  0  0  0  0  0  0
   11.4355   -5.1290   21.3912 N   0  0  0  0  0  0  0  0  0  0  0  0
   12.3682   -4.5551   25.4375 H   0  0  0  0  0  0  0  0  0  0  0  0
   11.0614   -4.8895   20.5126 H   0  0  0  0  0  0  0  0  0  0  0  0
   16.8640   -9.2582   15.7376 N   0  0  0  0  0  0  0  0  0  0  0  0
   15.8583   -8.5628   16.4812 C   0  0  0  0  0  0  0  0  0  0  0  0
   14.8826   -8.0264   15.8900 O   0  0  0  0  0  0  0  0  0  0  0  0
   15.9823   -8.4885   17.9071 N   0  0  0  0  0  0  0  0  0  0  0  0
   17.6062   -9.6603   16.2443 H   0  0  0  0  0  0  0  0  0  0  0  0
   16.7685   -8.9282   18.3044 H   0  0  0  0  0  0  0  0  0  0  0  0
   17.4789  -10.0475    8.2272 C   0  0  0  0  0  0  0  0  0  0  0  0
   17.0014   -9.9257    9.6290 C   0  0  0  0  0  0  0  0  0  0  0  0
   15.6218   -9.9914    9.9068 C   0  0  0  0  0  0  0  0  0  0  0  0
   15.1518   -9.8781   11.2262 C   0  0  0  0  0  0  0  0  0  0  0  0
   16.0811   -9.6995   12.2508 C   0  0  0  0  0  0  0  0  0  0  0  0
   15.7586   -9.5767   13.5626 N   0  0  0  0  0  0  0  0  0  0  0  0
   16.8753   -9.4151   14.3154 C   0  0  0  0  0  0  0  0  0  0  0  0
   18.2939   -9.4180   13.3926 S   0  0  0  0  0  0  0  0  0  0  0  0
   17.4370   -9.6360   11.9663 C   0  0  0  0  0  0  0  0  0  0  0  0
   17.9279   -9.7455   10.6683 C   0  0  0  0  0  0  0  0  0  0  0  0
 24 25  1  0  0  0
 25 26  2  0  0  0
 26 27  1  0  0  0
 27 28  2  0  0  0
 28 29  1  0  0  0
 29 30  2  0  0  0
 30 18  1  0  0  0
 30 31  1  0  0  0
 18 19  1  0  0  0
 19 20  2  0  0  0
 19 21  1  0  0  0
 21  1  1  0  0  0
  1  2  2  0  0  0
  2  3  1  0  0  0
  3  4  2  0  0  0
  4  8  1  0  0  0
  4  5  1  0  0  0
  8  9  2  0  0  0
  9 10  1  0  0  0
 10 11  1  0  0  0
 11 12  1  0  0  0
 12 13  2  0  0  0
 13 14  1  0  0  0
 14 15  1  0  0  0
 14 10  2  0  0  0
 15  8  1  0  0  0
  5  6  1  0  0  0
  5  7  2  0  0  0
  7  1  1  0  0  0
 31 32  1  0  0  0
 32 33  2  0  0  0
 32 28  1  0  0  0
 33 25  1  0  0  0
 18 22  1  0  0  0
 21 23  1  0  0  0
 11 16  1  0  0  0
 15 17  1  0  0  0
M  END
>  <minimizedAffinity>
-8.70075

>  <minimizedRMSD>
1.32357

$$$$
CHEMBL3211486 19419364 LN00544045 MolPort-000-807-442 PubChem-6861765 ZINC000019419364 ZINC19419364


 29 31  0  0  0  0  0  0  0  0999 V2000
   15.1586   -7.7784   16.7321 C   0  0  0  0  0  0  0  0  0  0  0  0
   15.9687   -8.7640   16.5015 N   0  0  0  0  0  0  0  0  0  0  0  0
   14.7498   -7.4496   20.4795 C   0  0  0  0  0  0  0  0  0  0  0  0
   15.3334   -7.6558   19.2206 C   0  0  0  0  0  0  0  0  0  0  0  0
   14.5641   -7.5705   18.0560 C   0  0  0  0  0  0  0  0  0  0  0  0
   13.2005   -7.2947   18.1520 C   0  0  0  0  0  0  0  0  0  0  0  0
   12.5949   -7.0887   19.4015 C   0  0  0  0  0  0  0  0  0  0  0  0
   13.3828   -7.1428   20.5721 C   0  0  0  0  0  0  0  0  0  0  0  0
   16.5026   -6.5764   21.9955 C   0  0  0  0  0  0  0  0  0  0  0  0
   15.5106   -7.5341   21.6510 O   0  0  0  0  0  0  0  0  0  0  0  0
   11.2171   -6.8618   19.4981 O   0  0  0  0  0  0  0  0  0  0  0  0
   10.2821   -7.3773   18.5600 C   0  0  0  0  0  0  0  0  0  0  0  0
   12.8287   -6.9362   21.8437 O   0  0  0  0  0  0  0  0  0  0  0  0
   12.6221   -5.6782   22.4198 C   0  0  0  0  0  0  0  0  0  0  0  0
   11.3494   -5.4049   23.1359 C   0  0  0  0  0  0  0  0  0  0  0  0
   13.5153   -4.7900   22.3829 O   0  0  0  0  0  0  0  0  0  0  0  0
   16.5495   -8.9816   15.2405 N   0  0  0  0  0  0  0  0  0  0  0  0
   17.7769   -9.7655   15.1647 C   0  0  0  0  0  0  0  0  0  0  0  0
   17.7922  -10.5653   13.8646 C   0  0  0  0  0  0  0  0  0  0  0  0
   17.5822   -9.6699   12.7273 N   0  0  0  0  0  0  0  0  0  0  0  0
   16.2303   -9.1237   12.8223 C   0  0  0  0  0  0  0  0  0  0  0  0
   16.1156   -8.2345   14.0578 C   0  0  0  0  0  0  0  0  0  0  0  0
   17.6176  -10.4924   11.5259 C   0  0  0  0  0  0  0  0  0  0  0  0
   17.7566   -9.6684   10.2786 C   0  0  0  0  0  0  0  0  0  0  0  0
   18.7854   -8.7261   10.1170 C   0  0  0  0  0  0  0  0  0  0  0  0
   18.8781   -7.9780    8.9397 C   0  0  0  0  0  0  0  0  0  0  0  0
   17.9438   -8.1661    7.9177 C   0  0  0  0  0  0  0  0  0  0  0  0
   16.9171   -9.1017    8.0730 C   0  0  0  0  0  0  0  0  0  0  0  0
   16.8248   -9.8499    9.2508 C   0  0  0  0  0  0  0  0  0  0  0  0
  9 10  1  0  0  0
 10  3  1  0  0  0
  3  4  2  0  0  0
  4  5  1  0  0  0
  5  1  1  0  0  0
  1  2  2  0  0  0
  2 17  1  0  0  0
 17 18  1  0  0  0
 18 19  1  0  0  0
 19 20  1  0  0  0
 20 23  1  0  0  0
 23 24  1  0  0  0
 24 25  2  0  0  0
 25 26  1  0  0  0
 26 27  2  0  0  0
 27 28  1  0  0  0
 28 29  2  0  0  0
 20 21  1  0  0  0
 21 22  1  0  0  0
  5  6  2  0  0  0
  6  7  1  0  0  0
  7 11  1  0  0  0
 11 12  1  0  0  0
  7  8  2  0  0  0
  8 13  1  0  0  0
 13 14  1  0  0  0
 14 15  1  0  0  0
 14 16  2  0  0  0
  8  3  1  0  0  0
 22 17  1  0  0  0
 29 24  1  0  0  0
M  END
>  <minimizedAffinity>
-8.69643

>  <minimizedRMSD>
1.50814

$$$$
CHEMBL3193920 LN01157783 PubChem-9592497 ZINC01949183


 29 30  0  0  0  0  0  0  0  0999 V2000
   16.7065   -9.0464   16.6958 N   0  0  0  0  0  0  0  0  0  0  0  0
   16.9429   -8.4443   15.4144 C   0  0  0  0  0  0  0  0  0  0  0  0
   16.5736   -7.2661   15.1655 O   0  0  0  0  0  0  0  0  0  0  0  0
   17.0070   -9.9760   16.8178 H   0  0  0  0  0  0  0  0  0  0  0  0
   14.8431   -8.0444   17.7892 C   0  0  0  0  0  0  0  0  0  0  0  0
   16.0823   -8.4233   17.7936 N   0  0  0  0  0  0  0  0  0  0  0  0
   13.0677   -6.1541   21.1981 C   0  0  0  0  0  0  0  0  0  0  0  0
   14.3659   -6.6633   21.2713 C   0  0  0  0  0  0  0  0  0  0  0  0
   14.9446   -7.2796   20.1601 C   0  0  0  0  0  0  0  0  0  0  0  0
   14.2310   -7.3959   18.9583 C   0  0  0  0  0  0  0  0  0  0  0  0
   12.9227   -6.8871   18.8740 C   0  0  0  0  0  0  0  0  0  0  0  0
   12.3505   -6.2684   19.9978 C   0  0  0  0  0  0  0  0  0  0  0  0
   11.3134   -4.7864   22.2798 C   0  0  0  0  0  0  0  0  0  0  0  0
   12.5160   -5.5422   22.3270 O   0  0  0  0  0  0  0  0  0  0  0  0
   12.2097   -7.0038   17.6744 O   0  0  0  0  0  0  0  0  0  0  0  0
   10.8727   -7.4823   17.6168 C   0  0  0  0  0  0  0  0  0  0  0  0
   17.6087   -9.2399   14.3487 C   0  0  0  0  0  0  0  0  0  0  0  0
   16.5782  -10.0843   13.6145 C   0  0  0  0  0  0  0  0  0  0  0  0
   16.5539   -9.8129   12.1423 C   0  0  0  0  0  0  0  0  0  0  0  0
   15.4661   -9.9562   11.5244 O   0  0  0  0  0  0  0  0  0  0  0  0
   17.7434   -9.3999   11.4503 N   0  0  0  0  0  0  0  0  0  0  0  0
   18.5596   -9.3088   11.9932 H   0  0  0  0  0  0  0  0  0  0  0  0
   17.8669   -9.1062   10.0520 C   0  0  0  0  0  0  0  0  0  0  0  0
   17.1071   -9.7772    9.0810 C   0  0  0  0  0  0  0  0  0  0  0  0
   17.2545   -9.4635    7.7268 C   0  0  0  0  0  0  0  0  0  0  0  0
   18.1620   -8.4765    7.3340 C   0  0  0  0  0  0  0  0  0  0  0  0
   18.9218   -7.8042    8.2950 C   0  0  0  0  0  0  0  0  0  0  0  0
   18.7736   -8.1192    9.6492 C   0  0  0  0  0  0  0  0  0  0  0  0
   18.3052   -8.1712    6.0221 F   0  0  0  0  0  0  0  0  0  0  0  0
 13 14  1  0  0  0
 14  7  1  0  0  0
  7  8  2  0  0  0
  8  9  1  0  0  0
  9 10  2  0  0  0
 10 11  1  0  0  0
 10  5  1  0  0  0
 11 12  2  0  0  0
 11 15  1  0  0  0
 12  7  1  0  0  0
 15 16  1  0  0  0
  5  6  2  0  0  0
  6  1  1  0  0  0
  1  2  1  0  0  0
  2  3  2  0  0  0
  2 17  1  0  0  0
 17 18  1  0  0  0
 18 19  1  0  0  0
 19 20  2  0  0  0
 19 21  1  0  0  0
 21 23  1  0  0  0
 23 24  2  0  0  0
 24 25  1  0  0  0
 25 26  2  0  0  0
 26 27  1  0  0  0
 26 29  1  0  0  0
 27 28  2  0  0  0
 28 23  1  0  0  0
  1  4  1  0  0  0
 21 22  1  0  0  0
M  END
>  <minimizedAffinity>
-8.68744

>  <minimizedRMSD>
1.43106

$$$$
CHEMBL435403 PubChem-44348824


 31 32  0  0  0  0  0  0  0  0999 V2000
   15.8638   -8.3834   16.9700 C   0  0  0  0  0  0  0  0  0  0  0  0
   15.2561   -7.5020   16.3021 O   0  0  0  0  0  0  0  0  0  0  0  0
   15.7255   -8.4433   18.3983 N   0  0  0  0  0  0  0  0  0  0  0  0
   16.2249   -9.1552   18.8598 H   0  0  0  0  0  0  0  0  0  0  0  0
   14.9364   -7.5751   19.2228 C   0  0  0  0  0  0  0  0  0  0  0  0
   15.3901   -7.2716   20.5051 C   0  0  0  0  0  0  0  0  0  0  0  0
   14.6432   -6.4386   21.3373 C   0  0  0  0  0  0  0  0  0  0  0  0
   13.4250   -5.8896   20.9078 C   0  0  0  0  0  0  0  0  0  0  0  0
   12.9715   -6.1645   19.5891 C   0  0  0  0  0  0  0  0  0  0  0  0
   13.7332   -7.0180   18.7748 C   0  0  0  0  0  0  0  0  0  0  0  0
   11.7043   -5.5759   19.0148 C   0  0  0  0  0  0  0  0  0  0  0  0
   11.8402   -4.2092   18.8483 F   0  0  0  0  0  0  0  0  0  0  0  0
   11.4212   -6.1297   17.7768 F   0  0  0  0  0  0  0  0  0  0  0  0
   10.6436   -5.8388   19.8617 F   0  0  0  0  0  0  0  0  0  0  0  0
   12.6858   -5.0620   21.8228 N   0  0  0  0  0  0  0  0  0  0  0  0
   12.9042   -3.8333   21.8626 O   0  0  0  0  0  0  0  0  0  0  0  0
   11.9104   -5.6241   22.8097 O   0  0  0  0  0  0  0  0  0  0  0  0
   18.0209   -8.6941   15.8159 C   0  0  0  0  0  0  0  0  0  0  0  0
   16.7379   -9.3780   16.2589 C   0  0  0  0  0  0  0  0  0  0  0  0
   17.0612  -10.4336   17.1156 O   0  0  0  0  0  0  0  0  0  0  0  0
   17.6249  -11.0691   16.6472 H   0  0  0  0  0  0  0  0  0  0  0  0
   15.9941   -9.9253   15.0450 C   0  0  0  0  0  0  0  0  0  0  0  0
   16.8993  -10.5230   14.1221 O   0  0  0  0  0  0  0  0  0  0  0  0
   16.9288  -10.1840   12.7655 C   0  0  0  0  0  0  0  0  0  0  0  0
   15.7545  -10.1453   11.9951 C   0  0  0  0  0  0  0  0  0  0  0  0
   15.8092   -9.8016   10.6418 C   0  0  0  0  0  0  0  0  0  0  0  0
   17.0362   -9.4942   10.0488 C   0  0  0  0  0  0  0  0  0  0  0  0
   17.0900   -9.1609    8.7371 F   0  0  0  0  0  0  0  0  0  0  0  0
   18.2082   -9.5306   10.8089 C   0  0  0  0  0  0  0  0  0  0  0  0
   18.1562   -9.8743   12.1633 C   0  0  0  0  0  0  0  0  0  0  0  0
   19.3004   -9.9051   12.8897 F   0  0  0  0  0  0  0  0  0  0  0  0
 19 18  1  0  0  0
 19 20  1  0  0  0
 19 22  1  0  0  0
 19  1  1  0  0  0
 22 23  1  0  0  0
 23 24  1  0  0  0
 24 25  2  0  0  0
 25 26  1  0  0  0
 26 27  2  0  0  0
 27 28  1  0  0  0
 27 29  1  0  0  0
 29 30  2  0  0  0
 30 31  1  0  0  0
 30 24  1  0  0  0
  1  2  2  0  0  0
  1  3  1  0  0  0
  3  5  1  0  0  0
  5  6  2  0  0  0
  6  7  1  0  0  0
  7  8  2  0  0  0
  8 15  1  0  0  0
  8  9  1  0  0  0
 15 16  2  0  0  0
 15 17  1  0  0  0
  9 11  1  0  0  0
  9 10  2  0  0  0
 11 12  1  0  0  0
 11 13  1  0  0  0
 11 14  1  0  0  0
 10  5  1  0  0  0
 20 21  1  0  0  0
  3  4  1  0  0  0
M  CHG 1  15   1
M  CHG 1  17  -1
M  END
>  <minimizedAffinity>
-8.67805

>  <minimizedRMSD>
1.56086

$$$$
CHEMBL4648327


 36 39  0  0  0  0  0  0  0  0999 V2000
   18.3172   -9.3197   14.3004 C   0  0  0  0  0  0  0  0  0  0  0  0
   17.4734  -10.3493   13.6619 N   0  0  0  0  0  0  0  0  0  0  0  0
   17.1543  -11.4097   14.6361 C   0  0  0  0  0  0  0  0  0  0  0  0
   16.3882  -10.8567   15.8492 C   0  0  0  0  0  0  0  0  0  0  0  0
   17.1581   -9.7131   16.5146 C   0  0  0  0  0  0  0  0  0  0  0  0
   17.6065   -8.6634   15.4950 C   0  0  0  0  0  0  0  0  0  0  0  0
   18.4377  -12.1207   15.1057 C   0  0  0  0  0  0  0  0  0  0  0  0
   19.7122  -11.4456   14.5815 C   0  0  0  0  0  0  0  0  0  0  0  0
   19.6604   -9.9218   14.7541 C   0  0  0  0  0  0  0  0  0  0  0  0
   16.3651   -9.1008   17.5753 N   0  0  0  0  0  0  0  0  0  0  0  0
   15.3701   -8.0892   17.3637 C   0  0  0  0  0  0  0  0  0  0  0  0
   15.1289   -7.6731   16.1972 O   0  0  0  0  0  0  0  0  0  0  0  0
   16.5236   -9.4024   18.4990 H   0  0  0  0  0  0  0  0  0  0  0  0
   14.6292   -7.5353   18.5100 C   0  0  0  0  0  0  0  0  0  0  0  0
   15.2387   -7.4325   19.7623 C   0  0  0  0  0  0  0  0  0  0  0  0
   14.5492   -6.9066   20.8663 C   0  0  0  0  0  0  0  0  0  0  0  0
   13.2084   -6.4727   20.7057 C   0  0  0  0  0  0  0  0  0  0  0  0
   12.5962   -6.5765   19.4448 C   0  0  0  0  0  0  0  0  0  0  0  0
   13.3090   -7.1053   18.3592 C   0  0  0  0  0  0  0  0  0  0  0  0
   11.2729   -6.1458   19.2939 O   0  0  0  0  0  0  0  0  0  0  0  0
   10.2620   -6.9528   18.7048 C   0  0  0  0  0  0  0  0  0  0  0  0
   12.4407   -5.9343   21.7524 O   0  0  0  0  0  0  0  0  0  0  0  0
   12.5009   -4.5877   22.2000 C   0  0  0  0  0  0  0  0  0  0  0  0
   15.1864   -6.8136   22.1094 O   0  0  0  0  0  0  0  0  0  0  0  0
   16.5640   -6.4935   22.2525 C   0  0  0  0  0  0  0  0  0  0  0  0
   16.2498   -9.7661   13.1134 C   0  0  0  0  0  0  0  0  0  0  0  0
   16.3628   -9.6429   11.6340 C   0  0  0  0  0  0  0  0  0  0  0  0
   15.4050  -10.0198   10.9084 O   0  0  0  0  0  0  0  0  0  0  0  0
   17.5471   -9.0691   11.0661 N   0  0  0  0  0  0  0  0  0  0  0  0
   18.2555   -8.8046   11.6966 H   0  0  0  0  0  0  0  0  0  0  0  0
   17.8069   -8.8404    9.6745 C   0  0  0  0  0  0  0  0  0  0  0  0
   17.1028   -9.5908    8.7261 C   0  0  0  0  0  0  0  0  0  0  0  0
   17.3307   -9.3982    7.3601 C   0  0  0  0  0  0  0  0  0  0  0  0
   18.2670   -8.4522    6.9341 C   0  0  0  0  0  0  0  0  0  0  0  0
   18.9748   -7.6985    7.8741 C   0  0  0  0  0  0  0  0  0  0  0  0
   18.7457   -7.8919    9.2395 C   0  0  0  0  0  0  0  0  0  0  0  0
  1  2  1  0  0  0
  2  3  1  0  0  0
  3  4  1  0  0  0
  4  5  1  0  0  0
  5  6  1  0  0  0
  5 10  1  0  0  0
 10 11  1  0  0  0
 11 12  2  0  0  0
 11 14  1  0  0  0
 14 15  2  0  0  0
 15 16  1  0  0  0
 16 17  2  0  0  0
 17 18  1  0  0  0
 18 19  2  0  0  0
 18 20  1  0  0  0
 20 21  1  0  0  0
 17 22  1  0  0  0
 22 23  1  0  0  0
 16 24  1  0  0  0
 24 25  1  0  0  0
  3  7  1  0  0  0
  7  8  1  0  0  0
  8  9  1  0  0  0
  2 26  1  0  0  0
 26 27  1  0  0  0
 27 28  2  0  0  0
 27 29  1  0  0  0
 29 31  1  0  0  0
 31 32  2  0  0  0
 32 33  1  0  0  0
 33 34  2  0  0  0
 34 35  1  0  0  0
 35 36  2  0  0  0
  1  6  1  0  0  0
 19 14  1  0  0  0
 36 31  1  0  0  0
  9  1  1  0  0  0
 10 13  1  0  0  0
 29 30  1  0  0  0
M  END
>  <minimizedAffinity>
-8.67502

>  <minimizedRMSD>
1.48782

$$$$
CHEMBL4559956 PubChem-135335234


 29 32  0  0  0  0  0  0  0  0999 V2000
   15.5279   -8.2353   17.3826 C   0  0  0  0  0  0  0  0  0  0  0  0
   16.4031   -9.3208   17.3752 C   0  0  0  0  0  0  0  0  0  0  0  0
   16.6752   -9.5570   16.0848 N   0  0  0  0  0  0  0  0  0  0  0  0
   17.4735  -10.5057   15.5399 C   0  0  0  0  0  0  0  0  0  0  0  0
   17.5921  -10.5431   14.1436 C   0  0  0  0  0  0  0  0  0  0  0  0
   16.8914   -9.6089   13.3459 C   0  0  0  0  0  0  0  0  0  0  0  0
   16.0729   -8.6438   13.9730 C   0  0  0  0  0  0  0  0  0  0  0  0
   15.9953   -8.6566   15.3626 C   0  0  0  0  0  0  0  0  0  0  0  0
   15.2694   -7.8151   16.1182 N   0  0  0  0  0  0  0  0  0  0  0  0
   13.6081   -7.1890   18.6685 C   0  0  0  0  0  0  0  0  0  0  0  0
   13.1279   -6.6117   19.8554 C   0  0  0  0  0  0  0  0  0  0  0  0
   13.9584   -6.4536   20.9737 C   0  0  0  0  0  0  0  0  0  0  0  0
   15.2895   -6.8807   20.9007 C   0  0  0  0  0  0  0  0  0  0  0  0
   15.7761   -7.4554   19.7259 C   0  0  0  0  0  0  0  0  0  0  0  0
   14.9531   -7.6179   18.6016 C   0  0  0  0  0  0  0  0  0  0  0  0
   16.3687   -6.7048   22.2728 Cl  0  0  0  0  0  0  0  0  0  0  0  0
   11.3457   -7.3753   17.6712 C   0  0  0  0  0  0  0  0  0  0  0  0
   12.7624   -7.3380   17.5623 O   0  0  0  0  0  0  0  0  0  0  0  0
   13.4806   -5.8786   22.1566 O   0  0  0  0  0  0  0  0  0  0  0  0
   12.1169   -5.5257   22.3443 C   0  0  0  0  0  0  0  0  0  0  0  0
   17.0166   -9.6537   11.8688 C   0  0  0  0  0  0  0  0  0  0  0  0
   15.9576   -9.9796   11.1110 C   0  0  0  0  0  0  0  0  0  0  0  0
   16.0572  -10.0615    9.6140 C   0  0  0  0  0  0  0  0  0  0  0  0
   17.0707   -9.1347    9.1124 N   0  0  0  0  0  0  0  0  0  0  0  0
   18.3425   -9.5202    9.7158 C   0  0  0  0  0  0  0  0  0  0  0  0
   18.3131   -9.2215   11.2163 C   0  0  0  0  0  0  0  0  0  0  0  0
   17.1967   -9.3723    7.6837 C   0  0  0  0  0  0  0  0  0  0  0  0
   18.1391   -8.3546    7.0651 C   0  0  0  0  0  0  0  0  0  0  0  0
   18.8505   -8.9383    6.0331 F   0  0  0  0  0  0  0  0  0  0  0  0
 17 18  1  0  0  0
 18 10  1  0  0  0
 10 11  2  0  0  0
 11 12  1  0  0  0
 12 13  2  0  0  0
 13 14  1  0  0  0
 14 15  2  0  0  0
 15  1  1  0  0  0
  1  2  2  0  0  0
  2  3  1  0  0  0
  3  4  1  0  0  0
  4  5  2  0  0  0
  5  6  1  0  0  0
  6  7  2  0  0  0
  7  8  1  0  0  0
  8  9  2  0  0  0
  6 21  1  0  0  0
 21 22  2  0  0  0
 22 23  1  0  0  0
 23 24  1  0  0  0
 24 25  1  0  0  0
 25 26  1  0  0  0
 24 27  1  0  0  0
 27 28  1  0  0  0
 28 29  1  0  0  0
 13 16  1  0  0  0
 12 19  1  0  0  0
 19 20  1  0  0  0
 15 10  1  0  0  0
  9  1  1  0  0  0
  8  3  1  0  0  0
 26 21  1  0  0  0
M  END
>  <minimizedAffinity>
-8.66909

>  <minimizedRMSD>
1.33800

$$$$
CHEMBL4582649 MCULE-7291141651 PubChem-155558000


 34 37  0  0  0  0  0  0  0  0999 V2000
   16.4492   -9.1425   16.6875 C   0  0  0  0  0  0  0  0  0  0  0  0
   16.3685   -9.2299   15.2947 C   0  0  0  0  0  0  0  0  0  0  0  0
   17.2030  -10.1299   14.6207 C   0  0  0  0  0  0  0  0  0  0  0  0
   18.0710  -10.8939   15.3401 N   0  0  0  0  0  0  0  0  0  0  0  0
   18.1392  -10.7990   16.6933 C   0  0  0  0  0  0  0  0  0  0  0  0
   17.3336   -9.9298   17.3564 N   0  0  0  0  0  0  0  0  0  0  0  0
   17.1533  -10.2485   13.1883 N   0  0  0  0  0  0  0  0  0  0  0  0
   16.1047   -9.5632   12.4204 C   0  0  0  0  0  0  0  0  0  0  0  0
   16.2129   -9.8795   10.9308 C   0  0  0  0  0  0  0  0  0  0  0  0
   17.6046   -9.7394   10.4980 N   0  0  0  0  0  0  0  0  0  0  0  0
   18.6734  -10.3877   11.2667 C   0  0  0  0  0  0  0  0  0  0  0  0
   18.1224  -11.1042   12.4997 C   0  0  0  0  0  0  0  0  0  0  0  0
   17.9399   -8.9210    9.3640 C   0  0  0  0  0  0  0  0  0  0  0  0
   17.2044   -9.0098    8.1720 C   0  0  0  0  0  0  0  0  0  0  0  0
   17.5506   -8.2050    7.0858 C   0  0  0  0  0  0  0  0  0  0  0  0
   18.6232   -7.3197    7.1913 C   0  0  0  0  0  0  0  0  0  0  0  0
   19.3362   -7.2540    8.3891 C   0  0  0  0  0  0  0  0  0  0  0  0
   18.9841   -8.0462    9.4372 N   0  0  0  0  0  0  0  0  0  0  0  0
   15.6112   -8.2204   18.8654 N   0  0  0  0  0  0  0  0  0  0  0  0
   15.5886   -8.2090   17.4304 C   0  0  0  0  0  0  0  0  0  0  0  0
   14.8407   -7.4097   16.8040 O   0  0  0  0  0  0  0  0  0  0  0  0
   16.2170   -8.8692   19.2913 H   0  0  0  0  0  0  0  0  0  0  0  0
   14.6294   -6.3013   21.9102 C   0  0  0  0  0  0  0  0  0  0  0  0
   15.3431   -7.1119   21.0154 C   0  0  0  0  0  0  0  0  0  0  0  0
   14.8441   -7.3860   19.7439 C   0  0  0  0  0  0  0  0  0  0  0  0
   13.6146   -6.8413   19.3633 C   0  0  0  0  0  0  0  0  0  0  0  0
   12.8780   -6.0266   20.2373 C   0  0  0  0  0  0  0  0  0  0  0  0
   13.3928   -5.7523   21.5299 C   0  0  0  0  0  0  0  0  0  0  0  0
   15.2433   -7.0160   24.2015 C   0  0  0  0  0  0  0  0  0  0  0  0
   15.1314   -6.0263   23.1875 O   0  0  0  0  0  0  0  0  0  0  0  0
   11.6492   -5.4945   19.8292 O   0  0  0  0  0  0  0  0  0  0  0  0
   11.4983   -4.7007   18.6595 C   0  0  0  0  0  0  0  0  0  0  0  0
   12.7272   -4.9489   22.4715 O   0  0  0  0  0  0  0  0  0  0  0  0
   12.7527   -3.5290   22.4961 C   0  0  0  0  0  0  0  0  0  0  0  0
 29 30  1  0  0  0
 30 23  1  0  0  0
 23 24  2  0  0  0
 24 25  1  0  0  0
 25 19  1  0  0  0
 19 20  1  0  0  0
 20 21  2  0  0  0
 20  1  1  0  0  0
  1  2  2  0  0  0
  2  3  1  0  0  0
  3  4  2  0  0  0
  4  5  1  0  0  0
  5  6  2  0  0  0
  3  7  1  0  0  0
  7  8  1  0  0  0
  8  9  1  0  0  0
  9 10  1  0  0  0
 10 11  1  0  0  0
 11 12  1  0  0  0
 10 13  1  0  0  0
 13 14  2  0  0  0
 14 15  1  0  0  0
 15 16  2  0  0  0
 16 17  1  0  0  0
 17 18  2  0  0  0
 25 26  2  0  0  0
 26 27  1  0  0  0
 27 31  1  0  0  0
 31 32  1  0  0  0
 27 28  2  0  0  0
 28 33  1  0  0  0
 33 34  1  0  0  0
 28 23  1  0  0  0
  6  1  1  0  0  0
 12  7  1  0  0  0
 18 13  1  0  0  0
 19 22  1  0  0  0
M  END
>  <minimizedAffinity>
-8.65764

>  <minimizedRMSD>
0.65385

$$$$
CHEMBL522869 PubChem-25108454


 31 32  0  0  0  0  0  0  0  0999 V2000
   16.4470   -8.4587   16.0419 C   0  0  0  0  0  0  0  0  0  0  0  0
   16.8870   -7.3119   15.3794 O   0  0  0  0  0  0  0  0  0  0  0  0
   16.1917   -6.9976   14.7806 H   0  0  0  0  0  0  0  0  0  0  0  0
   15.1996   -8.1460   16.8513 C   0  0  0  0  0  0  0  0  0  0  0  0
   15.5126   -8.0711   18.2382 O   0  0  0  0  0  0  0  0  0  0  0  0
   11.2744   -5.8106   19.3640 C   0  0  0  0  0  0  0  0  0  0  0  0
   12.5565   -6.4345   19.7971 C   0  0  0  0  0  0  0  0  0  0  0  0
   13.4173   -6.9514   18.8245 C   0  0  0  0  0  0  0  0  0  0  0  0
   14.6355   -7.5438   19.1917 C   0  0  0  0  0  0  0  0  0  0  0  0
   14.9812   -7.6182   20.5432 C   0  0  0  0  0  0  0  0  0  0  0  0
   14.1245   -7.1034   21.5190 C   0  0  0  0  0  0  0  0  0  0  0  0
   12.9076   -6.5075   21.1565 C   0  0  0  0  0  0  0  0  0  0  0  0
   12.0246   -5.9774   22.1533 N   0  0  0  0  0  0  0  0  0  0  0  0
   11.2890   -6.5490   22.4718 H   0  0  0  0  0  0  0  0  0  0  0  0
   12.1753   -4.3897   22.8310 S   0  0  0  0  0  0  0  0  0  0  0  0
   13.2954   -3.4166   21.8517 C   0  0  0  0  0  0  0  0  0  0  0  0
   10.8267   -3.7279   22.8334 O   0  0  0  0  0  0  0  0  0  0  0  0
   12.6775   -4.4865   24.2440 O   0  0  0  0  0  0  0  0  0  0  0  0
   16.1252   -9.5409   15.0279 C   0  0  0  0  0  0  0  0  0  0  0  0
   15.9857   -8.9586   13.7024 N   0  0  0  0  0  0  0  0  0  0  0  0
   16.2717   -7.9797   13.7197 H   0  0  0  0  0  0  0  0  0  0  0  0
   16.8467   -9.7128   12.8037 C   0  0  0  0  0  0  0  0  0  0  0  0
   16.0544  -10.2196   11.6047 C   0  0  0  0  0  0  0  0  0  0  0  0
   16.6585   -9.7667   10.3161 C   0  0  0  0  0  0  0  0  0  0  0  0
   16.1022  -10.1482    9.0898 C   0  0  0  0  0  0  0  0  0  0  0  0
   16.6921   -9.7338    7.8931 C   0  0  0  0  0  0  0  0  0  0  0  0
   17.8439   -8.9413    7.9130 C   0  0  0  0  0  0  0  0  0  0  0  0
   18.5521   -8.4439    6.3855 Cl  0  0  0  0  0  0  0  0  0  0  0  0
   18.4104   -8.5646    9.1435 C   0  0  0  0  0  0  0  0  0  0  0  0
   19.8607   -7.5785    9.2243 Cl  0  0  0  0  0  0  0  0  0  0  0  0
   17.8157   -8.9825   10.3382 C   0  0  0  0  0  0  0  0  0  0  0  0
  6  7  1  0  0  0
  7  8  2  0  0  0
  8  9  1  0  0  0
  9  5  1  0  0  0
  9 10  2  0  0  0
  5  4  1  0  0  0
  1  4  1  0  0  0
  1  2  1  0  0  0
  1 19  1  0  0  0
 19 20  1  0  0  0
 20 22  1  0  0  0
 22 23  1  0  0  0
 23 24  1  0  0  0
 24 25  2  0  0  0
 25 26  1  0  0  0
 26 27  2  0  0  0
 27 28  1  0  0  0
 27 29  1  0  0  0
 29 30  1  0  0  0
 29 31  2  0  0  0
 31 24  1  0  0  0
 10 11  1  0  0  0
 11 12  2  0  0  0
 12 13  1  0  0  0
 12  7  1  0  0  0
 13 15  1  0  0  0
 15 16  1  0  0  0
 15 17  2  0  0  0
 15 18  2  0  0  0
  2  3  1  0  0  0
 20 21  1  0  0  0
 13 14  1  0  0  0
M  END
>  <minimizedAffinity>
-8.65485

>  <minimizedRMSD>
1.45377

$$$$
CHEMBL5183528


 38 41  0  0  0  0  0  0  0  0999 V2000
   17.6177  -10.3383   12.5775 C   0  0  0  0  0  0  0  0  0  0  0  0
   18.6646  -11.1018   12.9956 N   0  0  0  0  0  0  0  0  0  0  0  0
   19.0745  -11.0948   14.2918 C   0  0  0  0  0  0  0  0  0  0  0  0
   18.4388  -10.3158   15.2054 N   0  0  0  0  0  0  0  0  0  0  0  0
   17.3882   -9.5350   14.8395 C   0  0  0  0  0  0  0  0  0  0  0  0
   16.9509   -9.5295   13.5047 C   0  0  0  0  0  0  0  0  0  0  0  0
   15.9004   -8.7488   13.1385 N   0  0  0  0  0  0  0  0  0  0  0  0
   15.2648   -7.9699   14.0520 C   0  0  0  0  0  0  0  0  0  0  0  0
   15.6748   -7.9628   15.3482 N   0  0  0  0  0  0  0  0  0  0  0  0
   16.7216   -8.7262   15.7671 C   0  0  0  0  0  0  0  0  0  0  0  0
   17.1506   -8.7145   17.1398 N   0  0  0  0  0  0  0  0  0  0  0  0
   18.0492   -9.0701   17.3280 H   0  0  0  0  0  0  0  0  0  0  0  0
   16.4093   -8.2432   18.2410 N   0  0  0  0  0  0  0  0  0  0  0  0
   15.1550   -7.9248   18.1785 C   0  0  0  0  0  0  0  0  0  0  0  0
   14.4282   -7.4386   19.3551 C   0  0  0  0  0  0  0  0  0  0  0  0
   14.8818   -7.7045   20.6540 C   0  0  0  0  0  0  0  0  0  0  0  0
   14.1693   -7.2288   21.7574 C   0  0  0  0  0  0  0  0  0  0  0  0
   13.0002   -6.4852   21.5711 C   0  0  0  0  0  0  0  0  0  0  0  0
   12.5366   -6.2131   20.2759 C   0  0  0  0  0  0  0  0  0  0  0  0
   13.2589   -6.6950   19.1713 C   0  0  0  0  0  0  0  0  0  0  0  0
   12.3019   -6.0185   22.6777 O   0  0  0  0  0  0  0  0  0  0  0  0
   12.6152   -6.2028   23.5414 H   0  0  0  0  0  0  0  0  0  0  0  0
   11.3648   -5.4673   20.1095 O   0  0  0  0  0  0  0  0  0  0  0  0
   11.1896   -4.5372   19.0494 C   0  0  0  0  0  0  0  0  0  0  0  0
   17.1904  -10.3508   11.2062 N   0  0  0  0  0  0  0  0  0  0  0  0
   16.4996  -11.0117   10.9714 H   0  0  0  0  0  0  0  0  0  0  0  0
   17.6543   -9.5113   10.1394 C   0  0  0  0  0  0  0  0  0  0  0  0
   18.8042   -8.7174   10.2608 C   0  0  0  0  0  0  0  0  0  0  0  0
   19.2242   -7.9121    9.1985 C   0  0  0  0  0  0  0  0  0  0  0  0
   18.5011   -7.8889    8.0023 C   0  0  0  0  0  0  0  0  0  0  0  0
   17.3510   -8.6843    7.8782 C   0  0  0  0  0  0  0  0  0  0  0  0
   16.9326   -9.4887    8.9417 C   0  0  0  0  0  0  0  0  0  0  0  0
   18.9480   -7.0739    6.9565 O   0  0  0  0  0  0  0  0  0  0  0  0
   19.9168   -7.4919    5.9987 C   0  0  0  0  0  0  0  0  0  0  0  0
   19.2745   -8.3607    4.9290 C   0  0  0  0  0  0  0  0  0  0  0  0
   19.4410   -7.7207    3.5649 C   0  0  0  0  0  0  0  0  0  0  0  0
   18.2242   -7.7510    2.8861 O   0  0  0  0  0  0  0  0  0  0  0  0
   17.9367   -8.6712    2.7787 H   0  0  0  0  0  0  0  0  0  0  0  0
  1  2  2  0  0  0
  2  3  1  0  0  0
  3  4  2  0  0  0
  4  5  1  0  0  0
  5  6  2  0  0  0
  6  7  1  0  0  0
  7  8  2  0  0  0
  8  9  1  0  0  0
  9 10  2  0  0  0
 10 11  1  0  0  0
 11 13  1  0  0  0
 13 14  2  0  0  0
 14 15  1  0  0  0
 15 16  2  0  0  0
 16 17  1  0  0  0
 17 18  2  0  0  0
 18 19  1  0  0  0
 19 20  2  0  0  0
 19 23  1  0  0  0
 23 24  1  0  0  0
 18 21  1  0  0  0
  1 25  1  0  0  0
 25 27  1  0  0  0
 27 28  2  0  0  0
 28 29  1  0  0  0
 29 30  2  0  0  0
 30 31  1  0  0  0
 31 32  2  0  0  0
 30 33  1  0  0  0
 33 34  1  0  0  0
 34 35  1  0  0  0
 35 36  1  0  0  0
 36 37  1  0  0  0
  6  1  1  0  0  0
 20 15  1  0  0  0
 32 27  1  0  0  0
 10  5  1  0  0  0
 11 12  1  0  0  0
 21 22  1  0  0  0
 25 26  1  0  0  0
 37 38  1  0  0  0
M  END
>  <minimizedAffinity>
-8.65071

>  <minimizedRMSD>
1.59920

$$$$
CHEMBL546922


 30 32  0  0  0  0  0  0  0  0999 V2000
   17.2999   -9.7943   11.9040 C   0  0  0  0  0  0  0  0  0  0  0  0
   16.3806   -8.7590   12.1361 C   0  0  0  0  0  0  0  0  0  0  0  0
   15.9868   -8.4417   13.4382 C   0  0  0  0  0  0  0  0  0  0  0  0
   16.5058   -9.1547   14.5304 C   0  0  0  0  0  0  0  0  0  0  0  0
   17.4323  -10.1979   14.2935 C   0  0  0  0  0  0  0  0  0  0  0  0
   17.8205  -10.5080   12.9874 C   0  0  0  0  0  0  0  0  0  0  0  0
   17.9479  -10.9016   15.3345 N   0  0  0  0  0  0  0  0  0  0  0  0
   17.5965  -10.6314   16.6180 C   0  0  0  0  0  0  0  0  0  0  0  0
   18.1826  -11.4238   17.7299 C   0  0  0  0  0  0  0  0  0  0  0  0
   16.6865   -9.6115   16.8959 C   0  0  0  0  0  0  0  0  0  0  0  0
   16.1254   -8.8554   15.8551 C   0  0  0  0  0  0  0  0  0  0  0  0
   15.2680   -7.8903   16.0763 N   0  0  0  0  0  0  0  0  0  0  0  0
   18.5915  -11.6245   15.1542 H   0  0  0  0  0  0  0  0  0  0  0  0
   14.7625   -7.4378   17.3162 N   0  0  0  0  0  0  0  0  0  0  0  0
   15.1312   -7.8810   18.4779 C   0  0  0  0  0  0  0  0  0  0  0  0
   14.5535   -7.3541   19.7178 C   0  0  0  0  0  0  0  0  0  0  0  0
   13.3631   -6.6230   19.7129 C   0  0  0  0  0  0  0  0  0  0  0  0
   12.8171   -6.1222   20.9056 C   0  0  0  0  0  0  0  0  0  0  0  0
   13.4878   -6.3646   22.1322 C   0  0  0  0  0  0  0  0  0  0  0  0
   14.6855   -7.1011   22.1302 C   0  0  0  0  0  0  0  0  0  0  0  0
   15.2082   -7.5895   20.9239 C   0  0  0  0  0  0  0  0  0  0  0  0
   15.3410   -7.3359   23.3445 O   0  0  0  0  0  0  0  0  0  0  0  0
   16.6247   -6.8038   23.6430 C   0  0  0  0  0  0  0  0  0  0  0  0
   13.0171   -5.9034   23.3733 O   0  0  0  0  0  0  0  0  0  0  0  0
   13.2610   -4.6111   23.9099 C   0  0  0  0  0  0  0  0  0  0  0  0
   11.6231   -5.3924   20.8760 O   0  0  0  0  0  0  0  0  0  0  0  0
   11.0606   -4.8740   19.6776 C   0  0  0  0  0  0  0  0  0  0  0  0
   17.7116  -10.1322   10.6118 O   0  0  0  0  0  0  0  0  0  0  0  0
   18.8205   -8.3239    9.4927 C   0  0  0  0  0  0  0  0  0  0  0  0
   17.6110   -9.2350    9.5140 C   0  0  0  0  0  0  0  0  0  0  0  0
 29 30  1  0  0  0
 30 28  1  0  0  0
 28  1  1  0  0  0
  1  2  2  0  0  0
  2  3  1  0  0  0
  3  4  2  0  0  0
  4  5  1  0  0  0
  5  6  2  0  0  0
  5  7  1  0  0  0
  7  8  1  0  0  0
  8  9  1  0  0  0
  8 10  2  0  0  0
 10 11  1  0  0  0
 11 12  2  0  0  0
 12 14  1  0  0  0
 14 15  2  0  0  0
 15 16  1  0  0  0
 16 17  2  0  0  0
 17 18  1  0  0  0
 18 19  2  0  0  0
 19 20  1  0  0  0
 20 21  2  0  0  0
 20 22  1  0  0  0
 22 23  1  0  0  0
 19 24  1  0  0  0
 24 25  1  0  0  0
 18 26  1  0  0  0
 26 27  1  0  0  0
  6  1  1  0  0  0
 21 16  1  0  0  0
 11  4  1  0  0  0
  7 13  1  0  0  0
M  END
>  <minimizedAffinity>
-8.64922

>  <minimizedRMSD>
1.52172

$$$$
CHEMBL1713175 2750640 CSC046164622 ChemDiv-6228-2054 MCULE-2479398361 MolPort-001-671-783 PubChem-3153929 ZINC000002750640 ZINC02750640


 31 33  0  0  0  0  0  0  0  0999 V2000
   15.9023   -8.4851   16.9575 C   0  0  0  0  0  0  0  0  0  0  0  0
   15.3158   -7.5873   16.2959 O   0  0  0  0  0  0  0  0  0  0  0  0
   15.7909   -8.5407   18.3870 N   0  0  0  0  0  0  0  0  0  0  0  0
   16.3059   -9.2453   18.8426 H   0  0  0  0  0  0  0  0  0  0  0  0
   15.0071   -7.6764   19.2208 C   0  0  0  0  0  0  0  0  0  0  0  0
   13.6884   -7.3391   18.9057 C   0  0  0  0  0  0  0  0  0  0  0  0
   12.9403   -6.4999   19.7436 C   0  0  0  0  0  0  0  0  0  0  0  0
   13.5145   -5.9868   20.9191 C   0  0  0  0  0  0  0  0  0  0  0  0
   14.8533   -6.3240   21.2437 C   0  0  0  0  0  0  0  0  0  0  0  0
   15.5780   -7.1673   20.3857 C   0  0  0  0  0  0  0  0  0  0  0  0
   11.6198   -6.1607   19.4269 O   0  0  0  0  0  0  0  0  0  0  0  0
   10.7587   -7.0199   18.6921 C   0  0  0  0  0  0  0  0  0  0  0  0
   12.7124   -5.1544   21.7180 O   0  0  0  0  0  0  0  0  0  0  0  0
   12.7691   -3.7354   21.7325 C   0  0  0  0  0  0  0  0  0  0  0  0
   15.4543   -5.8236   22.4047 O   0  0  0  0  0  0  0  0  0  0  0  0
   16.7114   -6.2813   22.8863 C   0  0  0  0  0  0  0  0  0  0  0  0
   17.7300  -10.4657   14.6810 C   0  0  0  0  0  0  0  0  0  0  0  0
   17.9339  -11.2589   15.7931 C   0  0  0  0  0  0  0  0  0  0  0  0
   17.2642  -10.6176   16.8236 C   0  0  0  0  0  0  0  0  0  0  0  0
   16.7112   -9.4847   16.2529 C   0  0  0  0  0  0  0  0  0  0  0  0
   17.0060   -9.4175   14.9788 O   0  0  0  0  0  0  0  0  0  0  0  0
   18.2794  -10.7349   13.3258 C   0  0  0  0  0  0  0  0  0  0  0  0
   18.0634   -9.6025   12.4934 O   0  0  0  0  0  0  0  0  0  0  0  0
   17.9613   -9.1748   10.0857 C   0  0  0  0  0  0  0  0  0  0  0  0
   17.2415   -9.2519    8.8872 C   0  0  0  0  0  0  0  0  0  0  0  0
   15.9607   -9.8065    8.8532 C   0  0  0  0  0  0  0  0  0  0  0  0
   15.3816  -10.2947   10.0236 C   0  0  0  0  0  0  0  0  0  0  0  0
   16.0835  -10.2263   11.2273 C   0  0  0  0  0  0  0  0  0  0  0  0
   17.3738   -9.6695   11.2778 C   0  0  0  0  0  0  0  0  0  0  0  0
   19.6348   -7.5868    9.1134 C   0  0  0  0  0  0  0  0  0  0  0  0
   19.2403   -8.6007   10.0268 O   0  0  0  0  0  0  0  0  0  0  0  0
 30 31  1  0  0  0
 31 24  1  0  0  0
 24 25  2  0  0  0
 25 26  1  0  0  0
 26 27  2  0  0  0
 27 28  1  0  0  0
 28 29  2  0  0  0
 29 23  1  0  0  0
 29 24  1  0  0  0
 23 22  1  0  0  0
 22 17  1  0  0  0
 17 18  2  0  0  0
 18 19  1  0  0  0
 19 20  2  0  0  0
 20 21  1  0  0  0
 20  1  1  0  0  0
 21 17  1  0  0  0
  1  2  2  0  0  0
  1  3  1  0  0  0
  3  5  1  0  0  0
  5  6  2  0  0  0
  6  7  1  0  0  0
  7 11  1  0  0  0
  7  8  2  0  0  0
 11 12  1  0  0  0
  8 13  1  0  0  0
  8  9  1  0  0  0
 13 14  1  0  0  0
  9 15  1  0  0  0
  9 10  2  0  0  0
 15 16  1  0  0  0
 10  5  1  0  0  0
  3  4  1  0  0  0
M  END
>  <minimizedAffinity>
-8.64188

>  <minimizedRMSD>
1.84941

$$$$
CHEMBL535345 PubChem-44532757


 34 36  0  0  0  0  0  0  0  0999 V2000
   13.1136   -7.2229   18.6565 C   0  0  0  0  0  0  0  0  0  0  0  0
   12.6449   -7.1345   19.9786 C   0  0  0  0  0  0  0  0  0  0  0  0
   13.5073   -7.3311   21.0589 C   0  0  0  0  0  0  0  0  0  0  0  0
   14.8543   -7.6104   20.8282 C   0  0  0  0  0  0  0  0  0  0  0  0
   15.3344   -7.7013   19.5213 C   0  0  0  0  0  0  0  0  0  0  0  0
   14.4828   -7.5120   18.4265 C   0  0  0  0  0  0  0  0  0  0  0  0
   10.8661   -7.4102   17.6267 C   0  0  0  0  0  0  0  0  0  0  0  0
   12.2346   -7.0279   17.5851 O   0  0  0  0  0  0  0  0  0  0  0  0
   12.9951   -7.2156   22.4555 C   0  0  0  0  0  0  0  0  0  0  0  0
   13.5263   -5.9839   23.1181 C   0  0  0  0  0  0  0  0  0  0  0  0
   12.9682   -4.7394   22.8222 C   0  0  0  0  0  0  0  0  0  0  0  0
   13.4585   -3.6166   23.4084 N   0  0  0  0  0  0  0  0  0  0  0  0
   14.4945   -3.6839   24.2846 C   0  0  0  0  0  0  0  0  0  0  0  0
   14.9920   -2.4963   24.8887 N   0  0  0  0  0  0  0  0  0  0  0  0
   15.0566   -4.8843   24.5837 N   0  0  0  0  0  0  0  0  0  0  0  0
   14.5979   -6.0326   24.0204 C   0  0  0  0  0  0  0  0  0  0  0  0
   15.2098   -7.2737   24.3594 N   0  0  0  0  0  0  0  0  0  0  0  0
   14.5851   -1.6263   24.6724 H   0  0  0  0  0  0  0  0  0  0  0  0
   15.7432   -2.5442   25.5232 H   0  0  0  0  0  0  0  0  0  0  0  0
   15.9617   -7.2946   24.9945 H   0  0  0  0  0  0  0  0  0  0  0  0
   14.8806   -8.1105   23.9585 H   0  0  0  0  0  0  0  0  0  0  0  0
   15.0520   -7.6240   17.1493 O   0  0  0  0  0  0  0  0  0  0  0  0
   15.9030   -8.6815   16.7301 C   0  0  0  0  0  0  0  0  0  0  0  0
   16.2113   -8.5292   15.2844 C   0  0  0  0  0  0  0  0  0  0  0  0
   16.5809   -7.4078   14.8464 O   0  0  0  0  0  0  0  0  0  0  0  0
   16.1189   -9.6720   14.4241 N   0  0  0  0  0  0  0  0  0  0  0  0
   15.8445  -10.5192   14.8438 H   0  0  0  0  0  0  0  0  0  0  0  0
   16.3848   -9.7090   13.0155 C   0  0  0  0  0  0  0  0  0  0  0  0
   17.6904   -9.6483   12.5036 C   0  0  0  0  0  0  0  0  0  0  0  0
   17.9109   -9.6866   11.1235 C   0  0  0  0  0  0  0  0  0  0  0  0
   16.8277   -9.7853   10.2461 C   0  0  0  0  0  0  0  0  0  0  0  0
   17.0609   -9.8248    8.7792 C   0  0  0  0  0  0  0  0  0  0  0  0
   15.5251   -9.8451   10.7488 C   0  0  0  0  0  0  0  0  0  0  0  0
   15.3060   -9.8068   12.1293 C   0  0  0  0  0  0  0  0  0  0  0  0
  7  8  1  0  0  0
  8  1  1  0  0  0
  1  2  2  0  0  0
  2  3  1  0  0  0
  3  9  1  0  0  0
  3  4  2  0  0  0
  9 10  1  0  0  0
 10 11  2  0  0  0
 11 12  1  0  0  0
 12 13  2  0  0  0
 13 14  1  0  0  0
 13 15  1  0  0  0
 15 16  2  0  0  0
 16 17  1  0  0  0
 16 10  1  0  0  0
  4  5  1  0  0  0
  5  6  2  0  0  0
  6 22  1  0  0  0
  6  1  1  0  0  0
 22 23  1  0  0  0
 23 24  1  0  0  0
 24 25  2  0  0  0
 24 26  1  0  0  0
 26 28  1  0  0  0
 28 29  2  0  0  0
 29 30  1  0  0  0
 30 31  2  0  0  0
 31 32  1  0  0  0
 31 33  1  0  0  0
 33 34  2  0  0  0
 34 28  1  0  0  0
 14 18  1  0  0  0
 14 19  1  0  0  0
 17 20  1  0  0  0
 17 21  1  0  0  0
 26 27  1  0  0  0
M  END
>  <minimizedAffinity>
-8.63282

>  <minimizedRMSD>
1.66745

$$$$
CHEMBL3210614 100427727 MolPort-002-151-115 PubChem-5333547 ZINC000100427727


 36 37  0  0  0  0  0  0  0  0999 V2000
   15.7128   -8.2540   16.4625 C   0  0  0  0  0  0  0  0  0  0  0  0
   14.9277   -7.4711   15.8582 O   0  0  0  0  0  0  0  0  0  0  0  0
   15.6615   -8.3792   17.8923 N   0  0  0  0  0  0  0  0  0  0  0  0
   16.2899   -9.0200   18.2969 H   0  0  0  0  0  0  0  0  0  0  0  0
   14.7975   -7.6757   18.7993 C   0  0  0  0  0  0  0  0  0  0  0  0
   13.4274   -7.5615   18.5246 C   0  0  0  0  0  0  0  0  0  0  0  0
   12.5542   -6.8797   19.3752 C   0  0  0  0  0  0  0  0  0  0  0  0
   13.0688   -6.2780   20.5490 C   0  0  0  0  0  0  0  0  0  0  0  0
   14.4385   -6.3939   20.8252 C   0  0  0  0  0  0  0  0  0  0  0  0
   15.3105   -7.0806   19.9778 C   0  0  0  0  0  0  0  0  0  0  0  0
   12.2016   -5.5899   21.4646 N   0  0  0  0  0  0  0  0  0  0  0  0
   12.3784   -4.2676   21.9910 C   0  0  0  0  0  0  0  0  0  0  0  0
   11.4254   -3.7587   23.0118 C   0  0  0  0  0  0  0  0  0  0  0  0
   13.3165   -3.5244   21.5969 O   0  0  0  0  0  0  0  0  0  0  0  0
   11.4004   -6.0782   21.7626 H   0  0  0  0  0  0  0  0  0  0  0  0
   11.2043   -6.8429   18.9948 O   0  0  0  0  0  0  0  0  0  0  0  0
   10.6020   -7.6818   18.0178 C   0  0  0  0  0  0  0  0  0  0  0  0
   16.6580   -7.1329   20.3701 O   0  0  0  0  0  0  0  0  0  0  0  0
   17.2001   -6.5154   21.5284 C   0  0  0  0  0  0  0  0  0  0  0  0
   16.3356   -9.3583   14.4441 N   0  0  0  0  0  0  0  0  0  0  0  0
   16.6487   -9.0879   15.6793 C   0  0  0  0  0  0  0  0  0  0  0  0
   17.8932   -9.6147   16.2979 C   0  0  0  0  0  0  0  0  0  0  0  0
   19.1601   -8.8299   16.2589 C   0  0  0  0  0  0  0  0  0  0  0  0
   17.9023  -10.7423   16.8586 O   0  0  0  0  0  0  0  0  0  0  0  0
   17.1395  -10.1381   13.5985 N   0  0  0  0  0  0  0  0  0  0  0  0
   17.7197  -10.8309   13.9894 H   0  0  0  0  0  0  0  0  0  0  0  0
   17.1628   -9.5793    9.4059 C   0  0  0  0  0  0  0  0  0  0  0  0
   15.9866   -9.9880   10.0471 C   0  0  0  0  0  0  0  0  0  0  0  0
   15.9715  -10.1705   11.4317 C   0  0  0  0  0  0  0  0  0  0  0  0
   17.1342   -9.9485   12.1837 C   0  0  0  0  0  0  0  0  0  0  0  0
   18.3101   -9.5484   11.5397 C   0  0  0  0  0  0  0  0  0  0  0  0
   18.3254   -9.3663   10.1537 C   0  0  0  0  0  0  0  0  0  0  0  0
   17.1944   -9.3994    7.9244 C   0  0  0  0  0  0  0  0  0  0  0  0
   17.4776   -7.9491    7.5445 C   0  0  0  0  0  0  0  0  0  0  0  0
   18.9147   -8.4848    5.5731 C   0  0  0  0  0  0  0  0  0  0  0  0
   18.8583   -7.7943    6.9233 C   0  0  0  0  0  0  0  0  0  0  0  0
 35 36  1  0  0  0
 36 34  1  0  0  0
 34 33  1  0  0  0
 33 27  1  0  0  0
 27 28  2  0  0  0
 28 29  1  0  0  0
 29 30  2  0  0  0
 30 25  1  0  0  0
 30 31  1  0  0  0
 25 20  1  0  0  0
 20 21  2  0  0  0
 21 22  1  0  0  0
 21  1  1  0  0  0
 22 23  1  0  0  0
 22 24  2  0  0  0
  1  2  2  0  0  0
  1  3  1  0  0  0
  3  5  1  0  0  0
  5  6  2  0  0  0
  6  7  1  0  0  0
  7 16  1  0  0  0
  7  8  2  0  0  0
 16 17  1  0  0  0
  8 11  1  0  0  0
  8  9  1  0  0  0
 11 12  1  0  0  0
 12 13  1  0  0  0
 12 14  2  0  0  0
  9 10  2  0  0  0
 10 18  1  0  0  0
 10  5  1  0  0  0
 18 19  1  0  0  0
 31 32  2  0  0  0
 32 27  1  0  0  0
 25 26  1  0  0  0
  3  4  1  0  0  0
 11 15  1  0  0  0
M  END
>  <minimizedAffinity>
-8.63154

>  <minimizedRMSD>
1.89497

$$$$
CHEMBL3194713 PubChem-135460443 ZINC00695533


 31 33  0  0  0  0  0  0  0  0999 V2000
   15.9701   -8.9966   16.4226 N   0  0  0  0  0  0  0  0  0  0  0  0
   16.4664   -8.3556   15.2473 C   0  0  0  0  0  0  0  0  0  0  0  0
   16.6835   -7.1142   15.2473 O   0  0  0  0  0  0  0  0  0  0  0  0
   15.8010   -9.9664   16.4112 H   0  0  0  0  0  0  0  0  0  0  0  0
   16.7299   -9.1397   14.0368 C   0  0  0  0  0  0  0  0  0  0  0  0
   17.8817   -9.8634   13.7832 C   0  0  0  0  0  0  0  0  0  0  0  0
   17.6918  -10.4300   12.5325 C   0  0  0  0  0  0  0  0  0  0  0  0
   16.4394  -10.0079   12.1308 C   0  0  0  0  0  0  0  0  0  0  0  0
   15.8903   -9.2411   13.0373 O   0  0  0  0  0  0  0  0  0  0  0  0
   15.8012  -10.3391   10.8261 C   0  0  0  0  0  0  0  0  0  0  0  0
   16.5948   -9.8004    9.7347 N   0  0  0  0  0  0  0  0  0  0  0  0
   17.5676   -8.8820    9.8677 C   0  0  0  0  0  0  0  0  0  0  0  0
   18.0187   -8.6317    8.5889 C   0  0  0  0  0  0  0  0  0  0  0  0
   17.2853   -9.4149    7.7188 C   0  0  0  0  0  0  0  0  0  0  0  0
   16.4117  -10.1213    8.4631 N   0  0  0  0  0  0  0  0  0  0  0  0
   19.0594   -7.7214    8.2251 N   0  0  0  0  0  0  0  0  0  0  0  0
   20.0281   -7.5339    8.9893 O   0  0  0  0  0  0  0  0  0  0  0  0
   19.0015   -7.0484    7.0269 O   0  0  0  0  0  0  0  0  0  0  0  0
   14.5066   -7.9681   17.9190 C   0  0  0  0  0  0  0  0  0  0  0  0
   15.7202   -8.2674   17.5902 N   0  0  0  0  0  0  0  0  0  0  0  0
   12.8682   -5.5798   20.3583 C   0  0  0  0  0  0  0  0  0  0  0  0
   13.1375   -6.3047   19.1862 C   0  0  0  0  0  0  0  0  0  0  0  0
   14.2105   -7.2041   19.1349 C   0  0  0  0  0  0  0  0  0  0  0  0
   15.0180   -7.3788   20.2612 C   0  0  0  0  0  0  0  0  0  0  0  0
   14.7607   -6.6627   21.4331 C   0  0  0  0  0  0  0  0  0  0  0  0
   13.6857   -5.7623   21.4836 C   0  0  0  0  0  0  0  0  0  0  0  0
   13.4285   -5.0470   22.6481 O   0  0  0  0  0  0  0  0  0  0  0  0
   15.8935   -6.9304   22.9484 Br  0  0  0  0  0  0  0  0  0  0  0  0
   13.9728   -5.1668   23.4014 H   0  0  0  0  0  0  0  0  0  0  0  0
   10.9025   -4.4671   19.3444 C   0  0  0  0  0  0  0  0  0  0  0  0
   11.8009   -4.6779   20.4256 O   0  0  0  0  0  0  0  0  0  0  0  0
 30 31  1  0  0  0
 31 21  1  0  0  0
 21 22  2  0  0  0
 22 23  1  0  0  0
 23 24  2  0  0  0
 23 19  1  0  0  0
 24 25  1  0  0  0
 25 26  2  0  0  0
 25 28  1  0  0  0
 26 27  1  0  0  0
 26 21  1  0  0  0
 19 20  2  0  0  0
 20  1  1  0  0  0
  1  2  1  0  0  0
  2  3  2  0  0  0
  2  5  1  0  0  0
  5  6  2  0  0  0
  6  7  1  0  0  0
  7  8  2  0  0  0
  8  9  1  0  0  0
  8 10  1  0  0  0
  9  5  1  0  0  0
 10 11  1  0  0  0
 11 12  1  0  0  0
 12 13  2  0  0  0
 13 14  1  0  0  0
 13 16  1  0  0  0
 14 15  2  0  0  0
 15 11  1  0  0  0
 16 17  2  0  0  0
 16 18  1  0  0  0
 27 29  1  0  0  0
  1  4  1  0  0  0
M  CHG 1  16   1
M  CHG 1  18  -1
M  END
>  <minimizedAffinity>
-8.61189

>  <minimizedRMSD>
1.32723

$$$$
CHEMBL4521499 PubChem-135335312


 31 34  0  0  0  0  0  0  0  0999 V2000
   16.9036   -9.6322   13.4440 C   0  0  0  0  0  0  0  0  0  0  0  0
   16.0752   -8.6677   14.0590 C   0  0  0  0  0  0  0  0  0  0  0  0
   15.9951   -8.6656   15.4486 C   0  0  0  0  0  0  0  0  0  0  0  0
   15.2599   -7.8227   16.1934 N   0  0  0  0  0  0  0  0  0  0  0  0
   15.5200   -8.2262   17.4629 C   0  0  0  0  0  0  0  0  0  0  0  0
   16.4053   -9.3034   17.4693 C   0  0  0  0  0  0  0  0  0  0  0  0
   16.6821   -9.5515   16.1821 N   0  0  0  0  0  0  0  0  0  0  0  0
   17.4903  -10.4986   15.6492 C   0  0  0  0  0  0  0  0  0  0  0  0
   17.6118  -10.5505   14.2536 C   0  0  0  0  0  0  0  0  0  0  0  0
   14.9372   -7.6007   18.6739 C   0  0  0  0  0  0  0  0  0  0  0  0
   15.7465   -7.4502   19.8098 C   0  0  0  0  0  0  0  0  0  0  0  0
   15.2519   -6.8686   20.9778 C   0  0  0  0  0  0  0  0  0  0  0  0
   13.9263   -6.4222   21.0322 C   0  0  0  0  0  0  0  0  0  0  0  0
   13.1095   -6.5681   19.9023 C   0  0  0  0  0  0  0  0  0  0  0  0
   13.5977   -7.1522   18.7220 C   0  0  0  0  0  0  0  0  0  0  0  0
   16.3141   -6.7086   22.3649 Cl  0  0  0  0  0  0  0  0  0  0  0  0
   12.7657   -7.2888   17.6040 O   0  0  0  0  0  0  0  0  0  0  0  0
   11.3494   -7.3628   17.6982 C   0  0  0  0  0  0  0  0  0  0  0  0
   13.4403   -5.8405   22.2083 O   0  0  0  0  0  0  0  0  0  0  0  0
   12.0789   -5.4696   22.3777 C   0  0  0  0  0  0  0  0  0  0  0  0
   17.0876   -9.1699    9.2186 N   0  0  0  0  0  0  0  0  0  0  0  0
   18.3707   -9.5517    9.8070 C   0  0  0  0  0  0  0  0  0  0  0  0
   18.3506   -9.3173   11.3202 C   0  0  0  0  0  0  0  0  0  0  0  0
   17.0327   -9.6919   11.9676 C   0  0  0  0  0  0  0  0  0  0  0  0
   15.9689  -10.0049   11.2111 C   0  0  0  0  0  0  0  0  0  0  0  0
   16.0604  -10.0863    9.7160 C   0  0  0  0  0  0  0  0  0  0  0  0
   17.1595   -9.2454    7.7536 C   0  0  0  0  0  0  0  0  0  0  0  0
   17.7250   -7.9843    7.0861 C   0  0  0  0  0  0  0  0  0  0  0  0
   18.8254   -8.3307    6.0970 C   0  0  0  0  0  0  0  0  0  0  0  0
   20.4991   -7.2178    5.1889 C   0  0  0  0  0  0  0  0  0  0  0  0
   19.9921   -7.6364    6.4180 O   0  0  0  0  0  0  0  0  0  0  0  0
 30 31  1  0  0  0
 31 29  1  0  0  0
 29 28  1  0  0  0
 28 27  1  0  0  0
 27 21  1  0  0  0
 21 22  1  0  0  0
 22 23  1  0  0  0
 23 24  1  0  0  0
 24 25  2  0  0  0
 25 26  1  0  0  0
 24  1  1  0  0  0
  1  2  2  0  0  0
  2  3  1  0  0  0
  3  4  2  0  0  0
  4  5  1  0  0  0
  5  6  2  0  0  0
  6  7  1  0  0  0
  7  8  1  0  0  0
  8  9  2  0  0  0
  5 10  1  0  0  0
 10 11  2  0  0  0
 11 12  1  0  0  0
 12 13  2  0  0  0
 13 14  1  0  0  0
 14 15  2  0  0  0
 15 17  1  0  0  0
 17 18  1  0  0  0
 13 19  1  0  0  0
 19 20  1  0  0  0
 12 16  1  0  0  0
 26 21  1  0  0  0
  9  1  1  0  0  0
  7  3  1  0  0  0
 15 10  1  0  0  0
M  END
>  <minimizedAffinity>
-8.59000

>  <minimizedRMSD>
1.88677

$$$$
CHEMBL3663981 PubChem-68284123


 37 40  0  0  0  0  0  0  0  0999 V2000
   18.1910  -10.8454   15.6305 C   0  0  0  0  0  0  0  0  0  0  0  0
   17.7839  -11.5879   16.8974 C   0  0  0  0  0  0  0  0  0  0  0  0
   16.9358  -10.6304   17.7133 C   0  0  0  0  0  0  0  0  0  0  0  0
   16.6379   -9.5208   16.8312 N   0  0  0  0  0  0  0  0  0  0  0  0
   17.2957   -9.6208   15.5407 C   0  0  0  0  0  0  0  0  0  0  0  0
   15.8664   -8.3860   17.2436 C   0  0  0  0  0  0  0  0  0  0  0  0
   15.7473   -7.3955   16.4731 O   0  0  0  0  0  0  0  0  0  0  0  0
   15.2776   -8.3618   18.5491 N   0  0  0  0  0  0  0  0  0  0  0  0
   18.9093  -11.9470   17.6136 F   0  0  0  0  0  0  0  0  0  0  0  0
   15.6098   -9.0172   19.2042 H   0  0  0  0  0  0  0  0  0  0  0  0
   14.2472   -7.4667   18.9844 C   0  0  0  0  0  0  0  0  0  0  0  0
   14.4217   -6.4723   19.9377 C   0  0  0  0  0  0  0  0  0  0  0  0
   13.2304   -5.8668   20.1691 N   0  0  0  0  0  0  0  0  0  0  0  0
   12.3150   -6.4882   19.3923 C   0  0  0  0  0  0  0  0  0  0  0  0
   10.9401   -6.2486   19.3213 C   0  0  0  0  0  0  0  0  0  0  0  0
   10.1722   -7.0651   18.4732 C   0  0  0  0  0  0  0  0  0  0  0  0
   10.7800   -8.0989   17.7314 C   0  0  0  0  0  0  0  0  0  0  0  0
   12.1640   -8.3239   17.8232 C   0  0  0  0  0  0  0  0  0  0  0  0
   12.9051   -7.4845   18.6546 C   0  0  0  0  0  0  0  0  0  0  0  0
   13.0243   -4.7893   21.0970 C   0  0  0  0  0  0  0  0  0  0  0  0
   13.9929   -4.3385   21.7646 O   0  0  0  0  0  0  0  0  0  0  0  0
   11.7331   -4.2147   21.2748 N   0  0  0  0  0  0  0  0  0  0  0  0
   10.9669   -4.5569   20.7598 H   0  0  0  0  0  0  0  0  0  0  0  0
   11.6068   -3.4755   21.9125 H   0  0  0  0  0  0  0  0  0  0  0  0
   16.2884   -9.7902   14.4466 C   0  0  0  0  0  0  0  0  0  0  0  0
   15.0580   -9.8560   14.7180 O   0  0  0  0  0  0  0  0  0  0  0  0
   16.7373   -9.8665   13.0925 N   0  0  0  0  0  0  0  0  0  0  0  0
   17.7001   -9.7724   12.9097 H   0  0  0  0  0  0  0  0  0  0  0  0
   15.8326  -10.0775   11.9705 C   0  0  0  0  0  0  0  0  0  0  0  0
   16.5086   -9.7333   10.6836 C   0  0  0  0  0  0  0  0  0  0  0  0
   17.8368   -9.2775   10.6672 C   0  0  0  0  0  0  0  0  0  0  0  0
   18.4553   -8.9748    9.4477 C   0  0  0  0  0  0  0  0  0  0  0  0
   17.7525   -9.1278    8.2491 C   0  0  0  0  0  0  0  0  0  0  0  0
   16.4316   -9.5833    8.2650 C   0  0  0  0  0  0  0  0  0  0  0  0
   15.8115   -9.8862    9.4802 C   0  0  0  0  0  0  0  0  0  0  0  0
   19.7366   -8.5337    9.4233 F   0  0  0  0  0  0  0  0  0  0  0  0
   18.5265   -9.1281   11.8267 F   0  0  0  0  0  0  0  0  0  0  0  0
  1  2  1  0  0  0
  2  3  1  0  0  0
  2  9  1  0  0  0
  3  4  1  0  0  0
  4  5  1  0  0  0
  4  6  1  0  0  0
  5 25  1  0  0  0
  5  1  1  0  0  0
 25 26  2  0  0  0
 25 27  1  0  0  0
 27 29  1  0  0  0
 29 30  1  0  0  0
 30 31  2  0  0  0
 31 32  1  0  0  0
 31 37  1  0  0  0
 32 33  2  0  0  0
 32 36  1  0  0  0
 33 34  1  0  0  0
 34 35  2  0  0  0
 35 30  1  0  0  0
  6  7  2  0  0  0
  6  8  1  0  0  0
  8 11  1  0  0  0
 11 12  2  0  0  0
 12 13  1  0  0  0
 13 14  1  0  0  0
 13 20  1  0  0  0
 14 15  2  0  0  0
 15 16  1  0  0  0
 16 17  2  0  0  0
 17 18  1  0  0  0
 18 19  2  0  0  0
 19 11  1  0  0  0
 19 14  1  0  0  0
 20 21  2  0  0  0
 20 22  1  0  0  0
 27 28  1  0  0  0
  8 10  1  0  0  0
 22 23  1  0  0  0
 22 24  1  0  0  0
M  END
>  <minimizedAffinity>
-8.58783

>  <minimizedRMSD>
1.70826

$$$$
CHEMBL5171911


 28 30  0  0  0  0  0  0  0  0999 V2000
   15.5651   -8.3190   17.2912 N   0  0  0  0  0  0  0  0  0  0  0  0
   15.3248   -7.9816   16.0363 N   0  0  0  0  0  0  0  0  0  0  0  0
   16.1388   -8.7252   15.2682 C   0  0  0  0  0  0  0  0  0  0  0  0
   16.9205   -9.5602   16.0491 C   0  0  0  0  0  0  0  0  0  0  0  0
   16.5214   -9.2686   17.3434 C   0  0  0  0  0  0  0  0  0  0  0  0
   13.0409   -6.4204   19.3184 C   0  0  0  0  0  0  0  0  0  0  0  0
   13.7185   -6.9951   18.2318 C   0  0  0  0  0  0  0  0  0  0  0  0
   14.8897   -7.7410   18.4186 C   0  0  0  0  0  0  0  0  0  0  0  0
   15.3892   -7.9132   19.7161 C   0  0  0  0  0  0  0  0  0  0  0  0
   14.7278   -7.3488   20.8074 C   0  0  0  0  0  0  0  0  0  0  0  0
   13.5594   -6.6045   20.6211 C   0  0  0  0  0  0  0  0  0  0  0  0
   11.9877   -4.3039   19.4248 F   0  0  0  0  0  0  0  0  0  0  0  0
   11.7822   -5.6247   19.0690 C   0  0  0  0  0  0  0  0  0  0  0  0
   11.4197   -5.6690   17.7328 F   0  0  0  0  0  0  0  0  0  0  0  0
   10.7454   -6.1439   19.8230 F   0  0  0  0  0  0  0  0  0  0  0  0
   12.9171   -6.0441   21.7829 C   0  0  0  0  0  0  0  0  0  0  0  0
   12.4012   -5.5940   22.7161 N   0  0  0  0  0  0  0  0  0  0  0  0
   16.1762   -8.6458   13.8039 C   0  0  0  0  0  0  0  0  0  0  0  0
   15.7098   -7.6278   13.2253 O   0  0  0  0  0  0  0  0  0  0  0  0
   16.7420   -9.7251   13.0486 N   0  0  0  0  0  0  0  0  0  0  0  0
   17.0904  -10.4935   13.5559 H   0  0  0  0  0  0  0  0  0  0  0  0
   16.8451   -9.7843   11.6214 C   0  0  0  0  0  0  0  0  0  0  0  0
   15.8203  -10.2598   10.8585 N   0  0  0  0  0  0  0  0  0  0  0  0
   15.9057  -10.3213    9.5023 C   0  0  0  0  0  0  0  0  0  0  0  0
   17.0655   -9.8907    8.8559 C   0  0  0  0  0  0  0  0  0  0  0  0
   18.1284   -9.3997    9.6148 C   0  0  0  0  0  0  0  0  0  0  0  0
   18.0205   -9.3450   11.0056 C   0  0  0  0  0  0  0  0  0  0  0  0
   17.1582   -9.9487    7.5058 F   0  0  0  0  0  0  0  0  0  0  0  0
 12 13  1  0  0  0
 13 14  1  0  0  0
 13 15  1  0  0  0
 13  6  1  0  0  0
  6  7  2  0  0  0
  7  8  1  0  0  0
  8  9  2  0  0  0
  9 10  1  0  0  0
 10 11  2  0  0  0
 11 16  1  0  0  0
 16 17  3  0  0  0
  8  1  1  0  0  0
  1  2  1  0  0  0
  2  3  2  0  0  0
  3  4  1  0  0  0
  4  5  2  0  0  0
  3 18  1  0  0  0
 18 19  2  0  0  0
 18 20  1  0  0  0
 20 22  1  0  0  0
 22 23  2  0  0  0
 23 24  1  0  0  0
 24 25  2  0  0  0
 25 26  1  0  0  0
 26 27  2  0  0  0
 25 28  1  0  0  0
 11  6  1  0  0  0
  5  1  1  0  0  0
 27 22  1  0  0  0
 20 21  1  0  0  0
M  END
>  <minimizedAffinity>
-8.55545

>  <minimizedRMSD>
1.31020

$$$$
CHEMBL3209750 LN00901582 MolPort-001-495-469 PubChem-6875645 ZINC00672103


 29 30  0  0  0  0  0  0  0  0999 V2000
   16.5106   -9.1438   16.2828 C   0  0  0  0  0  0  0  0  0  0  0  0
   17.0336   -9.9414   17.1082 O   0  0  0  0  0  0  0  0  0  0  0  0
   15.7177   -8.0532   16.7553 N   0  0  0  0  0  0  0  0  0  0  0  0
   15.3115   -7.4333   16.1073 H   0  0  0  0  0  0  0  0  0  0  0  0
   17.1115   -9.7053   12.0742 C   0  0  0  0  0  0  0  0  0  0  0  0
   16.0669   -8.8932   12.5396 C   0  0  0  0  0  0  0  0  0  0  0  0
   15.8711   -8.7104   13.9111 C   0  0  0  0  0  0  0  0  0  0  0  0
   16.7168   -9.3363   14.8368 C   0  0  0  0  0  0  0  0  0  0  0  0
   17.7608  -10.1474   14.3702 C   0  0  0  0  0  0  0  0  0  0  0  0
   17.9556  -10.3294   12.9981 C   0  0  0  0  0  0  0  0  0  0  0  0
   16.3503  -10.0956    9.6566 C   0  0  0  0  0  0  0  0  0  0  0  0
   15.1225  -10.1022    9.9369 O   0  0  0  0  0  0  0  0  0  0  0  0
   17.3446   -9.9157   10.6749 N   0  0  0  0  0  0  0  0  0  0  0  0
   18.2845   -9.9391   10.3828 H   0  0  0  0  0  0  0  0  0  0  0  0
   17.4428   -9.0445    7.7127 C   0  0  0  0  0  0  0  0  0  0  0  0
   16.7732  -10.2973    8.2433 C   0  0  0  0  0  0  0  0  0  0  0  0
   15.5094   -7.8523   18.1244 N   0  0  0  0  0  0  0  0  0  0  0  0
   14.4779   -7.1876   18.5304 C   0  0  0  0  0  0  0  0  0  0  0  0
   14.2259   -6.9563   19.9610 C   0  0  0  0  0  0  0  0  0  0  0  0
   12.9195   -6.7022   20.4121 C   0  0  0  0  0  0  0  0  0  0  0  0
   12.6942   -6.4832   21.7806 C   0  0  0  0  0  0  0  0  0  0  0  0
   13.7530   -6.5146   22.7009 C   0  0  0  0  0  0  0  0  0  0  0  0
   15.0523   -6.7689   22.2407 C   0  0  0  0  0  0  0  0  0  0  0  0
   16.5315   -6.8234   23.4487 Br  0  0  0  0  0  0  0  0  0  0  0  0
   15.2830   -6.9875   20.8810 C   0  0  0  0  0  0  0  0  0  0  0  0
   11.8627   -6.6708   19.4937 O   0  0  0  0  0  0  0  0  0  0  0  0
   10.8995   -5.6262   19.4634 C   0  0  0  0  0  0  0  0  0  0  0  0
   13.5338   -6.2970   24.0655 O   0  0  0  0  0  0  0  0  0  0  0  0
   13.0368   -5.0685   24.5788 C   0  0  0  0  0  0  0  0  0  0  0  0
 15 16  1  0  0  0
 16 11  1  0  0  0
 11 12  2  0  0  0
 11 13  1  0  0  0
 13  5  1  0  0  0
  5  6  2  0  0  0
  6  7  1  0  0  0
  7  8  2  0  0  0
  8  9  1  0  0  0
  8  1  1  0  0  0
  9 10  2  0  0  0
 10  5  1  0  0  0
  1  2  2  0  0  0
  1  3  1  0  0  0
  3 17  1  0  0  0
 17 18  2  0  0  0
 18 19  1  0  0  0
 19 20  2  0  0  0
 20 26  1  0  0  0
 20 21  1  0  0  0
 26 27  1  0  0  0
 21 22  2  0  0  0
 22 28  1  0  0  0
 22 23  1  0  0  0
 28 29  1  0  0  0
 23 24  1  0  0  0
 23 25  2  0  0  0
 25 19  1  0  0  0
 13 14  1  0  0  0
  3  4  1  0  0  0
M  END
>  <minimizedAffinity>
-8.50725

>  <minimizedRMSD>
1.53405

$$$$
CHEMBL4759094 PubChem-153630847 PubChem-165035855 PubChem-165080728


 35 39  0  0  0  0  0  0  0  0999 V2000
   14.3330   -6.2051   21.7619 N   0  0  0  0  0  0  0  0  0  0  0  0
   14.1484   -6.6050   20.4589 C   0  0  0  0  0  0  0  0  0  0  0  0
   15.1530   -7.2040   19.7602 N   0  0  0  0  0  0  0  0  0  0  0  0
   14.9960   -7.6132   18.4752 C   0  0  0  0  0  0  0  0  0  0  0  0
   13.8029   -7.4272   17.8534 N   0  0  0  0  0  0  0  0  0  0  0  0
   12.7659   -6.8368   18.4969 C   0  0  0  0  0  0  0  0  0  0  0  0
   12.9080   -6.4052   19.8209 C   0  0  0  0  0  0  0  0  0  0  0  0
   11.8535   -5.7939   20.5108 C   0  0  0  0  0  0  0  0  0  0  0  0
   12.0515   -5.3734   21.8411 C   0  0  0  0  0  0  0  0  0  0  0  0
   13.3070   -5.5969   22.4486 C   0  0  0  0  0  0  0  0  0  0  0  0
   13.4879   -5.2152   23.6397 O   0  0  0  0  0  0  0  0  0  0  0  0
   10.5167   -5.6472   19.8437 C   0  0  0  0  0  0  0  0  0  0  0  0
   15.6247   -6.4091   22.4577 C   0  0  0  0  0  0  0  0  0  0  0  0
   15.8657   -7.5314   23.4161 C   0  0  0  0  0  0  0  0  0  0  0  0
   17.1219   -6.6472   23.3792 C   0  0  0  0  0  0  0  0  0  0  0  0
   16.1899   -5.4265   23.4327 C   0  0  0  0  0  0  0  0  0  0  0  0
   16.9790   -6.6134   21.8506 C   0  0  0  0  0  0  0  0  0  0  0  0
   10.9675   -4.7105   22.6139 C   0  0  0  0  0  0  0  0  0  0  0  0
   10.2138   -5.3935   23.3570 O   0  0  0  0  0  0  0  0  0  0  0  0
   10.7749   -3.2327   22.5681 C   0  0  0  0  0  0  0  0  0  0  0  0
   16.0985   -8.2362   17.8023 N   0  0  0  0  0  0  0  0  0  0  0  0
   16.8929   -8.4267   18.3517 H   0  0  0  0  0  0  0  0  0  0  0  0
   16.1763   -8.6136   16.4205 C   0  0  0  0  0  0  0  0  0  0  0  0
   15.9587   -7.6961   15.3833 C   0  0  0  0  0  0  0  0  0  0  0  0
   16.0440   -8.1027   14.0494 C   0  0  0  0  0  0  0  0  0  0  0  0
   16.3490   -9.4347   13.7272 C   0  0  0  0  0  0  0  0  0  0  0  0
   16.5649  -10.3495   14.7704 C   0  0  0  0  0  0  0  0  0  0  0  0
   16.4792   -9.9410   16.1041 C   0  0  0  0  0  0  0  0  0  0  0  0
   16.4378   -9.8542   12.3505 N   0  0  0  0  0  0  0  0  0  0  0  0
   15.2472   -9.9361   11.5171 C   0  0  0  0  0  0  0  0  0  0  0  0
   17.6970  -10.3004   11.7627 C   0  0  0  0  0  0  0  0  0  0  0  0
   18.4606   -9.1245   11.1670 C   0  0  0  0  0  0  0  0  0  0  0  0
   17.8844   -8.7446    9.8876 N   0  0  0  0  0  0  0  0  0  0  0  0
   18.8382   -7.8562    9.2497 C   0  0  0  0  0  0  0  0  0  0  0  0
   17.8284   -9.9458    9.0733 C   0  0  0  0  0  0  0  0  0  0  0  0
 13 14  1  0  0  0
 14 15  1  0  0  0
 15 16  1  0  0  0
 15 17  1  0  0  0
 13  1  1  0  0  0
  1  2  1  0  0  0
  2  3  2  0  0  0
  3  4  1  0  0  0
  4  5  2  0  0  0
  5  6  1  0  0  0
  6  7  2  0  0  0
  7  8  1  0  0  0
  8  9  2  0  0  0
  9 10  1  0  0  0
 10 11  2  0  0  0
  9 18  1  0  0  0
 18 19  2  0  0  0
 18 20  1  0  0  0
  8 12  1  0  0  0
  4 21  1  0  0  0
 21 23  1  0  0  0
 23 24  2  0  0  0
 24 25  1  0  0  0
 25 26  2  0  0  0
 26 27  1  0  0  0
 27 28  2  0  0  0
 26 29  1  0  0  0
 29 30  1  0  0  0
 29 31  1  0  0  0
 31 32  1  0  0  0
 32 33  1  0  0  0
 33 34  1  0  0  0
 33 35  1  0  0  0
 16 13  1  0  0  0
 10  1  1  0  0  0
 28 23  1  0  0  0
 17 13  1  0  0  0
  7  2  1  0  0  0
 21 22  1  0  0  0
M  END
>  <minimizedAffinity>
-8.50137

>  <minimizedRMSD>
1.95977

$$$$
CHEMBL1861042 PubChem-56658495


 29 31  0  0  0  0  0  0  0  0999 V2000
   15.4087   -8.1167   17.6290 C   0  0  0  0  0  0  0  0  0  0  0  0
   15.2022   -7.7274   16.3551 N   0  0  0  0  0  0  0  0  0  0  0  0
   16.1107   -8.4517   15.6777 C   0  0  0  0  0  0  0  0  0  0  0  0
   16.8465   -9.2405   16.5360 C   0  0  0  0  0  0  0  0  0  0  0  0
   16.3729   -9.0037   17.7364 O   0  0  0  0  0  0  0  0  0  0  0  0
   12.5579   -6.7496   19.7074 C   0  0  0  0  0  0  0  0  0  0  0  0
   13.3023   -7.2407   18.6231 C   0  0  0  0  0  0  0  0  0  0  0  0
   14.6419   -7.6034   18.7731 C   0  0  0  0  0  0  0  0  0  0  0  0
   15.2486   -7.4755   20.0226 C   0  0  0  0  0  0  0  0  0  0  0  0
   14.5290   -6.9883   21.1232 C   0  0  0  0  0  0  0  0  0  0  0  0
   13.1798   -6.6220   20.9760 C   0  0  0  0  0  0  0  0  0  0  0  0
   10.3329   -7.0968   18.6680 C   0  0  0  0  0  0  0  0  0  0  0  0
   11.2164   -6.3913   19.5299 O   0  0  0  0  0  0  0  0  0  0  0  0
   15.1357   -6.8593   22.3781 O   0  0  0  0  0  0  0  0  0  0  0  0
   16.4890   -6.4575   22.5425 C   0  0  0  0  0  0  0  0  0  0  0  0
   12.5144   -6.1421   22.1170 O   0  0  0  0  0  0  0  0  0  0  0  0
   12.3094   -4.7710   22.4259 C   0  0  0  0  0  0  0  0  0  0  0  0
   16.3204   -8.3525   14.2063 C   0  0  0  0  0  0  0  0  0  0  0  0
   16.8278   -9.6135   13.6925 N   0  0  0  0  0  0  0  0  0  0  0  0
   16.5140  -10.3838   14.2829 H   0  0  0  0  0  0  0  0  0  0  0  0
   16.2997   -9.7689   12.3468 C   0  0  0  0  0  0  0  0  0  0  0  0
   17.4218   -9.6404   11.3281 C   0  0  0  0  0  0  0  0  0  0  0  0
   16.9035   -9.8237    9.9060 C   0  0  0  0  0  0  0  0  0  0  0  0
   17.7201   -9.0531    8.9214 C   0  0  0  0  0  0  0  0  0  0  0  0
   18.6595   -8.1102    9.3586 C   0  0  0  0  0  0  0  0  0  0  0  0
   19.4101   -7.3858    8.4276 C   0  0  0  0  0  0  0  0  0  0  0  0
   19.2201   -7.5989    7.0588 C   0  0  0  0  0  0  0  0  0  0  0  0
   18.2783   -8.5348    6.6205 C   0  0  0  0  0  0  0  0  0  0  0  0
   17.5274   -9.2596    7.5510 C   0  0  0  0  0  0  0  0  0  0  0  0
 12 13  1  0  0  0
 13  6  1  0  0  0
  6  7  2  0  0  0
  7  8  1  0  0  0
  8  1  1  0  0  0
  8  9  2  0  0  0
  1  2  2  0  0  0
  2  3  1  0  0  0
  3 18  1  0  0  0
  3  4  2  0  0  0
 18 19  1  0  0  0
 19 21  1  0  0  0
 21 22  1  0  0  0
 22 23  1  0  0  0
 23 24  1  0  0  0
 24 25  2  0  0  0
 25 26  1  0  0  0
 26 27  2  0  0  0
 27 28  1  0  0  0
 28 29  2  0  0  0
 29 24  1  0  0  0
  4  5  1  0  0  0
  5  1  1  0  0  0
  9 10  1  0  0  0
 10 14  1  0  0  0
 10 11  2  0  0  0
 14 15  1  0  0  0
 11 16  1  0  0  0
 11  6  1  0  0  0
 16 17  1  0  0  0
 19 20  1  0  0  0
M  END
>  <minimizedAffinity>
-8.48342

>  <minimizedRMSD>
1.65971

$$$$
CHEMBL452136 Molport-003-814-880 PubChem-135588530 ZINC01021331


 26 27  0  0  0  0  0  0  0  0999 V2000
   16.8868  -10.0252   15.5625 C   0  0  0  0  0  0  0  0  0  0  0  0
   17.0815  -10.8681   16.4779 O   0  0  0  0  0  0  0  0  0  0  0  0
   16.1720   -8.8204   15.8286 N   0  0  0  0  0  0  0  0  0  0  0  0
   16.0176   -8.1770   15.0996 H   0  0  0  0  0  0  0  0  0  0  0  0
   15.6869   -8.5389   17.1105 N   0  0  0  0  0  0  0  0  0  0  0  0
   14.7165   -7.7001   17.2650 C   0  0  0  0  0  0  0  0  0  0  0  0
   14.1564   -7.3580   18.5921 C   0  0  0  0  0  0  0  0  0  0  0  0
   12.7582   -7.2091   18.7258 C   0  0  0  0  0  0  0  0  0  0  0  0
   12.2004   -6.8865   19.9658 C   0  0  0  0  0  0  0  0  0  0  0  0
   13.0162   -6.7086   21.0821 C   0  0  0  0  0  0  0  0  0  0  0  0
   14.3978   -6.8524   20.9647 C   0  0  0  0  0  0  0  0  0  0  0  0
   14.9742   -7.1747   19.7331 C   0  0  0  0  0  0  0  0  0  0  0  0
   16.3562   -7.3079   19.6645 O   0  0  0  0  0  0  0  0  0  0  0  0
   12.4533   -6.3882   22.3096 O   0  0  0  0  0  0  0  0  0  0  0  0
   11.8356   -7.3877   17.5658 C   0  0  0  0  0  0  0  0  0  0  0  0
   16.8777   -7.1820   20.4327 H   0  0  0  0  0  0  0  0  0  0  0  0
   11.5246   -6.2916   22.3882 H   0  0  0  0  0  0  0  0  0  0  0  0
   17.3713  -10.3061   14.1856 C   0  0  0  0  0  0  0  0  0  0  0  0
   16.3435  -10.0095   13.2496 O   0  0  0  0  0  0  0  0  0  0  0  0
   19.2352   -8.3563    9.5956 C   0  0  0  0  0  0  0  0  0  0  0  0
   17.9912   -9.0183   10.0674 C   0  0  0  0  0  0  0  0  0  0  0  0
   17.0431   -9.4650    9.1428 C   0  0  0  0  0  0  0  0  0  0  0  0
   15.8731  -10.0874    9.5871 C   0  0  0  0  0  0  0  0  0  0  0  0
   15.6508  -10.2634   10.9563 C   0  0  0  0  0  0  0  0  0  0  0  0
   16.5949   -9.8191   11.8884 C   0  0  0  0  0  0  0  0  0  0  0  0
   17.7691   -9.1940   11.4363 C   0  0  0  0  0  0  0  0  0  0  0  0
 20 21  1  0  0  0
 21 22  2  0  0  0
 22 23  1  0  0  0
 23 24  2  0  0  0
 24 25  1  0  0  0
 25 26  2  0  0  0
 25 19  1  0  0  0
 26 21  1  0  0  0
 19 18  1  0  0  0
 18  1  1  0  0  0
  1  2  2  0  0  0
  1  3  1  0  0  0
  3  5  1  0  0  0
  5  6  2  0  0  0
  6  7  1  0  0  0
  7  8  2  0  0  0
  8  9  1  0  0  0
  8 15  1  0  0  0
  9 10  2  0  0  0
 10 11  1  0  0  0
 10 14  1  0  0  0
 11 12  2  0  0  0
 12 13  1  0  0  0
 12  7  1  0  0  0
  3  4  1  0  0  0
 13 16  1  0  0  0
 14 17  1  0  0  0
M  END
>  <minimizedAffinity>
-8.47120

>  <minimizedRMSD>
1.47289

$$$$
CHEMBL2361966 PubChem-49789582


 36 39  0  0  0  0  0  0  0  0999 V2000
   16.5287   -9.1211   16.6429 C   0  0  0  0  0  0  0  0  0  0  0  0
   17.4737   -9.8957   17.3495 C   0  0  0  0  0  0  0  0  0  0  0  0
   18.3704  -10.7350   16.6701 C   0  0  0  0  0  0  0  0  0  0  0  0
   18.2873  -10.7718   15.2813 C   0  0  0  0  0  0  0  0  0  0  0  0
   19.0642  -11.5187   14.4674 N   0  0  0  0  0  0  0  0  0  0  0  0
   18.6097  -11.2093   13.2294 C   0  0  0  0  0  0  0  0  0  0  0  0
   19.1177  -11.8567   11.9887 C   0  0  0  0  0  0  0  0  0  0  0  0
   17.5728  -10.2908   13.3213 C   0  0  0  0  0  0  0  0  0  0  0  0
   17.3783  -10.0301   14.6234 N   0  0  0  0  0  0  0  0  0  0  0  0
   16.4977   -9.2019   15.2395 C   0  0  0  0  0  0  0  0  0  0  0  0
   15.6271   -8.1898   18.7980 N   0  0  0  0  0  0  0  0  0  0  0  0
   15.5868   -8.2482   17.3640 C   0  0  0  0  0  0  0  0  0  0  0  0
   14.7519   -7.5597   16.7162 O   0  0  0  0  0  0  0  0  0  0  0  0
   16.3250   -8.7243   19.2412 H   0  0  0  0  0  0  0  0  0  0  0  0
   13.0928   -5.9722   21.3976 C   0  0  0  0  0  0  0  0  0  0  0  0
   14.3226   -6.4776   21.8330 C   0  0  0  0  0  0  0  0  0  0  0  0
   15.1474   -7.2016   20.9710 C   0  0  0  0  0  0  0  0  0  0  0  0
   14.7575   -7.4348   19.6525 C   0  0  0  0  0  0  0  0  0  0  0  0
   13.5286   -6.9347   19.2053 C   0  0  0  0  0  0  0  0  0  0  0  0
   12.6861   -6.2035   20.0598 C   0  0  0  0  0  0  0  0  0  0  0  0
   12.3239   -3.8444   22.4689 C   0  0  0  0  0  0  0  0  0  0  0  0
   12.3288   -5.2582   22.3331 O   0  0  0  0  0  0  0  0  0  0  0  0
   11.4622   -5.7136   19.5896 O   0  0  0  0  0  0  0  0  0  0  0  0
   11.3617   -4.6282   18.6775 C   0  0  0  0  0  0  0  0  0  0  0  0
   16.7964   -9.7409   12.2422 N   0  0  0  0  0  0  0  0  0  0  0  0
   15.3602   -9.5776   12.4242 C   0  0  0  0  0  0  0  0  0  0  0  0
   17.4137   -9.3091   11.0158 C   0  0  0  0  0  0  0  0  0  0  0  0
   18.6659   -9.1906   10.9401 O   0  0  0  0  0  0  0  0  0  0  0  0
   16.5911   -8.9807    9.8086 C   0  0  0  0  0  0  0  0  0  0  0  0
   17.0648   -9.7630    8.5887 C   0  0  0  0  0  0  0  0  0  0  0  0
   17.9489   -8.9408    7.7093 C   0  0  0  0  0  0  0  0  0  0  0  0
   18.6746   -7.8636    8.2342 C   0  0  0  0  0  0  0  0  0  0  0  0
   19.4891   -7.0944    7.3979 C   0  0  0  0  0  0  0  0  0  0  0  0
   19.5770   -7.3976    6.0358 C   0  0  0  0  0  0  0  0  0  0  0  0
   18.8484   -8.4683    5.5093 C   0  0  0  0  0  0  0  0  0  0  0  0
   18.0333   -9.2375    6.3451 C   0  0  0  0  0  0  0  0  0  0  0  0
 21 22  1  0  0  0
 22 15  1  0  0  0
 15 16  2  0  0  0
 16 17  1  0  0  0
 17 18  2  0  0  0
 18 11  1  0  0  0
 18 19  1  0  0  0
 11 12  1  0  0  0
 12 13  2  0  0  0
 12  1  1  0  0  0
  1  2  1  0  0  0
  2  3  2  0  0  0
  3  4  1  0  0  0
  4  5  2  0  0  0
  5  6  1  0  0  0
  6  7  1  0  0  0
  6  8  2  0  0  0
  8 25  1  0  0  0
  8  9  1  0  0  0
 25 26  1  0  0  0
 25 27  1  0  0  0
 27 28  2  0  0  0
 27 29  1  0  0  0
 29 30  1  0  0  0
 30 31  1  0  0  0
 31 32  2  0  0  0
 32 33  1  0  0  0
 33 34  2  0  0  0
 34 35  1  0  0  0
 35 36  2  0  0  0
 36 31  1  0  0  0
  9 10  1  0  0  0
  9  4  1  0  0  0
 10  1  2  0  0  0
 19 20  2  0  0  0
 20 23  1  0  0  0
 20 15  1  0  0  0
 23 24  1  0  0  0
 11 14  1  0  0  0
M  END
>  <minimizedAffinity>
-8.46923

>  <minimizedRMSD>
1.68601

$$$$
CHEMBL3193923 36470867 LN01180281 MolPort-001-662-475 PubChem-135460552 ZINC000036470867


 27 28  0  0  0  0  0  0  0  0999 V2000
   15.7354   -8.2554   17.5197 N   0  0  0  0  0  0  0  0  0  0  0  0
   15.7173   -8.0626   18.7976 C   0  0  0  0  0  0  0  0  0  0  0  0
   14.5644   -7.4389   19.4654 C   0  0  0  0  0  0  0  0  0  0  0  0
   13.2948   -7.4898   18.8760 C   0  0  0  0  0  0  0  0  0  0  0  0
   12.2007   -6.9002   19.5057 C   0  0  0  0  0  0  0  0  0  0  0  0
   10.4793   -6.9764   18.6936 Br  0  0  0  0  0  0  0  0  0  0  0  0
   12.3664   -6.2544   20.7302 C   0  0  0  0  0  0  0  0  0  0  0  0
   13.6253   -6.1873   21.3445 C   0  0  0  0  0  0  0  0  0  0  0  0
   14.7343   -6.7878   20.7011 C   0  0  0  0  0  0  0  0  0  0  0  0
   16.0005   -6.7428   21.2786 O   0  0  0  0  0  0  0  0  0  0  0  0
   16.1252   -6.3119   22.1012 H   0  0  0  0  0  0  0  0  0  0  0  0
   13.7452   -5.5092   22.6093 N   0  0  0  0  0  0  0  0  0  0  0  0
   14.7967   -4.9207   22.9348 O   0  0  0  0  0  0  0  0  0  0  0  0
   12.6854   -5.5020   23.4873 O   0  0  0  0  0  0  0  0  0  0  0  0
   16.8492   -8.8518   16.9166 N   0  0  0  0  0  0  0  0  0  0  0  0
   17.6225   -9.0990   17.4733 H   0  0  0  0  0  0  0  0  0  0  0  0
   17.0000   -9.6398   12.7558 C   0  0  0  0  0  0  0  0  0  0  0  0
   15.9999   -8.8060   13.2763 C   0  0  0  0  0  0  0  0  0  0  0  0
   15.9445   -8.5420   14.6477 C   0  0  0  0  0  0  0  0  0  0  0  0
   16.8897   -9.1098   15.5128 C   0  0  0  0  0  0  0  0  0  0  0  0
   17.8876   -9.9414   14.9963 C   0  0  0  0  0  0  0  0  0  0  0  0
   17.9429  -10.2053   13.6247 C   0  0  0  0  0  0  0  0  0  0  0  0
   17.0633   -9.9217   11.3126 C   0  0  0  0  0  0  0  0  0  0  0  0
   16.0986  -10.4990   10.7385 O   0  0  0  0  0  0  0  0  0  0  0  0
   18.1948   -9.5482   10.5828 O   0  0  0  0  0  0  0  0  0  0  0  0
   17.7485   -9.1321    8.2647 C   0  0  0  0  0  0  0  0  0  0  0  0
   18.1492   -8.5294    9.5949 C   0  0  0  0  0  0  0  0  0  0  0  0
 26 27  1  0  0  0
 27 25  1  0  0  0
 25 23  1  0  0  0
 23 24  2  0  0  0
 23 17  1  0  0  0
 17 18  2  0  0  0
 18 19  1  0  0  0
 19 20  2  0  0  0
 20 15  1  0  0  0
 20 21  1  0  0  0
 15  1  1  0  0  0
  1  2  2  0  0  0
  2  3  1  0  0  0
  3  4  2  0  0  0
  4  5  1  0  0  0
  5  6  1  0  0  0
  5  7  2  0  0  0
  7  8  1  0  0  0
  8 12  1  0  0  0
  8  9  2  0  0  0
 12 13  2  0  0  0
 12 14  1  0  0  0
  9 10  1  0  0  0
  9  3  1  0  0  0
 21 22  2  0  0  0
 22 17  1  0  0  0
 15 16  1  0  0  0
 10 11  1  0  0  0
M  CHG 1  12   1
M  CHG 1  14  -1
M  END
>  <minimizedAffinity>
-8.46868

>  <minimizedRMSD>
1.72967

$$$$
CHEMBL1808731 PubChem-56680101


 26 27  0  0  0  0  0  0  0  0999 V2000
   14.2661   -7.1789   18.7746 C   0  0  0  0  0  0  0  0  0  0  0  0
   13.3265   -6.8152   18.0173 O   0  0  0  0  0  0  0  0  0  0  0  0
   15.4223   -7.8073   18.2213 N   0  0  0  0  0  0  0  0  0  0  0  0
   16.1528   -8.0892   18.8181 H   0  0  0  0  0  0  0  0  0  0  0  0
   13.6720   -6.1613   22.2413 C   0  0  0  0  0  0  0  0  0  0  0  0
   14.5375   -7.2437   22.3328 C   0  0  0  0  0  0  0  0  0  0  0  0
   15.0819   -7.8314   23.5893 C   0  0  0  0  0  0  0  0  0  0  0  0
   14.8483   -7.7296   21.1155 N   0  0  0  0  0  0  0  0  0  0  0  0
   14.1835   -6.9616   20.2294 C   0  0  0  0  0  0  0  0  0  0  0  0
   13.4475   -5.9843   20.8836 C   0  0  0  0  0  0  0  0  0  0  0  0
   12.5848   -4.9482   20.2414 C   0  0  0  0  0  0  0  0  0  0  0  0
   15.4400   -8.4902   20.9142 H   0  0  0  0  0  0  0  0  0  0  0  0
   11.6600   -5.3822   23.6825 C   0  0  0  0  0  0  0  0  0  0  0  0
   13.1158   -5.3735   23.3676 C   0  0  0  0  0  0  0  0  0  0  0  0
   13.8767   -4.6740   24.0865 O   0  0  0  0  0  0  0  0  0  0  0  0
   15.5337   -8.0290   16.8441 N   0  0  0  0  0  0  0  0  0  0  0  0
   16.4842   -8.7742   16.3841 C   0  0  0  0  0  0  0  0  0  0  0  0
   16.6305   -9.0277   14.9470 C   0  0  0  0  0  0  0  0  0  0  0  0
   17.7031   -9.8035   14.4997 C   0  0  0  0  0  0  0  0  0  0  0  0
   17.8654  -10.0601   13.1354 C   0  0  0  0  0  0  0  0  0  0  0  0
   16.9562   -9.5438   12.1973 C   0  0  0  0  0  0  0  0  0  0  0  0
   15.8806   -8.7648   12.6547 C   0  0  0  0  0  0  0  0  0  0  0  0
   15.7182   -8.5082   14.0188 C   0  0  0  0  0  0  0  0  0  0  0  0
   17.1239   -9.8083   10.7917 N   0  0  0  0  0  0  0  0  0  0  0  0
   18.3811   -9.5264   10.1157 C   0  0  0  0  0  0  0  0  0  0  0  0
   16.0423  -10.3675    9.9950 C   0  0  0  0  0  0  0  0  0  0  0  0
 13 14  1  0  0  0
 14 15  2  0  0  0
 14  5  1  0  0  0
  5  6  2  0  0  0
  6  7  1  0  0  0
  6  8  1  0  0  0
  8  9  1  0  0  0
  9  1  1  0  0  0
  9 10  2  0  0  0
  1  2  2  0  0  0
  1  3  1  0  0  0
  3 16  1  0  0  0
 16 17  2  0  0  0
 17 18  1  0  0  0
 18 19  2  0  0  0
 19 20  1  0  0  0
 20 21  2  0  0  0
 21 24  1  0  0  0
 21 22  1  0  0  0
 24 25  1  0  0  0
 24 26  1  0  0  0
 22 23  2  0  0  0
 23 18  1  0  0  0
 10 11  1  0  0  0
 10  5  1  0  0  0
  8 12  1  0  0  0
  3  4  1  0  0  0
M  END
>  <minimizedAffinity>
-8.46506

>  <minimizedRMSD>
1.84321

$$$$
CHEMBL2261386 PubChem-17757703


 33 36  0  0  0  0  0  0  0  0999 V2000
   17.5633   -9.8727   10.8633 C   0  0  0  0  0  0  0  0  0  0  0  0
   18.5389   -9.9489   11.8616 C   0  0  0  0  0  0  0  0  0  0  0  0
   18.1982   -9.7334   13.1999 C   0  0  0  0  0  0  0  0  0  0  0  0
   16.8743   -9.4397   13.5563 C   0  0  0  0  0  0  0  0  0  0  0  0
   15.8958   -9.3661   12.5559 C   0  0  0  0  0  0  0  0  0  0  0  0
   16.2365   -9.5816   11.2180 C   0  0  0  0  0  0  0  0  0  0  0  0
   16.5129   -9.2116   14.9658 C   0  0  0  0  0  0  0  0  0  0  0  0
   16.4917  -10.1528   15.8436 N   0  0  0  0  0  0  0  0  0  0  0  0
   16.1188   -9.6358   17.0552 O   0  0  0  0  0  0  0  0  0  0  0  0
   15.8664   -8.2401   17.0030 C   0  0  0  0  0  0  0  0  0  0  0  0
   16.1314   -7.8867   15.5403 C   0  0  0  0  0  0  0  0  0  0  0  0
   14.4079   -7.9626   17.3363 C   0  0  0  0  0  0  0  0  0  0  0  0
   14.2668   -7.4091   18.7148 C   0  0  0  0  0  0  0  0  0  0  0  0
   15.2359   -7.6991   19.6787 C   0  0  0  0  0  0  0  0  0  0  0  0
   15.1062   -7.1956   20.9754 C   0  0  0  0  0  0  0  0  0  0  0  0
   14.0053   -6.4035   21.3154 C   0  0  0  0  0  0  0  0  0  0  0  0
   13.8906   -5.9090   22.6086 O   0  0  0  0  0  0  0  0  0  0  0  0
   13.0235   -6.1117   20.3570 C   0  0  0  0  0  0  0  0  0  0  0  0
   13.1604   -6.6218   19.0553 C   0  0  0  0  0  0  0  0  0  0  0  0
   14.5488   -6.1063   23.2457 H   0  0  0  0  0  0  0  0  0  0  0  0
   11.9279   -5.3197   20.7165 O   0  0  0  0  0  0  0  0  0  0  0  0
   10.7491   -5.2347   19.9274 C   0  0  0  0  0  0  0  0  0  0  0  0
   17.9378  -10.0940    9.5333 O   0  0  0  0  0  0  0  0  0  0  0  0
   17.0324  -10.0086    8.4350 C   0  0  0  0  0  0  0  0  0  0  0  0
   16.9183   -8.5754    7.9295 C   0  0  0  0  0  0  0  0  0  0  0  0
   20.1466   -7.6886    5.2867 C   0  0  0  0  0  0  0  0  0  0  0  0
   20.1908   -7.2307    6.6074 C   0  0  0  0  0  0  0  0  0  0  0  0
   19.1361   -7.5131    7.4767 C   0  0  0  0  0  0  0  0  0  0  0  0
   18.0426   -8.2468    7.0078 C   0  0  0  0  0  0  0  0  0  0  0  0
   18.0165   -8.6817    5.7182 N   0  0  0  0  0  0  0  0  0  0  0  0
   19.0347   -8.4165    4.8558 C   0  0  0  0  0  0  0  0  0  0  0  0
   21.5712   -5.9006    4.3409 C   0  0  0  0  0  0  0  0  0  0  0  0
   21.2520   -7.3843    4.3338 C   0  0  0  0  0  0  0  0  0  0  0  0
 32 33  1  0  0  0
 33 26  1  0  0  0
 26 27  2  0  0  0
 27 28  1  0  0  0
 28 29  2  0  0  0
 29 25  1  0  0  0
 29 30  1  0  0  0
 25 24  1  0  0  0
 24 23  1  0  0  0
 23  1  1  0  0  0
  1  2  2  0  0  0
  2  3  1  0  0  0
  3  4  2  0  0  0
  4  7  1  0  0  0
  4  5  1  0  0  0
  7  8  2  0  0  0
  8  9  1  0  0  0
  9 10  1  0  0  0
 10 12  1  0  0  0
 10 11  1  0  0  0
 12 13  1  0  0  0
 13 14  2  0  0  0
 14 15  1  0  0  0
 15 16  2  0  0  0
 16 17  1  0  0  0
 16 18  1  0  0  0
 18 21  1  0  0  0
 18 19  2  0  0  0
 21 22  1  0  0  0
 19 13  1  0  0  0
 11  7  1  0  0  0
  5  6  2  0  0  0
  6  1  1  0  0  0
 30 31  2  0  0  0
 31 26  1  0  0  0
 17 20  1  0  0  0
M  END
>  <minimizedAffinity>
-8.46378

>  <minimizedRMSD>
1.46506

$$$$
CHEMBL1386274 PubChem-653186


 36 39  0  0  0  0  0  0  0  0999 V2000
   16.1295   -8.8213   16.4156 C   0  0  0  0  0  0  0  0  0  0  0  0
   17.4594   -8.2773   15.8982 C   0  0  0  0  0  0  0  0  0  0  0  0
   18.0047   -9.0535   14.6789 C   0  0  0  0  0  0  0  0  0  0  0  0
   19.3394   -9.7120   15.0421 C   0  0  0  0  0  0  0  0  0  0  0  0
   19.1402  -10.8245   16.0810 C   0  0  0  0  0  0  0  0  0  0  0  0
   18.0244  -11.7947   15.6681 C   0  0  0  0  0  0  0  0  0  0  0  0
   16.7537  -11.0354   15.2741 C   0  0  0  0  0  0  0  0  0  0  0  0
   16.1516  -10.3477   16.5188 C   0  0  0  0  0  0  0  0  0  0  0  0
   17.0932  -10.1003   14.1866 N   0  0  0  0  0  0  0  0  0  0  0  0
   14.5556   -7.6654   18.0287 C   0  0  0  0  0  0  0  0  0  0  0  0
   13.6455   -7.6340   17.1552 O   0  0  0  0  0  0  0  0  0  0  0  0
   15.8310   -8.2329   17.7120 N   0  0  0  0  0  0  0  0  0  0  0  0
   16.5352   -8.2246   18.3999 H   0  0  0  0  0  0  0  0  0  0  0  0
   12.8399   -5.9791   20.9499 C   0  0  0  0  0  0  0  0  0  0  0  0
   13.0785   -6.5228   19.6791 C   0  0  0  0  0  0  0  0  0  0  0  0
   14.3075   -7.1142   19.3720 C   0  0  0  0  0  0  0  0  0  0  0  0
   15.2910   -7.1959   20.3622 C   0  0  0  0  0  0  0  0  0  0  0  0
   15.0678   -6.6860   21.6443 C   0  0  0  0  0  0  0  0  0  0  0  0
   13.8481   -6.0193   21.9265 C   0  0  0  0  0  0  0  0  0  0  0  0
   10.6524   -5.0398   20.2670 C   0  0  0  0  0  0  0  0  0  0  0  0
   11.6176   -5.3704   21.2563 O   0  0  0  0  0  0  0  0  0  0  0  0
   16.0644   -6.8885   22.6032 O   0  0  0  0  0  0  0  0  0  0  0  0
   15.7844   -7.4020   23.8979 C   0  0  0  0  0  0  0  0  0  0  0  0
   13.6121   -5.3687   23.1424 O   0  0  0  0  0  0  0  0  0  0  0  0
   14.0071   -4.0239   23.3738 C   0  0  0  0  0  0  0  0  0  0  0  0
   15.8997   -9.5249   13.5693 C   0  0  0  0  0  0  0  0  0  0  0  0
   16.0142   -9.5745   12.0847 C   0  0  0  0  0  0  0  0  0  0  0  0
   15.0831  -10.0820   11.4043 O   0  0  0  0  0  0  0  0  0  0  0  0
   17.1818   -9.0297   11.4576 N   0  0  0  0  0  0  0  0  0  0  0  0
   17.8594   -8.6357   12.0533 H   0  0  0  0  0  0  0  0  0  0  0  0
   17.4655   -8.9990   10.0523 C   0  0  0  0  0  0  0  0  0  0  0  0
   18.4771   -8.1505    9.5880 C   0  0  0  0  0  0  0  0  0  0  0  0
   18.7836   -8.0940    8.2250 C   0  0  0  0  0  0  0  0  0  0  0  0
   18.0785   -8.8880    7.3164 C   0  0  0  0  0  0  0  0  0  0  0  0
   17.0672   -9.7384    7.7711 C   0  0  0  0  0  0  0  0  0  0  0  0
   16.7618   -9.7939    9.1340 C   0  0  0  0  0  0  0  0  0  0  0  0
 20 21  1  0  0  0
 21 14  1  0  0  0
 14 15  2  0  0  0
 15 16  1  0  0  0
 16 10  1  0  0  0
 16 17  2  0  0  0
 10 11  2  0  0  0
 10 12  1  0  0  0
  1 12  1  0  0  0
  1  2  1  0  0  0
  3  2  1  0  0  0
  3  4  1  0  0  0
  4  5  1  0  0  0
  5  6  1  0  0  0
  7  6  1  0  0  0
  7  8  1  0  0  0
  7  9  1  0  0  0
  8  1  1  0  0  0
  9 26  1  0  0  0
  9  3  1  0  0  0
 26 27  1  0  0  0
 27 28  2  0  0  0
 27 29  1  0  0  0
 29 31  1  0  0  0
 31 32  2  0  0  0
 32 33  1  0  0  0
 33 34  2  0  0  0
 34 35  1  0  0  0
 35 36  2  0  0  0
 36 31  1  0  0  0
 17 18  1  0  0  0
 18 22  1  0  0  0
 18 19  2  0  0  0
 22 23  1  0  0  0
 19 24  1  0  0  0
 19 14  1  0  0  0
 24 25  1  0  0  0
 12 13  1  0  0  0
 29 30  1  0  0  0
M  END
>  <minimizedAffinity>
-8.45661

>  <minimizedRMSD>
1.19774

$$$$
CHEMBL1499581 13207132 ChemDiv-D134-0577 LN00696895 MCULE-1002584614 MolPort-002-642-912 PubChem-2029272 ZINC000013207132 ZINC13207132


 30 32  0  0  0  0  0  0  0  0999 V2000
   15.6998   -8.2390   17.2272 C   0  0  0  0  0  0  0  0  0  0  0  0
   15.6431   -7.7628   15.9665 N   0  0  0  0  0  0  0  0  0  0  0  0
   16.5425   -8.4347   15.3154 O   0  0  0  0  0  0  0  0  0  0  0  0
   17.1249   -9.2844   16.1233 C   0  0  0  0  0  0  0  0  0  0  0  0
   16.6306   -9.2071   17.3730 N   0  0  0  0  0  0  0  0  0  0  0  0
   12.7854   -6.6908   19.0793 C   0  0  0  0  0  0  0  0  0  0  0  0
   13.6139   -7.1575   18.0463 C   0  0  0  0  0  0  0  0  0  0  0  0
   14.8447   -7.7560   18.3225 C   0  0  0  0  0  0  0  0  0  0  0  0
   15.2553   -7.8907   19.6495 C   0  0  0  0  0  0  0  0  0  0  0  0
   14.4478   -7.4335   20.7009 C   0  0  0  0  0  0  0  0  0  0  0  0
   13.2080   -6.8310   20.4261 C   0  0  0  0  0  0  0  0  0  0  0  0
   11.4185   -4.7118   18.4742 C   0  0  0  0  0  0  0  0  0  0  0  0
   11.5562   -6.0944   18.7748 O   0  0  0  0  0  0  0  0  0  0  0  0
   14.8583   -7.5682   22.0322 O   0  0  0  0  0  0  0  0  0  0  0  0
   15.8608   -6.7477   22.6166 C   0  0  0  0  0  0  0  0  0  0  0  0
   12.4465   -6.3946   21.5235 O   0  0  0  0  0  0  0  0  0  0  0  0
   12.4562   -5.0760   22.0511 C   0  0  0  0  0  0  0  0  0  0  0  0
   18.2219  -10.2042   15.7193 C   0  0  0  0  0  0  0  0  0  0  0  0
   18.6563   -9.8907   14.2989 C   0  0  0  0  0  0  0  0  0  0  0  0
   18.0029  -10.8505   13.3176 C   0  0  0  0  0  0  0  0  0  0  0  0
   17.5856  -10.1458   12.0700 C   0  0  0  0  0  0  0  0  0  0  0  0
   16.3763   -9.8345   11.9009 O   0  0  0  0  0  0  0  0  0  0  0  0
   18.5727   -9.8560   11.0722 N   0  0  0  0  0  0  0  0  0  0  0  0
   19.4921  -10.1530   11.2613 H   0  0  0  0  0  0  0  0  0  0  0  0
   18.3591   -9.1781    9.8267 C   0  0  0  0  0  0  0  0  0  0  0  0
   17.3788   -9.5855    8.9121 C   0  0  0  0  0  0  0  0  0  0  0  0
   17.2057   -8.8909    7.7141 C   0  0  0  0  0  0  0  0  0  0  0  0
   18.0196   -7.7894    7.4430 C   0  0  0  0  0  0  0  0  0  0  0  0
   18.9674   -7.4047    8.3397 N   0  0  0  0  0  0  0  0  0  0  0  0
   19.1507   -8.0698    9.5123 C   0  0  0  0  0  0  0  0  0  0  0  0
 12 13  1  0  0  0
 13  6  1  0  0  0
  6  7  2  0  0  0
  7  8  1  0  0  0
  8  9  2  0  0  0
  8  1  1  0  0  0
  9 10  1  0  0  0
 10 14  1  0  0  0
 10 11  2  0  0  0
 14 15  1  0  0  0
 11 16  1  0  0  0
 11  6  1  0  0  0
 16 17  1  0  0  0
  1  2  2  0  0  0
  2  3  1  0  0  0
  3  4  1  0  0  0
  4 18  1  0  0  0
  4  5  2  0  0  0
 18 19  1  0  0  0
 19 20  1  0  0  0
 20 21  1  0  0  0
 21 22  2  0  0  0
 21 23  1  0  0  0
 23 25  1  0  0  0
 25 26  2  0  0  0
 26 27  1  0  0  0
 27 28  2  0  0  0
 28 29  1  0  0  0
 29 30  2  0  0  0
 30 25  1  0  0  0
  5  1  1  0  0  0
 23 24  1  0  0  0
M  END
>  <minimizedAffinity>
-8.44938

>  <minimizedRMSD>
1.51399

$$$$
CHEMBL3212099 2660168 MolPort-004-272-654 PubChem-6893209 ZINC02660168


 31 33  0  0  0  0  0  0  0  0999 V2000
   14.4056   -7.4685   18.4120 C   0  0  0  0  0  0  0  0  0  0  0  0
   15.3220   -7.6410   19.4556 C   0  0  0  0  0  0  0  0  0  0  0  0
   14.9592   -7.3885   20.7791 C   0  0  0  0  0  0  0  0  0  0  0  0
   13.6684   -6.9573   21.0819 C   0  0  0  0  0  0  0  0  0  0  0  0
   12.7407   -6.7802   20.0493 C   0  0  0  0  0  0  0  0  0  0  0  0
   13.0910   -7.0305   18.7114 C   0  0  0  0  0  0  0  0  0  0  0  0
   13.3115   -6.6986   22.4800 C   0  0  0  0  0  0  0  0  0  0  0  0
   13.5957   -5.5719   23.0527 N   0  0  0  0  0  0  0  0  0  0  0  0
   13.2688   -5.2881   24.3927 N   0  0  0  0  0  0  0  0  0  0  0  0
   13.9486   -5.5488   25.5292 C   0  0  0  0  0  0  0  0  0  0  0  0
   15.2695   -6.2333   25.6207 C   0  0  0  0  0  0  0  0  0  0  0  0
   13.2724   -5.1040   26.6065 N   0  0  0  0  0  0  0  0  0  0  0  0
   12.1491   -4.5527   26.1624 N   0  0  0  0  0  0  0  0  0  0  0  0
   12.1572   -4.6697   24.8208 C   0  0  0  0  0  0  0  0  0  0  0  0
   11.0673   -4.1730   23.9359 C   0  0  0  0  0  0  0  0  0  0  0  0
   12.1489   -6.8479   17.6924 O   0  0  0  0  0  0  0  0  0  0  0  0
   10.8570   -7.4405   17.7168 C   0  0  0  0  0  0  0  0  0  0  0  0
   14.8582   -7.7463   17.1136 O   0  0  0  0  0  0  0  0  0  0  0  0
   15.8702   -8.6900   16.7914 C   0  0  0  0  0  0  0  0  0  0  0  0
   16.0414   -9.6769   14.4799 N   0  0  0  0  0  0  0  0  0  0  0  0
   16.2336   -8.5593   15.3564 C   0  0  0  0  0  0  0  0  0  0  0  0
   16.7354   -7.4810   14.9423 O   0  0  0  0  0  0  0  0  0  0  0  0
   15.6614  -10.4919   14.8807 H   0  0  0  0  0  0  0  0  0  0  0  0
   17.0218   -9.8351   10.3508 C   0  0  0  0  0  0  0  0  0  0  0  0
   15.6755   -9.8582   10.7477 C   0  0  0  0  0  0  0  0  0  0  0  0
   15.3407   -9.8066   12.1034 C   0  0  0  0  0  0  0  0  0  0  0  0
   16.3454   -9.7310   13.0795 C   0  0  0  0  0  0  0  0  0  0  0  0
   17.6857   -9.7085   12.6805 C   0  0  0  0  0  0  0  0  0  0  0  0
   18.0223   -9.7601   11.3246 C   0  0  0  0  0  0  0  0  0  0  0  0
   16.9070   -8.9592    8.0404 C   0  0  0  0  0  0  0  0  0  0  0  0
   17.3906   -9.8853    9.0037 O   0  0  0  0  0  0  0  0  0  0  0  0
 30 31  1  0  0  0
 31 24  1  0  0  0
 24 25  2  0  0  0
 25 26  1  0  0  0
 26 27  2  0  0  0
 27 20  1  0  0  0
 27 28  1  0  0  0
 20 21  1  0  0  0
 21 22  2  0  0  0
 21 19  1  0  0  0
 19 18  1  0  0  0
 18  1  1  0  0  0
  1  2  2  0  0  0
  2  3  1  0  0  0
  3  4  2  0  0  0
  4  7  1  0  0  0
  4  5  1  0  0  0
  7  8  2  0  0  0
  8  9  1  0  0  0
  9 10  1  0  0  0
 10 11  1  0  0  0
 10 12  2  0  0  0
 12 13  1  0  0  0
 13 14  2  0  0  0
 14 15  1  0  0  0
 14  9  1  0  0  0
  5  6  2  0  0  0
  6 16  1  0  0  0
  6  1  1  0  0  0
 16 17  1  0  0  0
 28 29  2  0  0  0
 29 24  1  0  0  0
 20 23  1  0  0  0
M  END
>  <minimizedAffinity>
-8.44827

>  <minimizedRMSD>
1.59551

$$$$
CHEMBL1287926 PubChem-52948523


 36 39  0  0  0  0  0  0  0  0999 V2000
   13.8783   -5.7596   24.3610 C   0  0  0  0  0  0  0  0  0  0  0  0
   14.7965   -6.7974   24.2268 C   0  0  0  0  0  0  0  0  0  0  0  0
   15.0646   -7.3349   22.9782 C   0  0  0  0  0  0  0  0  0  0  0  0
   14.4018   -6.8691   21.8392 C   0  0  0  0  0  0  0  0  0  0  0  0
   13.4219   -5.8414   21.9456 C   0  0  0  0  0  0  0  0  0  0  0  0
   13.1939   -5.2497   23.2304 C   0  0  0  0  0  0  0  0  0  0  0  0
   12.7446   -5.4495   20.8022 N   0  0  0  0  0  0  0  0  0  0  0  0
   13.0964   -5.9573   19.5846 C   0  0  0  0  0  0  0  0  0  0  0  0
   14.0772   -6.9363   19.4340 C   0  0  0  0  0  0  0  0  0  0  0  0
   14.7216   -7.4141   20.5858 C   0  0  0  0  0  0  0  0  0  0  0  0
   15.5931   -8.3239   20.5018 O   0  0  0  0  0  0  0  0  0  0  0  0
   15.4507   -7.2750   25.3138 F   0  0  0  0  0  0  0  0  0  0  0  0
   13.6723   -5.2554   25.6036 F   0  0  0  0  0  0  0  0  0  0  0  0
   14.3781   -7.4318   18.0670 C   0  0  0  0  0  0  0  0  0  0  0  0
   13.5176   -7.3052   17.1529 O   0  0  0  0  0  0  0  0  0  0  0  0
   15.6304   -8.0489   17.7653 N   0  0  0  0  0  0  0  0  0  0  0  0
   16.3047   -8.1479   18.4758 H   0  0  0  0  0  0  0  0  0  0  0  0
   15.9155   -8.5159   16.4754 N   0  0  0  0  0  0  0  0  0  0  0  0
   15.3787   -8.1864   15.7187 H   0  0  0  0  0  0  0  0  0  0  0  0
   16.9634   -9.4571   16.2252 C   0  0  0  0  0  0  0  0  0  0  0  0
   17.2808  -10.6497   17.3014 S   0  0  0  0  0  0  0  0  0  0  0  0
   17.7574   -9.3813   15.0339 N   0  0  0  0  0  0  0  0  0  0  0  0
   18.7143   -9.1864   15.1588 H   0  0  0  0  0  0  0  0  0  0  0  0
   17.3154   -9.5572   13.6807 C   0  0  0  0  0  0  0  0  0  0  0  0
   18.2640   -9.8658   12.7002 C   0  0  0  0  0  0  0  0  0  0  0  0
   17.8745  -10.0451   11.3699 C   0  0  0  0  0  0  0  0  0  0  0  0
   16.5251   -9.9170   11.0042 C   0  0  0  0  0  0  0  0  0  0  0  0
   15.5762   -9.6085   11.9834 C   0  0  0  0  0  0  0  0  0  0  0  0
   15.9679   -9.4296   13.3130 C   0  0  0  0  0  0  0  0  0  0  0  0
   16.1032  -10.0900    9.6832 O   0  0  0  0  0  0  0  0  0  0  0  0
   16.9066   -9.7311    8.5674 C   0  0  0  0  0  0  0  0  0  0  0  0
   11.6661   -4.4469   20.8102 C   0  0  0  0  0  0  0  0  0  0  0  0
   11.0280   -4.2626   19.4343 C   0  0  0  0  0  0  0  0  0  0  0  0
   10.3412   -5.1176   20.4683 C   0  0  0  0  0  0  0  0  0  0  0  0
   12.3169   -4.1578   23.3512 O   0  0  0  0  0  0  0  0  0  0  0  0
   11.0792   -4.1688   24.0494 C   0  0  0  0  0  0  0  0  0  0  0  0
  1  2  2  0  0  0
  2  3  1  0  0  0
  3  4  2  0  0  0
  4  5  1  0  0  0
  5  6  2  0  0  0
  6 35  1  0  0  0
 35 36  1  0  0  0
  5  7  1  0  0  0
  7  8  1  0  0  0
  8  9  2  0  0  0
  9 10  1  0  0  0
 10 11  2  0  0  0
  9 14  1  0  0  0
 14 15  2  0  0  0
 14 16  1  0  0  0
 16 18  1  0  0  0
 18 20  1  0  0  0
 20 21  2  0  0  0
 20 22  1  0  0  0
 22 24  1  0  0  0
 24 25  2  0  0  0
 25 26  1  0  0  0
 26 27  2  0  0  0
 27 28  1  0  0  0
 28 29  2  0  0  0
 27 30  1  0  0  0
 30 31  1  0  0  0
  7 32  1  0  0  0
 32 33  1  0  0  0
 33 34  1  0  0  0
  2 12  1  0  0  0
  1 13  1  0  0  0
  6  1  1  0  0  0
 29 24  1  0  0  0
 34 32  1  0  0  0
 10  4  1  0  0  0
 16 17  1  0  0  0
 18 19  1  0  0  0
 22 23  1  0  0  0
M  END
>  <minimizedAffinity>
-8.44748

>  <minimizedRMSD>
1.52684

$$$$
CHEMBL2130534 450705 CSC046127233 MCULE-2565267051 MolPort-002-191-890 PubChem-880357 ZINC000000450705 ZINC00450705


 26 28  0  0  0  0  0  0  0  0999 V2000
   15.7060   -8.0134   19.0252 N   0  0  0  0  0  0  0  0  0  0  0  0
   15.2730   -7.9786   17.6575 C   0  0  0  0  0  0  0  0  0  0  0  0
   14.2856   -7.2783   17.3074 O   0  0  0  0  0  0  0  0  0  0  0  0
   16.4841   -8.5817   19.2271 H   0  0  0  0  0  0  0  0  0  0  0  0
   14.0490   -5.9162   22.3350 C   0  0  0  0  0  0  0  0  0  0  0  0
   13.2180   -6.2516   21.2369 C   0  0  0  0  0  0  0  0  0  0  0  0
   13.7711   -6.9444   20.1467 C   0  0  0  0  0  0  0  0  0  0  0  0
   15.1234   -7.3065   20.1284 C   0  0  0  0  0  0  0  0  0  0  0  0
   15.9319   -6.9712   21.2142 C   0  0  0  0  0  0  0  0  0  0  0  0
   15.3988   -6.2835   22.3051 C   0  0  0  0  0  0  0  0  0  0  0  0
   13.6230   -3.8156   23.6274 C   0  0  0  0  0  0  0  0  0  0  0  0
   13.6002   -5.2272   23.4718 O   0  0  0  0  0  0  0  0  0  0  0  0
   11.8631   -5.9005   21.2320 O   0  0  0  0  0  0  0  0  0  0  0  0
   11.3728   -4.7141   20.6212 C   0  0  0  0  0  0  0  0  0  0  0  0
   15.9871   -8.7680   16.6493 C   0  0  0  0  0  0  0  0  0  0  0  0
   16.9300   -9.7443   16.9145 C   0  0  0  0  0  0  0  0  0  0  0  0
   17.3293  -10.2138   15.6736 C   0  0  0  0  0  0  0  0  0  0  0  0
   16.5974   -9.4857   14.7500 C   0  0  0  0  0  0  0  0  0  0  0  0
   15.8087   -8.6348   15.3590 O   0  0  0  0  0  0  0  0  0  0  0  0
   16.6747   -9.6272   13.2874 C   0  0  0  0  0  0  0  0  0  0  0  0
   17.9163   -9.7194   12.6411 C   0  0  0  0  0  0  0  0  0  0  0  0
   17.9796   -9.8537   11.2510 C   0  0  0  0  0  0  0  0  0  0  0  0
   16.8024   -9.8964   10.4988 C   0  0  0  0  0  0  0  0  0  0  0  0
   16.8637  -10.0264    9.1520 F   0  0  0  0  0  0  0  0  0  0  0  0
   15.5621   -9.8049   11.1362 C   0  0  0  0  0  0  0  0  0  0  0  0
   15.4986   -9.6707   12.5264 C   0  0  0  0  0  0  0  0  0  0  0  0
 11 12  1  0  0  0
 12  5  1  0  0  0
  5  6  2  0  0  0
  6 13  1  0  0  0
  6  7  1  0  0  0
 13 14  1  0  0  0
  7  8  2  0  0  0
  8  1  1  0  0  0
  8  9  1  0  0  0
  1  2  1  0  0  0
  2  3  2  0  0  0
  2 15  1  0  0  0
 15 16  2  0  0  0
 16 17  1  0  0  0
 17 18  2  0  0  0
 18 19  1  0  0  0
 18 20  1  0  0  0
 19 15  1  0  0  0
 20 21  2  0  0  0
 21 22  1  0  0  0
 22 23  2  0  0  0
 23 24  1  0  0  0
 23 25  1  0  0  0
 25 26  2  0  0  0
 26 20  1  0  0  0
  9 10  2  0  0  0
 10  5  1  0  0  0
  1  4  1  0  0  0
M  END
>  <minimizedAffinity>
-8.44356

>  <minimizedRMSD>
1.77388

$$$$
CHEMBL2337745 PubChem-71717084


 33 37  0  0  0  0  0  0  0  0999 V2000
   15.6665   -8.4094   17.0140 N   0  0  0  0  0  0  0  0  0  0  0  0
   16.7448   -9.4109   16.9999 C   0  0  0  0  0  0  0  0  0  0  0  0
   17.0041   -9.6214   15.5373 C   0  0  0  0  0  0  0  0  0  0  0  0
   17.9257  -10.4642   14.9258 C   0  0  0  0  0  0  0  0  0  0  0  0
   17.9725  -10.4777   13.5224 C   0  0  0  0  0  0  0  0  0  0  0  0
   17.1008   -9.6519   12.7704 C   0  0  0  0  0  0  0  0  0  0  0  0
   16.2114   -8.8399   13.4212 N   0  0  0  0  0  0  0  0  0  0  0  0
   16.1776   -8.8375   14.7765 C   0  0  0  0  0  0  0  0  0  0  0  0
   15.3407   -8.0781   15.6612 C   0  0  0  0  0  0  0  0  0  0  0  0
   14.4589   -7.2503   15.3093 O   0  0  0  0  0  0  0  0  0  0  0  0
   17.1438   -9.6603   11.2925 C   0  0  0  0  0  0  0  0  0  0  0  0
   18.2710   -9.1866   10.6008 C   0  0  0  0  0  0  0  0  0  0  0  0
   18.3027   -9.1982    9.2034 C   0  0  0  0  0  0  0  0  0  0  0  0
   17.2080   -9.6837    8.4840 C   0  0  0  0  0  0  0  0  0  0  0  0
   17.2387   -9.6951    7.1299 F   0  0  0  0  0  0  0  0  0  0  0  0
   16.0818  -10.1574    9.1613 C   0  0  0  0  0  0  0  0  0  0  0  0
   16.0500  -10.1456   10.5587 C   0  0  0  0  0  0  0  0  0  0  0  0
   13.2024   -6.7665   19.3357 C   0  0  0  0  0  0  0  0  0  0  0  0
   13.7943   -7.2924   18.1751 C   0  0  0  0  0  0  0  0  0  0  0  0
   15.0676   -7.8735   18.2068 C   0  0  0  0  0  0  0  0  0  0  0  0
   15.7537   -7.9324   19.4246 C   0  0  0  0  0  0  0  0  0  0  0  0
   15.1814   -7.4113   20.5853 C   0  0  0  0  0  0  0  0  0  0  0  0
   13.9151   -6.8183   20.5581 C   0  0  0  0  0  0  0  0  0  0  0  0
   11.6319   -4.9811   18.6344 C   0  0  0  0  0  0  0  0  0  0  0  0
   11.9178   -6.2135   19.2825 O   0  0  0  0  0  0  0  0  0  0  0  0
   13.4177   -6.3121   21.7692 O   0  0  0  0  0  0  0  0  0  0  0  0
   13.5086   -4.9540   22.1868 C   0  0  0  0  0  0  0  0  0  0  0  0
   14.3928   -4.8360   23.4197 C   0  0  0  0  0  0  0  0  0  0  0  0
   13.8285   -5.6054   24.5165 N   0  0  0  0  0  0  0  0  0  0  0  0
   14.7522   -5.4914   25.6335 C   0  0  0  0  0  0  0  0  0  0  0  0
   13.9302   -5.4187   26.9010 C   0  0  0  0  0  0  0  0  0  0  0  0
   12.5441   -5.0234   26.4558 C   0  0  0  0  0  0  0  0  0  0  0  0
   12.6188   -4.9207   24.9479 C   0  0  0  0  0  0  0  0  0  0  0  0
 24 25  1  0  0  0
 25 18  1  0  0  0
 18 19  2  0  0  0
 19 20  1  0  0  0
 20  1  1  0  0  0
 20 21  2  0  0  0
  1  2  1  0  0  0
  2  3  1  0  0  0
  3  4  2  0  0  0
  4  5  1  0  0  0
  5  6  2  0  0  0
  6 11  1  0  0  0
  6  7  1  0  0  0
 11 12  2  0  0  0
 12 13  1  0  0  0
 13 14  2  0  0  0
 14 15  1  0  0  0
 14 16  1  0  0  0
 16 17  2  0  0  0
 17 11  1  0  0  0
  7  8  2  0  0  0
  8  9  1  0  0  0
  8  3  1  0  0  0
  9 10  2  0  0  0
  9  1  1  0  0  0
 21 22  1  0  0  0
 22 23  2  0  0  0
 23 26  1  0  0  0
 23 18  1  0  0  0
 26 27  1  0  0  0
 27 28  1  0  0  0
 28 29  1  0  0  0
 29 30  1  0  0  0
 30 31  1  0  0  0
 31 32  1  0  0  0
 32 33  1  0  0  0
 33 29  1  0  0  0
M  END
>  <minimizedAffinity>
-8.43894

>  <minimizedRMSD>
1.68914

$$$$
CHEMBL5185081


 30 32  0  0  0  0  0  0  0  0999 V2000
   15.6137   -8.6134   17.2991 N   0  0  0  0  0  0  0  0  0  0  0  0
   15.2178   -8.9645   16.0880 N   0  0  0  0  0  0  0  0  0  0  0  0
   16.2334   -9.6414   15.5307 C   0  0  0  0  0  0  0  0  0  0  0  0
   17.3091   -9.7299   16.3997 C   0  0  0  0  0  0  0  0  0  0  0  0
   16.8683   -9.0550   17.5269 C   0  0  0  0  0  0  0  0  0  0  0  0
   13.2093   -6.4071   20.0198 C   0  0  0  0  0  0  0  0  0  0  0  0
   12.7148   -6.7060   18.7291 C   0  0  0  0  0  0  0  0  0  0  0  0
   13.5248   -7.4359   17.8454 C   0  0  0  0  0  0  0  0  0  0  0  0
   14.8037   -7.8680   18.2208 C   0  0  0  0  0  0  0  0  0  0  0  0
   15.2775   -7.5630   19.5034 C   0  0  0  0  0  0  0  0  0  0  0  0
   14.4850   -6.8381   20.3944 C   0  0  0  0  0  0  0  0  0  0  0  0
   11.3433   -6.2613   18.2807 C   0  0  0  0  0  0  0  0  0  0  0  0
   10.9523   -6.9292   17.1319 F   0  0  0  0  0  0  0  0  0  0  0  0
   10.4198   -6.5227   19.2766 F   0  0  0  0  0  0  0  0  0  0  0  0
   11.3569   -4.9037   18.0165 F   0  0  0  0  0  0  0  0  0  0  0  0
   12.4337   -5.6622   20.9792 C   0  0  0  0  0  0  0  0  0  0  0  0
   11.8108   -5.0640   21.7495 N   0  0  0  0  0  0  0  0  0  0  0  0
   16.1673  -10.1832   14.2065 N   0  0  0  0  0  0  0  0  0  0  0  0
   16.6472   -9.5454   13.0178 C   0  0  0  0  0  0  0  0  0  0  0  0
   17.1852   -8.4068   13.0749 O   0  0  0  0  0  0  0  0  0  0  0  0
   16.5041  -10.2260   11.7647 N   0  0  0  0  0  0  0  0  0  0  0  0
   15.7560  -11.0719   14.1047 H   0  0  0  0  0  0  0  0  0  0  0  0
   16.0752  -11.1118   11.7912 H   0  0  0  0  0  0  0  0  0  0  0  0
   16.9196   -9.7530   10.4759 C   0  0  0  0  0  0  0  0  0  0  0  0
   16.1468  -10.0828    9.3568 C   0  0  0  0  0  0  0  0  0  0  0  0
   16.5191   -9.6405    8.0837 C   0  0  0  0  0  0  0  0  0  0  0  0
   17.6696   -8.8637    7.9227 C   0  0  0  0  0  0  0  0  0  0  0  0
   18.4474   -8.5294    9.0343 C   0  0  0  0  0  0  0  0  0  0  0  0
   18.0739   -8.9724   10.3064 C   0  0  0  0  0  0  0  0  0  0  0  0
   18.0305   -8.4351    6.6896 F   0  0  0  0  0  0  0  0  0  0  0  0
  6  7  2  0  0  0
  7  8  1  0  0  0
  8  9  2  0  0  0
  9 10  1  0  0  0
 10 11  2  0  0  0
  9  1  1  0  0  0
  1  2  1  0  0  0
  2  3  2  0  0  0
  3  4  1  0  0  0
  4  5  2  0  0  0
  3 18  1  0  0  0
 18 19  1  0  0  0
 19 20  2  0  0  0
 19 21  1  0  0  0
 21 24  1  0  0  0
 24 25  2  0  0  0
 25 26  1  0  0  0
 26 27  2  0  0  0
 27 28  1  0  0  0
 28 29  2  0  0  0
 27 30  1  0  0  0
  7 12  1  0  0  0
 12 13  1  0  0  0
 12 14  1  0  0  0
 12 15  1  0  0  0
  6 16  1  0  0  0
 16 17  3  0  0  0
 11  6  1  0  0  0
  5  1  1  0  0  0
 29 24  1  0  0  0
 18 22  1  0  0  0
 21 23  1  0  0  0
M  END
>  <minimizedAffinity>
-8.43877

>  <minimizedRMSD>
1.61781

$$$$
CHEMBL1467632 12140449 MCULE-7518344864 MolPort-003-084-591 PubChem-16194848 ZINC000012140449 ZINC12140449


 32 35  0  0  0  0  0  0  0  0999 V2000
   15.1942   -7.9259   18.1719 C   0  0  0  0  0  0  0  0  0  0  0  0
   16.1627   -8.9309   18.2790 C   0  0  0  0  0  0  0  0  0  0  0  0
   16.7719   -9.4218   17.1274 C   0  0  0  0  0  0  0  0  0  0  0  0
   16.4000   -8.9005   15.8906 C   0  0  0  0  0  0  0  0  0  0  0  0
   15.4578   -7.9238   15.8311 N   0  0  0  0  0  0  0  0  0  0  0  0
   14.8739   -7.4531   16.9349 N   0  0  0  0  0  0  0  0  0  0  0  0
   13.2352   -6.3290   21.6545 C   0  0  0  0  0  0  0  0  0  0  0  0
   12.7002   -6.0892   20.3643 C   0  0  0  0  0  0  0  0  0  0  0  0
   13.3567   -6.6203   19.2410 C   0  0  0  0  0  0  0  0  0  0  0  0
   14.5256   -7.3794   19.3721 C   0  0  0  0  0  0  0  0  0  0  0  0
   15.0434   -7.6086   20.6524 C   0  0  0  0  0  0  0  0  0  0  0  0
   14.4035   -7.0882   21.7775 C   0  0  0  0  0  0  0  0  0  0  0  0
   12.9514   -4.5882   23.4303 C   0  0  0  0  0  0  0  0  0  0  0  0
   12.6602   -5.8467   22.8400 O   0  0  0  0  0  0  0  0  0  0  0  0
   11.5324   -5.3346   20.2039 O   0  0  0  0  0  0  0  0  0  0  0  0
   11.2538   -4.5783   19.0329 C   0  0  0  0  0  0  0  0  0  0  0  0
   17.1666   -9.5005   14.3925 S   0  0  0  0  0  0  0  0  0  0  0  0
   15.8558   -8.8006   13.3460 C   0  0  0  0  0  0  0  0  0  0  0  0
   15.8204   -9.5055   12.0366 C   0  0  0  0  0  0  0  0  0  0  0  0
   14.8271  -10.2233   11.7452 O   0  0  0  0  0  0  0  0  0  0  0  0
   16.9171   -9.3753   11.1285 N   0  0  0  0  0  0  0  0  0  0  0  0
   17.7094   -8.8667   11.4164 H   0  0  0  0  0  0  0  0  0  0  0  0
   16.9122   -9.9629    9.7959 C   0  0  0  0  0  0  0  0  0  0  0  0
   17.7452   -9.1464    8.8670 C   0  0  0  0  0  0  0  0  0  0  0  0
   18.5894   -8.1352    9.3799 C   0  0  0  0  0  0  0  0  0  0  0  0
   19.3657   -7.3447    8.5131 C   0  0  0  0  0  0  0  0  0  0  0  0
   19.2641   -7.5994    7.1478 C   0  0  0  0  0  0  0  0  0  0  0  0
   19.9139   -6.9685    6.1062 O   0  0  0  0  0  0  0  0  0  0  0  0
   19.4863   -7.5797    4.8804 C   0  0  0  0  0  0  0  0  0  0  0  0
   18.5531   -8.5948    5.2767 O   0  0  0  0  0  0  0  0  0  0  0  0
   18.4524   -8.5689    6.6533 C   0  0  0  0  0  0  0  0  0  0  0  0
   17.6687   -9.3703    7.4794 C   0  0  0  0  0  0  0  0  0  0  0  0
 13 14  1  0  0  0
 14  7  1  0  0  0
  7  8  2  0  0  0
  8 15  1  0  0  0
  8  9  1  0  0  0
 15 16  1  0  0  0
  9 10  2  0  0  0
 10 11  1  0  0  0
 10  1  1  0  0  0
 11 12  2  0  0  0
 12  7  1  0  0  0
  1  2  2  0  0  0
  2  3  1  0  0  0
  3  4  2  0  0  0
  4 17  1  0  0  0
  4  5  1  0  0  0
 17 18  1  0  0  0
 18 19  1  0  0  0
 19 20  2  0  0  0
 19 21  1  0  0  0
 21 23  1  0  0  0
 23 24  1  0  0  0
 24 25  2  0  0  0
 25 26  1  0  0  0
 26 27  2  0  0  0
 27 28  1  0  0  0
 28 29  1  0  0  0
 29 30  1  0  0  0
 30 31  1  0  0  0
 31 32  2  0  0  0
 31 27  1  0  0  0
 32 24  1  0  0  0
  5  6  2  0  0  0
  6  1  1  0  0  0
 21 22  1  0  0  0
M  END
>  <minimizedAffinity>
-8.43265

>  <minimizedRMSD>
1.42621

$$$$
CHEMBL3187346 PubChem-60202246


 37 40  0  0  0  0  0  0  0  0999 V2000
   17.1240   -9.9354   16.4895 C   0  0  0  0  0  0  0  0  0  0  0  0
   16.2786  -10.9345   15.6930 C   0  0  0  0  0  0  0  0  0  0  0  0
   17.0241  -11.4672   14.4524 C   0  0  0  0  0  0  0  0  0  0  0  0
   18.1855  -12.4028   14.8219 C   0  0  0  0  0  0  0  0  0  0  0  0
   19.3394  -11.6417   15.4871 C   0  0  0  0  0  0  0  0  0  0  0  0
   19.7075  -10.3637   14.7216 C   0  0  0  0  0  0  0  0  0  0  0  0
   18.4639   -9.5391   14.3593 C   0  0  0  0  0  0  0  0  0  0  0  0
   17.7993   -8.8949   15.5914 C   0  0  0  0  0  0  0  0  0  0  0  0
   17.5274  -10.3821   13.5961 N   0  0  0  0  0  0  0  0  0  0  0  0
   15.4435   -8.1819   17.2962 C   0  0  0  0  0  0  0  0  0  0  0  0
   15.2877   -7.7275   16.1297 O   0  0  0  0  0  0  0  0  0  0  0  0
   16.3274   -9.2879   17.5264 N   0  0  0  0  0  0  0  0  0  0  0  0
   16.4016   -9.6332   18.4454 H   0  0  0  0  0  0  0  0  0  0  0  0
   12.7813   -6.3868   19.2983 C   0  0  0  0  0  0  0  0  0  0  0  0
   13.4680   -6.9875   18.2324 C   0  0  0  0  0  0  0  0  0  0  0  0
   14.7219   -7.5701   18.4263 C   0  0  0  0  0  0  0  0  0  0  0  0
   15.2906   -7.5501   19.7011 C   0  0  0  0  0  0  0  0  0  0  0  0
   14.6293   -6.9504   20.7852 C   0  0  0  0  0  0  0  0  0  0  0  0
   13.3581   -6.3552   20.5793 C   0  0  0  0  0  0  0  0  0  0  0  0
   11.3480   -4.5293   18.5018 C   0  0  0  0  0  0  0  0  0  0  0  0
   11.5234   -5.8048   19.1038 O   0  0  0  0  0  0  0  0  0  0  0  0
   15.2295   -6.9379   22.0498 O   0  0  0  0  0  0  0  0  0  0  0  0
   16.5610   -6.4918   22.2702 C   0  0  0  0  0  0  0  0  0  0  0  0
   12.6298   -5.7166   21.5973 O   0  0  0  0  0  0  0  0  0  0  0  0
   12.8281   -4.3741   22.0224 C   0  0  0  0  0  0  0  0  0  0  0  0
   16.4123   -9.5955   13.0651 C   0  0  0  0  0  0  0  0  0  0  0  0
   16.5147   -9.4692   11.5823 C   0  0  0  0  0  0  0  0  0  0  0  0
   15.4995   -9.7025   10.8757 O   0  0  0  0  0  0  0  0  0  0  0  0
   17.7610   -9.0800   10.9913 N   0  0  0  0  0  0  0  0  0  0  0  0
   18.5265   -8.9786   11.6020 H   0  0  0  0  0  0  0  0  0  0  0  0
   18.0082   -8.8230    9.6020 C   0  0  0  0  0  0  0  0  0  0  0  0
   17.3618   -9.6143    8.6462 C   0  0  0  0  0  0  0  0  0  0  0  0
   17.5860   -9.4020    7.2822 C   0  0  0  0  0  0  0  0  0  0  0  0
   18.4591   -8.3930    6.8670 C   0  0  0  0  0  0  0  0  0  0  0  0
   18.7054   -8.1741    5.4173 C   0  0  0  0  0  0  0  0  0  0  0  0
   19.1081   -7.5972    7.8152 C   0  0  0  0  0  0  0  0  0  0  0  0
   18.8836   -7.8114    9.1784 C   0  0  0  0  0  0  0  0  0  0  0  0
 20 21  1  0  0  0
 21 14  1  0  0  0
 14 15  2  0  0  0
 15 16  1  0  0  0
 16 10  1  0  0  0
 16 17  2  0  0  0
 10 11  2  0  0  0
 10 12  1  0  0  0
  1 12  1  0  0  0
  1  2  1  0  0  0
  3  2  1  0  0  0
  3  4  1  0  0  0
  4  5  1  0  0  0
  5  6  1  0  0  0
  7  6  1  0  0  0
  7  8  1  0  0  0
  7  9  1  0  0  0
  8  1  1  0  0  0
  9 26  1  0  0  0
  9  3  1  0  0  0
 26 27  1  0  0  0
 27 28  2  0  0  0
 27 29  1  0  0  0
 29 31  1  0  0  0
 31 32  2  0  0  0
 32 33  1  0  0  0
 33 34  2  0  0  0
 34 35  1  0  0  0
 34 36  1  0  0  0
 36 37  2  0  0  0
 37 31  1  0  0  0
 17 18  1  0  0  0
 18 22  1  0  0  0
 18 19  2  0  0  0
 22 23  1  0  0  0
 19 24  1  0  0  0
 19 14  1  0  0  0
 24 25  1  0  0  0
 12 13  1  0  0  0
 29 30  1  0  0  0
M  END
>  <minimizedAffinity>
-8.43139

>  <minimizedRMSD>
1.21815

$$$$
CHEMBL1511763 12710708 MCULE-8498611911 MolPort-000-023-633 PubChem-3173108 ZINC000012710708 ZINC12710708


 37 39  0  0  0  0  0  0  0  0999 V2000
   14.8104   -7.4116   18.9319 C   0  0  0  0  0  0  0  0  0  0  0  0
   13.6012   -7.6063   19.6150 C   0  0  0  0  0  0  0  0  0  0  0  0
   13.5661   -7.4728   21.0114 C   0  0  0  0  0  0  0  0  0  0  0  0
   14.7207   -7.1497   21.7371 C   0  0  0  0  0  0  0  0  0  0  0  0
   15.9306   -6.9581   21.0542 C   0  0  0  0  0  0  0  0  0  0  0  0
   15.9654   -7.0909   19.6579 C   0  0  0  0  0  0  0  0  0  0  0  0
   15.6910   -8.4249   16.7453 C   0  0  0  0  0  0  0  0  0  0  0  0
   16.5745   -9.1273   17.3068 O   0  0  0  0  0  0  0  0  0  0  0  0
   14.8397   -7.5561   17.5033 N   0  0  0  0  0  0  0  0  0  0  0  0
   14.2090   -7.0002   16.9910 H   0  0  0  0  0  0  0  0  0  0  0  0
   15.5430   -8.4724   15.2647 C   0  0  0  0  0  0  0  0  0  0  0  0
   16.4156   -9.5714   14.6854 C   0  0  0  0  0  0  0  0  0  0  0  0
   17.2596   -9.3474   12.3199 N   0  0  0  0  0  0  0  0  0  0  0  0
   16.1914   -9.6750   13.2186 C   0  0  0  0  0  0  0  0  0  0  0  0
   15.0579  -10.0187   12.7898 O   0  0  0  0  0  0  0  0  0  0  0  0
   18.1038   -9.0476   12.7282 H   0  0  0  0  0  0  0  0  0  0  0  0
   18.1268   -8.6598    8.7529 C   0  0  0  0  0  0  0  0  0  0  0  0
   17.2214   -9.4897    8.0841 C   0  0  0  0  0  0  0  0  0  0  0  0
   16.3218  -10.2786    8.8059 C   0  0  0  0  0  0  0  0  0  0  0  0
   16.3238  -10.2402   10.2024 C   0  0  0  0  0  0  0  0  0  0  0  0
   17.2249   -9.4114   10.8878 C   0  0  0  0  0  0  0  0  0  0  0  0
   18.1232   -8.6262   10.1571 C   0  0  0  0  0  0  0  0  0  0  0  0
   18.8984   -7.7272    6.5958 C   0  0  0  0  0  0  0  0  0  0  0  0
   19.0152   -7.8837    8.0034 O   0  0  0  0  0  0  0  0  0  0  0  0
   14.6941   -7.0117   23.1663 N   0  0  0  0  0  0  0  0  0  0  0  0
   14.6885   -5.7872   23.9146 C   0  0  0  0  0  0  0  0  0  0  0  0
   14.7147   -4.6707   23.3304 O   0  0  0  0  0  0  0  0  0  0  0  0
   14.6778   -7.8461   23.6884 H   0  0  0  0  0  0  0  0  0  0  0  0
   14.6544   -5.8364   25.3805 C   0  0  0  0  0  0  0  0  0  0  0  0
   15.6221   -6.4058   26.1934 C   0  0  0  0  0  0  0  0  0  0  0  0
   15.3153   -6.2999   27.5580 C   0  0  0  0  0  0  0  0  0  0  0  0
   14.1133   -5.6501   27.8300 C   0  0  0  0  0  0  0  0  0  0  0  0
   13.4389   -5.2116   26.3525 S   0  0  0  0  0  0  0  0  0  0  0  0
   12.4479   -7.9306   18.8912 O   0  0  0  0  0  0  0  0  0  0  0  0
   11.3967   -7.0018   18.6613 C   0  0  0  0  0  0  0  0  0  0  0  0
   17.0848   -6.6378   21.7786 O   0  0  0  0  0  0  0  0  0  0  0  0
   18.2914   -6.2159   21.1571 C   0  0  0  0  0  0  0  0  0  0  0  0
 23 24  1  0  0  0
 24 17  1  0  0  0
 17 18  2  0  0  0
 18 19  1  0  0  0
 19 20  2  0  0  0
 20 21  1  0  0  0
 21 13  1  0  0  0
 21 22  2  0  0  0
 13 14  1  0  0  0
 14 15  2  0  0  0
 14 12  1  0  0  0
 12 11  1  0  0  0
 11  7  1  0  0  0
  7  8  2  0  0  0
  7  9  1  0  0  0
  9  1  1  0  0  0
  1  2  2  0  0  0
  2 34  1  0  0  0
  2  3  1  0  0  0
 34 35  1  0  0  0
  3  4  2  0  0  0
  4 25  1  0  0  0
  4  5  1  0  0  0
 25 26  1  0  0  0
 26 27  2  0  0  0
 26 29  1  0  0  0
 29 30  2  0  0  0
 30 31  1  0  0  0
 31 32  2  0  0  0
 32 33  1  0  0  0
 33 29  1  0  0  0
  5 36  1  0  0  0
  5  6  2  0  0  0
 36 37  1  0  0  0
  6  1  1  0  0  0
 22 17  1  0  0  0
 13 16  1  0  0  0
  9 10  1  0  0  0
 25 28  1  0  0  0
M  END
>  <minimizedAffinity>
-8.43120

>  <minimizedRMSD>
1.75892

$$$$
CHEMBL5193077


 28 30  0  0  0  0  0  0  0  0999 V2000
   16.9029   -9.5623   15.9765 C   0  0  0  0  0  0  0  0  0  0  0  0
   16.1366   -8.7036   15.2061 C   0  0  0  0  0  0  0  0  0  0  0  0
   15.3278   -7.9631   15.9828 N   0  0  0  0  0  0  0  0  0  0  0  0
   15.5566   -8.3256   17.2329 N   0  0  0  0  0  0  0  0  0  0  0  0
   16.5003   -9.2884   17.2736 C   0  0  0  0  0  0  0  0  0  0  0  0
   14.8823   -7.7590   18.3666 C   0  0  0  0  0  0  0  0  0  0  0  0
   13.7082   -7.0153   18.1889 C   0  0  0  0  0  0  0  0  0  0  0  0
   13.0316   -6.4516   19.2817 C   0  0  0  0  0  0  0  0  0  0  0  0
   13.5539   -6.6446   20.5815 C   0  0  0  0  0  0  0  0  0  0  0  0
   14.7253   -7.3864   20.7589 C   0  0  0  0  0  0  0  0  0  0  0  0
   15.3856   -7.9400   19.6613 C   0  0  0  0  0  0  0  0  0  0  0  0
   11.7696   -5.6578   19.0419 C   0  0  0  0  0  0  0  0  0  0  0  0
   10.7310   -6.2007   19.7765 F   0  0  0  0  0  0  0  0  0  0  0  0
   11.9645   -4.3445   19.4294 F   0  0  0  0  0  0  0  0  0  0  0  0
   11.4165   -5.6736   17.7026 F   0  0  0  0  0  0  0  0  0  0  0  0
   12.9128   -6.0955   21.7495 C   0  0  0  0  0  0  0  0  0  0  0  0
   12.3979   -5.6545   22.6875 N   0  0  0  0  0  0  0  0  0  0  0  0
   16.1834   -8.5988   13.7437 C   0  0  0  0  0  0  0  0  0  0  0  0
   15.7341   -7.5639   13.1819 O   0  0  0  0  0  0  0  0  0  0  0  0
   16.7393   -9.6741   12.9732 N   0  0  0  0  0  0  0  0  0  0  0  0
   17.0715  -10.4517   13.4775 H   0  0  0  0  0  0  0  0  0  0  0  0
   16.8617   -9.7349   11.5456 C   0  0  0  0  0  0  0  0  0  0  0  0
   15.8093  -10.1739   10.7271 C   0  0  0  0  0  0  0  0  0  0  0  0
   15.9656  -10.2197    9.3387 C   0  0  0  0  0  0  0  0  0  0  0  0
   17.1748   -9.8269    8.7591 C   0  0  0  0  0  0  0  0  0  0  0  0
   18.2267   -9.3888    9.5680 C   0  0  0  0  0  0  0  0  0  0  0  0
   18.0691   -9.3435   10.9565 C   0  0  0  0  0  0  0  0  0  0  0  0
   17.3272   -9.8708    7.4140 F   0  0  0  0  0  0  0  0  0  0  0  0
  1  2  1  0  0  0
  2 18  1  0  0  0
 18 19  2  0  0  0
 18 20  1  0  0  0
 20 22  1  0  0  0
 22 23  2  0  0  0
 23 24  1  0  0  0
 24 25  2  0  0  0
 25 26  1  0  0  0
 26 27  2  0  0  0
 25 28  1  0  0  0
  2  3  2  0  0  0
  3  4  1  0  0  0
  4  5  1  0  0  0
  4  6  1  0  0  0
  6  7  2  0  0  0
  7  8  1  0  0  0
  8  9  2  0  0  0
  9 10  1  0  0  0
 10 11  2  0  0  0
  9 16  1  0  0  0
 16 17  3  0  0  0
  8 12  1  0  0  0
 12 13  1  0  0  0
 12 14  1  0  0  0
 12 15  1  0  0  0
  5  1  2  0  0  0
 11  6  1  0  0  0
 27 22  1  0  0  0
 20 21  1  0  0  0
M  END
>  <minimizedAffinity>
-8.41938

>  <minimizedRMSD>
1.29122

$$$$
CHEMBL3696476 PubChem-59568702


 36 40  0  0  0  0  0  0  0  0999 V2000
   16.5390   -9.7944   14.4837 N   0  0  0  0  0  0  0  0  0  0  0  0
   16.7106   -8.3423   14.4984 C   0  0  0  0  0  0  0  0  0  0  0  0
   16.0747   -7.7256   15.7540 C   0  0  0  0  0  0  0  0  0  0  0  0
   15.6450   -8.7538   16.7074 N   0  0  0  0  0  0  0  0  0  0  0  0
   16.7599   -9.6664   16.9572 C   0  0  0  0  0  0  0  0  0  0  0  0
   17.2032  -10.3632   15.6610 C   0  0  0  0  0  0  0  0  0  0  0  0
   17.2463  -10.2884   13.3142 C   0  0  0  0  0  0  0  0  0  0  0  0
   16.2716  -10.5099   12.1670 C   0  0  0  0  0  0  0  0  0  0  0  0
   15.0165   -9.9934   12.4935 O   0  0  0  0  0  0  0  0  0  0  0  0
   15.0896   -9.0382   12.6457 H   0  0  0  0  0  0  0  0  0  0  0  0
   18.9680   -9.2936   12.0607 C   0  0  0  0  0  0  0  0  0  0  0  0
   18.0724   -9.2954   10.8650 C   0  0  0  0  0  0  0  0  0  0  0  0
   18.4993   -8.7142    9.6663 C   0  0  0  0  0  0  0  0  0  0  0  0
   19.8082   -8.0412    9.3579 C   0  0  0  0  0  0  0  0  0  0  0  0
   19.6607   -7.6546    7.9868 O   0  0  0  0  0  0  0  0  0  0  0  0
   18.4162   -8.0434    7.5116 C   0  0  0  0  0  0  0  0  0  0  0  0
   18.0079   -7.8385    6.3390 O   0  0  0  0  0  0  0  0  0  0  0  0
   17.6873   -8.7070    8.5580 C   0  0  0  0  0  0  0  0  0  0  0  0
   16.4145   -9.2692    8.5608 C   0  0  0  0  0  0  0  0  0  0  0  0
   15.9651   -9.8585    9.7518 C   0  0  0  0  0  0  0  0  0  0  0  0
   16.7823   -9.8778   10.9066 C   0  0  0  0  0  0  0  0  0  0  0  0
   15.3662   -8.0788   17.9638 C   0  0  0  0  0  0  0  0  0  0  0  0
   13.9692   -7.4757   17.9360 C   0  0  0  0  0  0  0  0  0  0  0  0
   13.0390   -8.4345   17.5300 O   0  0  0  0  0  0  0  0  0  0  0  0
   13.0364   -9.1704   18.1619 H   0  0  0  0  0  0  0  0  0  0  0  0
   13.5973   -6.9291   19.2821 C   0  0  0  0  0  0  0  0  0  0  0  0
   14.3297   -7.3240   20.4263 C   0  0  0  0  0  0  0  0  0  0  0  0
   14.0047   -6.8273   21.6975 C   0  0  0  0  0  0  0  0  0  0  0  0
   12.9405   -5.9368   21.7900 C   0  0  0  0  0  0  0  0  0  0  0  0
   12.3761   -5.2662   22.9295 C   0  0  0  0  0  0  0  0  0  0  0  0
   12.7685   -5.3706   24.1206 O   0  0  0  0  0  0  0  0  0  0  0  0
   11.3158   -4.4702   22.5218 O   0  0  0  0  0  0  0  0  0  0  0  0
   11.1313   -4.5808   21.1056 C   0  0  0  0  0  0  0  0  0  0  0  0
   12.2120   -5.5414   20.6941 C   0  0  0  0  0  0  0  0  0  0  0  0
   12.5171   -6.0238   19.4169 C   0  0  0  0  0  0  0  0  0  0  0  0
   11.7135   -5.5840   18.2362 C   0  0  0  0  0  0  0  0  0  0  0  0
 11 12  1  0  0  0
 12 13  2  0  0  0
 13 14  1  0  0  0
 14 15  1  0  0  0
 15 16  1  0  0  0
 16 17  2  0  0  0
 16 18  1  0  0  0
 18 19  2  0  0  0
 19 20  1  0  0  0
 20 21  2  0  0  0
 21  8  1  0  0  0
  8  9  1  0  0  0
  8  7  1  0  0  0
  7  1  1  0  0  0
  1  2  1  0  0  0
  2  3  1  0  0  0
  3  4  1  0  0  0
  4 22  1  0  0  0
 22 23  1  0  0  0
 23 24  1  0  0  0
 23 26  1  0  0  0
 26 27  2  0  0  0
 27 28  1  0  0  0
 28 29  2  0  0  0
 29 30  1  0  0  0
 30 31  2  0  0  0
 30 32  1  0  0  0
 32 33  1  0  0  0
 33 34  1  0  0  0
 34 35  2  0  0  0
 35 36  1  0  0  0
  4  5  1  0  0  0
  5  6  1  0  0  0
 21 12  1  0  0  0
  6  1  1  0  0  0
 18 13  1  0  0  0
 35 26  1  0  0  0
 34 29  1  0  0  0
  9 10  1  0  0  0
 24 25  1  0  0  0
M  END
>  <minimizedAffinity>
-8.40638

>  <minimizedRMSD>
1.84974

$$$$
CHEMBL5171887


 28 30  0  0  0  0  0  0  0  0999 V2000
   15.6040   -8.3765   17.0828 N   0  0  0  0  0  0  0  0  0  0  0  0
   15.3502   -8.0110   15.8385 N   0  0  0  0  0  0  0  0  0  0  0  0
   16.1561   -8.7368   15.0452 C   0  0  0  0  0  0  0  0  0  0  0  0
   16.9464   -9.5887   15.7987 C   0  0  0  0  0  0  0  0  0  0  0  0
   16.5611   -9.3265   17.1035 C   0  0  0  0  0  0  0  0  0  0  0  0
   13.0465   -6.6158   19.1911 C   0  0  0  0  0  0  0  0  0  0  0  0
   13.7137   -7.1637   18.0845 C   0  0  0  0  0  0  0  0  0  0  0  0
   14.9406   -7.8243   18.2302 C   0  0  0  0  0  0  0  0  0  0  0  0
   15.5073   -7.9372   19.5062 C   0  0  0  0  0  0  0  0  0  0  0  0
   14.8573   -7.3983   20.6171 C   0  0  0  0  0  0  0  0  0  0  0  0
   13.6331   -6.7392   20.4719 C   0  0  0  0  0  0  0  0  0  0  0  0
   10.7384   -6.5552   19.7103 F   0  0  0  0  0  0  0  0  0  0  0  0
   11.7261   -5.9126   18.9860 C   0  0  0  0  0  0  0  0  0  0  0  0
   11.8252   -4.6011   19.4141 F   0  0  0  0  0  0  0  0  0  0  0  0
   11.3623   -5.9129   17.6494 F   0  0  0  0  0  0  0  0  0  0  0  0
   13.0054   -6.2016   21.6523 C   0  0  0  0  0  0  0  0  0  0  0  0
   12.5012   -5.7699   22.6004 N   0  0  0  0  0  0  0  0  0  0  0  0
   16.1778   -8.6243   13.5827 C   0  0  0  0  0  0  0  0  0  0  0  0
   15.7202   -7.5863   13.0341 O   0  0  0  0  0  0  0  0  0  0  0  0
   16.7190   -9.6962   12.7971 N   0  0  0  0  0  0  0  0  0  0  0  0
   17.0591  -10.4771   13.2909 H   0  0  0  0  0  0  0  0  0  0  0  0
   16.8157   -9.7478   11.3673 C   0  0  0  0  0  0  0  0  0  0  0  0
   15.7694  -10.2204   10.5631 C   0  0  0  0  0  0  0  0  0  0  0  0
   15.9042  -10.2518    9.2099 N   0  0  0  0  0  0  0  0  0  0  0  0
   17.0437   -9.8315    8.5983 C   0  0  0  0  0  0  0  0  0  0  0  0
   18.1111   -9.3532    9.3606 C   0  0  0  0  0  0  0  0  0  0  0  0
   17.9913   -9.3133   10.7507 C   0  0  0  0  0  0  0  0  0  0  0  0
   17.1434   -9.8769    7.2483 F   0  0  0  0  0  0  0  0  0  0  0  0
 12 13  1  0  0  0
 13 14  1  0  0  0
 13 15  1  0  0  0
 13  6  1  0  0  0
  6  7  2  0  0  0
  7  8  1  0  0  0
  8  9  2  0  0  0
  9 10  1  0  0  0
 10 11  2  0  0  0
 11 16  1  0  0  0
 16 17  3  0  0  0
  8  1  1  0  0  0
  1  2  1  0  0  0
  2  3  2  0  0  0
  3  4  1  0  0  0
  4  5  2  0  0  0
  3 18  1  0  0  0
 18 19  2  0  0  0
 18 20  1  0  0  0
 20 22  1  0  0  0
 22 23  2  0  0  0
 23 24  1  0  0  0
 24 25  2  0  0  0
 25 26  1  0  0  0
 26 27  2  0  0  0
 25 28  1  0  0  0
 11  6  1  0  0  0
  5  1  1  0  0  0
 27 22  1  0  0  0
 20 21  1  0  0  0
M  END
>  <minimizedAffinity>
-8.39058

>  <minimizedRMSD>
1.38843

$$$$
CHEMBL4530085 PubChem-135335077


 30 33  0  0  0  0  0  0  0  0999 V2000
   15.5133   -8.2286   17.4582 C   0  0  0  0  0  0  0  0  0  0  0  0
   16.3772   -9.3232   17.4649 C   0  0  0  0  0  0  0  0  0  0  0  0
   16.6609   -9.5676   16.1785 N   0  0  0  0  0  0  0  0  0  0  0  0
   17.4551  -10.5267   15.6463 C   0  0  0  0  0  0  0  0  0  0  0  0
   17.5884  -10.5711   14.2514 C   0  0  0  0  0  0  0  0  0  0  0  0
   16.9064   -9.6330   13.4422 C   0  0  0  0  0  0  0  0  0  0  0  0
   16.0912   -8.6569   14.0566 C   0  0  0  0  0  0  0  0  0  0  0  0
   15.9983   -8.6630   15.4453 C   0  0  0  0  0  0  0  0  0  0  0  0
   15.2730   -7.8111   16.1894 N   0  0  0  0  0  0  0  0  0  0  0  0
   13.5937   -7.1473   18.7152 C   0  0  0  0  0  0  0  0  0  0  0  0
   13.1064   -6.5609   19.8947 C   0  0  0  0  0  0  0  0  0  0  0  0
   13.9229   -6.4171   21.0252 C   0  0  0  0  0  0  0  0  0  0  0  0
   15.2471   -6.8678   20.9721 C   0  0  0  0  0  0  0  0  0  0  0  0
   15.7407   -7.4519   19.8048 C   0  0  0  0  0  0  0  0  0  0  0  0
   14.9317   -7.6003   18.6684 C   0  0  0  0  0  0  0  0  0  0  0  0
   16.3087   -6.7107   22.3600 Cl  0  0  0  0  0  0  0  0  0  0  0  0
   11.3462   -7.3639   17.6908 C   0  0  0  0  0  0  0  0  0  0  0  0
   12.7620   -7.2818   17.5967 O   0  0  0  0  0  0  0  0  0  0  0  0
   13.4380   -5.8329   22.2006 O   0  0  0  0  0  0  0  0  0  0  0  0
   12.0747   -5.4711   22.3743 C   0  0  0  0  0  0  0  0  0  0  0  0
   17.0471   -9.6854   11.9666 C   0  0  0  0  0  0  0  0  0  0  0  0
   15.9863   -9.9826   11.1989 C   0  0  0  0  0  0  0  0  0  0  0  0
   16.0881  -10.0747    9.7029 C   0  0  0  0  0  0  0  0  0  0  0  0
   17.1617   -9.2146    9.2006 N   0  0  0  0  0  0  0  0  0  0  0  0
   18.4166   -9.6153    9.8371 C   0  0  0  0  0  0  0  0  0  0  0  0
   18.3627   -9.2900   11.3300 C   0  0  0  0  0  0  0  0  0  0  0  0
   17.2742   -9.3624    7.7456 C   0  0  0  0  0  0  0  0  0  0  0  0
   17.4068   -8.0303    7.0052 C   0  0  0  0  0  0  0  0  0  0  0  0
   18.8083   -7.8050    6.6505 C   0  0  0  0  0  0  0  0  0  0  0  0
   19.9165   -7.6261    6.3697 N   0  0  0  0  0  0  0  0  0  0  0  0
 17 18  1  0  0  0
 18 10  1  0  0  0
 10 11  2  0  0  0
 11 12  1  0  0  0
 12 13  2  0  0  0
 13 14  1  0  0  0
 14 15  2  0  0  0
 15  1  1  0  0  0
  1  2  2  0  0  0
  2  3  1  0  0  0
  3  4  1  0  0  0
  4  5  2  0  0  0
  5  6  1  0  0  0
  6  7  2  0  0  0
  7  8  1  0  0  0
  8  9  2  0  0  0
  6 21  1  0  0  0
 21 22  2  0  0  0
 22 23  1  0  0  0
 23 24  1  0  0  0
 24 25  1  0  0  0
 25 26  1  0  0  0
 24 27  1  0  0  0
 27 28  1  0  0  0
 28 29  1  0  0  0
 29 30  3  0  0  0
 13 16  1  0  0  0
 12 19  1  0  0  0
 19 20  1  0  0  0
 15 10  1  0  0  0
  9  1  1  0  0  0
  8  3  1  0  0  0
 26 21  1  0  0  0
M  END
>  <minimizedAffinity>
-8.38722

>  <minimizedRMSD>
1.87081

$$$$
CHEMBL5314924 MCULE-4534883657 MolPort-051-644-197 PubChem-71271414


 28 31  0  0  0  0  0  0  0  0999 V2000
   14.4397   -7.5296   17.8657 C   0  0  0  0  0  0  0  0  0  0  0  0
   13.0834   -7.4348   17.7874 N   0  0  0  0  0  0  0  0  0  0  0  0
   12.3229   -7.3561   18.9104 C   0  0  0  0  0  0  0  0  0  0  0  0
   12.9132   -7.3712   20.1335 N   0  0  0  0  0  0  0  0  0  0  0  0
   14.2654   -7.4628   20.2567 C   0  0  0  0  0  0  0  0  0  0  0  0
   15.0602   -7.5460   19.1143 C   0  0  0  0  0  0  0  0  0  0  0  0
   10.8447   -7.2531   18.8008 C   0  0  0  0  0  0  0  0  0  0  0  0
   14.8822   -7.4769   21.5458 N   0  0  0  0  0  0  0  0  0  0  0  0
   15.8348   -7.7174   21.6082 H   0  0  0  0  0  0  0  0  0  0  0  0
   14.1659   -7.1517   22.7715 C   0  0  0  0  0  0  0  0  0  0  0  0
   14.7929   -5.9766   23.4397 C   0  0  0  0  0  0  0  0  0  0  0  0
   14.6915   -4.7123   22.9755 N   0  0  0  0  0  0  0  0  0  0  0  0
   15.3657   -3.8289   23.7097 N   0  0  0  0  0  0  0  0  0  0  0  0
   16.0101   -4.3899   24.7552 C   0  0  0  0  0  0  0  0  0  0  0  0
   15.7649   -6.0540   24.8130 S   0  0  0  0  0  0  0  0  0  0  0  0
   16.8351   -3.6196   25.7214 C   0  0  0  0  0  0  0  0  0  0  0  0
   15.2208   -7.6101   16.7129 O   0  0  0  0  0  0  0  0  0  0  0  0
   16.0083   -8.7536   16.4164 C   0  0  0  0  0  0  0  0  0  0  0  0
   16.7885   -9.9652   14.4132 C   0  0  0  0  0  0  0  0  0  0  0  0
   17.9883   -9.2705   15.0342 C   0  0  0  0  0  0  0  0  0  0  0  0
   16.6366   -8.5939   15.0483 C   0  0  0  0  0  0  0  0  0  0  0  0
   16.9692   -9.5904    8.6700 C   0  0  0  0  0  0  0  0  0  0  0  0
   16.9051   -9.6810   10.1516 C   0  0  0  0  0  0  0  0  0  0  0  0
   18.0781   -9.6932   10.9084 C   0  0  0  0  0  0  0  0  0  0  0  0
   18.0124   -9.7750   12.2647 N   0  0  0  0  0  0  0  0  0  0  0  0
   16.8201   -9.8366   12.9224 C   0  0  0  0  0  0  0  0  0  0  0  0
   15.6249   -9.8450   12.1924 C   0  0  0  0  0  0  0  0  0  0  0  0
   15.6722   -9.7615   10.7999 C   0  0  0  0  0  0  0  0  0  0  0  0
 22 23  1  0  0  0
 23 24  2  0  0  0
 24 25  1  0  0  0
 25 26  2  0  0  0
 26 27  1  0  0  0
 27 28  2  0  0  0
 19 26  1  0  0  0
 19 20  1  0  0  0
 20 21  1  0  0  0
 21 18  1  0  0  0
 18 17  1  0  0  0
 17  1  1  0  0  0
  1  2  2  0  0  0
  2  3  1  0  0  0
  3  4  2  0  0  0
  4  5  1  0  0  0
  5  6  2  0  0  0
  5  8  1  0  0  0
  8 10  1  0  0  0
 10 11  1  0  0  0
 11 12  2  0  0  0
 12 13  1  0  0  0
 13 14  2  0  0  0
 14 15  1  0  0  0
 14 16  1  0  0  0
  3  7  1  0  0  0
 28 23  1  0  0  0
 21 19  1  0  0  0
  6  1  1  0  0  0
 15 11  1  0  0  0
  8  9  1  0  0  0
M  END
>  <minimizedAffinity>
-8.37708

>  <minimizedRMSD>
1.88288

$$$$
CHEMBL1861223 PubChem-56678943


 28 30  0  0  0  0  0  0  0  0999 V2000
   16.0172   -7.8843   16.5507 N   0  0  0  0  0  0  0  0  0  0  0  0
   16.3582   -7.2211   17.2466 H   0  0  0  0  0  0  0  0  0  0  0  0
   14.5864   -8.0916   16.7225 C   0  0  0  0  0  0  0  0  0  0  0  0
   12.4844   -6.3394   19.3481 C   0  0  0  0  0  0  0  0  0  0  0  0
   12.8979   -6.9033   18.1318 C   0  0  0  0  0  0  0  0  0  0  0  0
   14.1392   -7.5302   18.0285 C   0  0  0  0  0  0  0  0  0  0  0  0
   14.9654   -7.6238   19.1484 C   0  0  0  0  0  0  0  0  0  0  0  0
   14.5641   -7.0938   20.3780 C   0  0  0  0  0  0  0  0  0  0  0  0
   13.3322   -6.3946   20.4673 C   0  0  0  0  0  0  0  0  0  0  0  0
   11.0307   -4.3609   19.0225 C   0  0  0  0  0  0  0  0  0  0  0  0
   11.2471   -5.6952   19.4610 O   0  0  0  0  0  0  0  0  0  0  0  0
   15.3995   -7.3077   21.4781 O   0  0  0  0  0  0  0  0  0  0  0  0
   14.9453   -7.9298   22.6716 C   0  0  0  0  0  0  0  0  0  0  0  0
   12.9318   -5.7253   21.6288 O   0  0  0  0  0  0  0  0  0  0  0  0
   13.4051   -4.4271   21.9587 C   0  0  0  0  0  0  0  0  0  0  0  0
   16.6751   -9.1707   16.7277 C   0  0  0  0  0  0  0  0  0  0  0  0
   16.9864   -9.7768   15.4018 C   0  0  0  0  0  0  0  0  0  0  0  0
   17.5314  -11.0278   15.2091 C   0  0  0  0  0  0  0  0  0  0  0  0
   17.6502  -11.1719   13.9105 O   0  0  0  0  0  0  0  0  0  0  0  0
   17.2075  -10.0764   13.3341 C   0  0  0  0  0  0  0  0  0  0  0  0
   16.7772   -9.1603   14.2243 N   0  0  0  0  0  0  0  0  0  0  0  0
   17.1847   -9.8731   11.8784 C   0  0  0  0  0  0  0  0  0  0  0  0
   16.0196  -10.1460   11.1492 C   0  0  0  0  0  0  0  0  0  0  0  0
   15.9936   -9.9537    9.7646 C   0  0  0  0  0  0  0  0  0  0  0  0
   17.1326   -9.4874    9.1021 C   0  0  0  0  0  0  0  0  0  0  0  0
   17.1048   -9.2831    7.6305 C   0  0  0  0  0  0  0  0  0  0  0  0
   18.2978   -9.2133    9.8238 C   0  0  0  0  0  0  0  0  0  0  0  0
   18.3239   -9.4055   11.2084 C   0  0  0  0  0  0  0  0  0  0  0  0
 10 11  1  0  0  0
 11  4  1  0  0  0
  4  5  2  0  0  0
  5  6  1  0  0  0
  6  3  1  0  0  0
  6  7  2  0  0  0
  3  1  1  0  0  0
  1 16  1  0  0  0
 16 17  1  0  0  0
 17 18  2  0  0  0
 18 19  1  0  0  0
 19 20  1  0  0  0
 20 22  1  0  0  0
 20 21  2  0  0  0
 22 23  2  0  0  0
 23 24  1  0  0  0
 24 25  2  0  0  0
 25 26  1  0  0  0
 25 27  1  0  0  0
 27 28  2  0  0  0
 28 22  1  0  0  0
 21 17  1  0  0  0
  7  8  1  0  0  0
  8 12  1  0  0  0
  8  9  2  0  0  0
 12 13  1  0  0  0
  9 14  1  0  0  0
  9  4  1  0  0  0
 14 15  1  0  0  0
  1  2  1  0  0  0
M  END
>  <minimizedAffinity>
-8.37547

>  <minimizedRMSD>
1.65633

$$$$
CHEMBL1522985 37868536 ChemDiv-6268-0131 MCULE-6707751201 MolPort-007-570-379 PubChem-4410256 ZINC000037868536


 32 34  0  0  0  0  0  0  0  0999 V2000
   13.4322   -6.4642   19.1586 C   0  0  0  0  0  0  0  0  0  0  0  0
   14.5394   -7.2790   18.8149 C   0  0  0  0  0  0  0  0  0  0  0  0
   15.4983   -7.5724   19.7900 C   0  0  0  0  0  0  0  0  0  0  0  0
   15.3770   -7.0754   21.0878 C   0  0  0  0  0  0  0  0  0  0  0  0
   14.2896   -6.2705   21.4400 C   0  0  0  0  0  0  0  0  0  0  0  0
   13.3257   -5.9719   20.4706 C   0  0  0  0  0  0  0  0  0  0  0  0
   14.1425   -5.7336   22.8098 C   0  0  0  0  0  0  0  0  0  0  0  0
   12.9613   -5.7219   23.4683 N   0  0  0  0  0  0  0  0  0  0  0  0
   13.2480   -5.1617   24.6620 C   0  0  0  0  0  0  0  0  0  0  0  0
   12.2273   -4.9455   25.7255 C   0  0  0  0  0  0  0  0  0  0  0  0
   14.5930   -4.8374   24.7233 C   0  0  0  0  0  0  0  0  0  0  0  0
   15.1406   -5.2038   23.5502 N   0  0  0  0  0  0  0  0  0  0  0  0
   16.4589   -5.0641   23.1788 O   0  0  0  0  0  0  0  0  0  0  0  0
   17.0746   -4.6806   23.7720 H   0  0  0  0  0  0  0  0  0  0  0  0
   15.3118   -4.2073   25.8529 C   0  0  0  0  0  0  0  0  0  0  0  0
   15.3001   -2.7314   26.0503 C   0  0  0  0  0  0  0  0  0  0  0  0
   15.9508   -4.9179   26.6725 O   0  0  0  0  0  0  0  0  0  0  0  0
   11.5506   -5.0624   18.3573 C   0  0  0  0  0  0  0  0  0  0  0  0
   12.4539   -6.1498   18.2084 O   0  0  0  0  0  0  0  0  0  0  0  0
   14.7422   -7.8212   17.5372 O   0  0  0  0  0  0  0  0  0  0  0  0
   15.7947   -8.7102   17.1903 C   0  0  0  0  0  0  0  0  0  0  0  0
   16.1292   -8.5473   15.7516 C   0  0  0  0  0  0  0  0  0  0  0  0
   16.3204   -7.3916   15.2892 O   0  0  0  0  0  0  0  0  0  0  0  0
   16.1900   -9.7061   14.9104 N   0  0  0  0  0  0  0  0  0  0  0  0
   16.0157  -10.5740   15.3414 H   0  0  0  0  0  0  0  0  0  0  0  0
   16.4785   -9.7324   13.5059 C   0  0  0  0  0  0  0  0  0  0  0  0
   17.7916   -9.8227   13.0183 C   0  0  0  0  0  0  0  0  0  0  0  0
   18.0344   -9.8456   11.6419 C   0  0  0  0  0  0  0  0  0  0  0  0
   16.9660   -9.7787   10.7437 C   0  0  0  0  0  0  0  0  0  0  0  0
   17.2684   -9.8076    9.0202 Cl  0  0  0  0  0  0  0  0  0  0  0  0
   15.6562   -9.6889   11.2220 C   0  0  0  0  0  0  0  0  0  0  0  0
   15.4148   -9.6659   12.5990 C   0  0  0  0  0  0  0  0  0  0  0  0
 18 19  1  0  0  0
 19  1  1  0  0  0
  1  2  2  0  0  0
  2 20  1  0  0  0
  2  3  1  0  0  0
 20 21  1  0  0  0
 21 22  1  0  0  0
 22 23  2  0  0  0
 22 24  1  0  0  0
 24 26  1  0  0  0
 26 27  2  0  0  0
 27 28  1  0  0  0
 28 29  2  0  0  0
 29 30  1  0  0  0
 29 31  1  0  0  0
 31 32  2  0  0  0
 32 26  1  0  0  0
  3  4  2  0  0  0
  4  5  1  0  0  0
  5  6  2  0  0  0
  5  7  1  0  0  0
  6  1  1  0  0  0
  7  8  2  0  0  0
  8  9  1  0  0  0
  9 10  1  0  0  0
  9 11  2  0  0  0
 11 12  1  0  0  0
 11 15  1  0  0  0
 12 13  1  0  0  0
 12  7  1  0  0  0
 15 16  1  0  0  0
 15 17  2  0  0  0
 24 25  1  0  0  0
 13 14  1  0  0  0
M  END
>  <minimizedAffinity>
-8.37375

>  <minimizedRMSD>
1.94403

$$$$
CHEMBL3344425 PubChem-118717783


 36 39  0  0  0  0  0  0  0  0999 V2000
   16.9288   -9.6911   15.9306 N   0  0  0  0  0  0  0  0  0  0  0  0
   16.5340   -9.3095   17.1066 O   0  0  0  0  0  0  0  0  0  0  0  0
   15.5479   -8.4525   16.9874 C   0  0  0  0  0  0  0  0  0  0  0  0
   15.2406   -8.2250   15.6944 N   0  0  0  0  0  0  0  0  0  0  0  0
   16.1342   -9.0223   15.0722 C   0  0  0  0  0  0  0  0  0  0  0  0
   16.2213   -9.1519   13.6488 N   0  0  0  0  0  0  0  0  0  0  0  0
   17.4162   -8.6958   12.9407 C   0  0  0  0  0  0  0  0  0  0  0  0
   17.7932   -9.7090   11.8649 C   0  0  0  0  0  0  0  0  0  0  0  0
   16.6089  -10.0426   11.0782 N   0  0  0  0  0  0  0  0  0  0  0  0
   15.4301  -10.5288   11.7894 C   0  0  0  0  0  0  0  0  0  0  0  0
   15.0409   -9.5258   12.8715 C   0  0  0  0  0  0  0  0  0  0  0  0
   16.5860   -9.8682    9.6539 C   0  0  0  0  0  0  0  0  0  0  0  0
   15.5450  -10.1534    9.0003 O   0  0  0  0  0  0  0  0  0  0  0  0
   17.7885   -9.3433    8.9321 C   0  0  0  0  0  0  0  0  0  0  0  0
   17.5471   -9.3231    7.4146 C   0  0  0  0  0  0  0  0  0  0  0  0
   18.3610   -8.2480    6.6830 C   0  0  0  0  0  0  0  0  0  0  0  0
   19.6935   -7.9945    7.3819 C   0  0  0  0  0  0  0  0  0  0  0  0
   19.4849   -7.4708    8.8098 C   0  0  0  0  0  0  0  0  0  0  0  0
   18.1900   -7.9692    9.4663 C   0  0  0  0  0  0  0  0  0  0  0  0
   14.8634   -7.8182   18.1223 C   0  0  0  0  0  0  0  0  0  0  0  0
   13.5715   -7.3067   17.9746 C   0  0  0  0  0  0  0  0  0  0  0  0
   12.9142   -6.6952   19.0459 C   0  0  0  0  0  0  0  0  0  0  0  0
   13.5656   -6.5859   20.3017 C   0  0  0  0  0  0  0  0  0  0  0  0
   14.8534   -7.1313   20.4469 C   0  0  0  0  0  0  0  0  0  0  0  0
   15.4960   -7.7337   19.3639 C   0  0  0  0  0  0  0  0  0  0  0  0
   15.6970   -7.0493   21.9838 Cl  0  0  0  0  0  0  0  0  0  0  0  0
   11.2583   -6.1797   18.7607 Cl  0  0  0  0  0  0  0  0  0  0  0  0
   12.9865   -5.9709   21.4245 O   0  0  0  0  0  0  0  0  0  0  0  0
   11.6784   -5.4120   21.4649 C   0  0  0  0  0  0  0  0  0  0  0  0
   11.7137   -3.9928   22.0155 C   0  0  0  0  0  0  0  0  0  0  0  0
   10.6736   -3.8468   23.0163 N   0  0  0  0  0  0  0  0  0  0  0  0
   10.8383   -4.5065   23.7766 H   0  0  0  0  0  0  0  0  0  0  0  0
    9.7652   -4.0361   22.5928 H   0  0  0  0  0  0  0  0  0  0  0  0
   13.0612   -3.6957   22.6514 C   0  0  0  0  0  0  0  0  0  0  0  0
   13.8820   -3.0216   21.7470 O   0  0  0  0  0  0  0  0  0  0  0  0
   14.0208   -3.5745   20.9622 H   0  0  0  0  0  0  0  0  0  0  0  0
  1  2  1  0  0  0
  2  3  1  0  0  0
  3  4  2  0  0  0
  4  5  1  0  0  0
  5  6  1  0  0  0
  6  7  1  0  0  0
  7  8  1  0  0  0
  8  9  1  0  0  0
  9 10  1  0  0  0
 10 11  1  0  0  0
  9 12  1  0  0  0
 12 13  2  0  0  0
 12 14  1  0  0  0
 14 15  1  0  0  0
 15 16  1  0  0  0
 16 17  1  0  0  0
 17 18  1  0  0  0
 18 19  1  0  0  0
  3 20  1  0  0  0
 20 21  2  0  0  0
 21 22  1  0  0  0
 22 23  2  0  0  0
 23 24  1  0  0  0
 24 25  2  0  0  0
 24 26  1  0  0  0
 23 28  1  0  0  0
 28 29  1  0  0  0
 30 29  1  0  0  0
 30 34  1  0  0  0
 34 35  1  0  0  0
 30 31  1  0  0  0
 22 27  1  0  0  0
  5  1  2  0  0  0
 11  6  1  0  0  0
 19 14  1  0  0  0
 25 20  1  0  0  0
 35 36  1  0  0  0
 31 32  1  0  0  0
 31 33  1  0  0  0
M  END
>  <minimizedAffinity>
-8.36609

>  <minimizedRMSD>
1.42819

$$$$
CHEMBL1699587 1745304 ChemDiv-3002-0697 LN00538012 MCULE-2392447114 MolPort-001-963-468 PubChem-1553949 ZINC000001745304 ZINC01745304


 31 32  0  0  0  0  0  0  0  0999 V2000
   15.9008   -8.1950   18.0927 N   0  0  0  0  0  0  0  0  0  0  0  0
   14.6987   -7.4947   18.4501 C   0  0  0  0  0  0  0  0  0  0  0  0
   13.8525   -7.1950   17.5661 O   0  0  0  0  0  0  0  0  0  0  0  0
   16.5426   -8.3661   18.8194 H   0  0  0  0  0  0  0  0  0  0  0  0
   14.4931   -7.0808   19.8577 C   0  0  0  0  0  0  0  0  0  0  0  0
   13.2230   -6.8113   20.4157 C   0  0  0  0  0  0  0  0  0  0  0  0
   11.6089   -7.2198   19.4386 Br  0  0  0  0  0  0  0  0  0  0  0  0
   13.1237   -6.3666   21.7566 C   0  0  0  0  0  0  0  0  0  0  0  0
   14.2879   -6.2725   22.5652 C   0  0  0  0  0  0  0  0  0  0  0  0
   15.5489   -6.5693   21.9950 C   0  0  0  0  0  0  0  0  0  0  0  0
   15.6254   -6.9576   20.6614 C   0  0  0  0  0  0  0  0  0  0  0  0
   11.8793   -6.0316   22.3006 O   0  0  0  0  0  0  0  0  0  0  0  0
   11.3299   -4.7261   22.1947 C   0  0  0  0  0  0  0  0  0  0  0  0
   14.2374   -5.8811   23.9150 O   0  0  0  0  0  0  0  0  0  0  0  0
   14.3009   -4.5454   24.3950 C   0  0  0  0  0  0  0  0  0  0  0  0
   16.7646   -6.4972   22.6942 O   0  0  0  0  0  0  0  0  0  0  0  0
   16.9997   -7.0256   23.9914 C   0  0  0  0  0  0  0  0  0  0  0  0
   17.0053   -9.6763   14.2679 C   0  0  0  0  0  0  0  0  0  0  0  0
   17.2521  -10.4220   15.4289 C   0  0  0  0  0  0  0  0  0  0  0  0
   16.8838   -9.9216   16.6810 C   0  0  0  0  0  0  0  0  0  0  0  0
   16.2660   -8.6718   16.7904 C   0  0  0  0  0  0  0  0  0  0  0  0
   16.0182   -7.9257   15.6287 C   0  0  0  0  0  0  0  0  0  0  0  0
   16.3860   -8.4245   14.3762 C   0  0  0  0  0  0  0  0  0  0  0  0
   17.3914  -10.1975   12.9468 C   0  0  0  0  0  0  0  0  0  0  0  0
   18.0120  -11.2929   12.8561 O   0  0  0  0  0  0  0  0  0  0  0  0
   17.0691   -9.4738   11.7961 O   0  0  0  0  0  0  0  0  0  0  0  0
   17.5106   -9.8756   10.5068 C   0  0  0  0  0  0  0  0  0  0  0  0
   18.5422   -8.8926    9.9869 C   0  0  0  0  0  0  0  0  0  0  0  0
   18.1412   -8.3977    8.7458 O   0  0  0  0  0  0  0  0  0  0  0  0
   19.2927   -7.4462    6.8985 C   0  0  0  0  0  0  0  0  0  0  0  0
   19.1249   -7.4712    8.4031 C   0  0  0  0  0  0  0  0  0  0  0  0
 30 31  1  0  0  0
 31 29  1  0  0  0
 29 28  1  0  0  0
 28 27  1  0  0  0
 27 26  1  0  0  0
 26 24  1  0  0  0
 24 25  2  0  0  0
 24 18  1  0  0  0
 18 19  2  0  0  0
 19 20  1  0  0  0
 20 21  2  0  0  0
 21  1  1  0  0  0
 21 22  1  0  0  0
  1  2  1  0  0  0
  2  3  2  0  0  0
  2  5  1  0  0  0
  5  6  2  0  0  0
  6  7  1  0  0  0
  6  8  1  0  0  0
  8 12  1  0  0  0
  8  9  2  0  0  0
 12 13  1  0  0  0
  9 14  1  0  0  0
  9 10  1  0  0  0
 14 15  1  0  0  0
 10 16  1  0  0  0
 10 11  2  0  0  0
 16 17  1  0  0  0
 11  5  1  0  0  0
 22 23  2  0  0  0
 23 18  1  0  0  0
  1  4  1  0  0  0
M  END
>  <minimizedAffinity>
-8.35955

>  <minimizedRMSD>
1.88657

$$$$
CHEMBL3668569 PubChem-71009594


 39 42  0  0  0  0  0  0  0  0999 V2000
   18.5218  -10.5766   15.3021 C   0  0  0  0  0  0  0  0  0  0  0  0
   18.2720  -11.3390   16.5992 C   0  0  0  0  0  0  0  0  0  0  0  0
   17.3756  -10.4620   17.4551 C   0  0  0  0  0  0  0  0  0  0  0  0
   16.9428   -9.3776   16.5977 N   0  0  0  0  0  0  0  0  0  0  0  0
   17.5381   -9.4183   15.2745 C   0  0  0  0  0  0  0  0  0  0  0  0
   16.0994   -8.3142   17.0571 C   0  0  0  0  0  0  0  0  0  0  0  0
   15.8603   -7.3330   16.3028 O   0  0  0  0  0  0  0  0  0  0  0  0
   15.5741   -8.3470   18.3893 N   0  0  0  0  0  0  0  0  0  0  0  0
   17.5850  -12.5829   16.3020 N   0  0  0  0  0  0  0  0  0  0  0  0
   15.9929   -8.9740   19.0224 H   0  0  0  0  0  0  0  0  0  0  0  0
   16.7073  -12.3806   15.8234 H   0  0  0  0  0  0  0  0  0  0  0  0
   17.3915  -13.0805   17.1712 H   0  0  0  0  0  0  0  0  0  0  0  0
   14.4922   -7.5467   18.8802 C   0  0  0  0  0  0  0  0  0  0  0  0
   14.6070   -6.6102   19.8990 C   0  0  0  0  0  0  0  0  0  0  0  0
   13.3814   -6.0945   20.1665 N   0  0  0  0  0  0  0  0  0  0  0  0
   12.5047   -6.7160   19.3462 C   0  0  0  0  0  0  0  0  0  0  0  0
   11.1179   -6.5552   19.2867 C   0  0  0  0  0  0  0  0  0  0  0  0
   10.4000   -7.3572   18.3828 C   0  0  0  0  0  0  0  0  0  0  0  0
   11.0686   -8.3003   17.5751 C   0  0  0  0  0  0  0  0  0  0  0  0
   12.4637   -8.4473   17.6565 C   0  0  0  0  0  0  0  0  0  0  0  0
   13.1533   -7.6229   18.5452 C   0  0  0  0  0  0  0  0  0  0  0  0
   13.1114   -5.0963   21.1641 C   0  0  0  0  0  0  0  0  0  0  0  0
   14.0514   -4.6343   21.8640 O   0  0  0  0  0  0  0  0  0  0  0  0
   11.7879   -4.6138   21.3756 N   0  0  0  0  0  0  0  0  0  0  0  0
   11.0435   -4.9658   20.8360 H   0  0  0  0  0  0  0  0  0  0  0  0
   11.6176   -3.9282   22.0613 H   0  0  0  0  0  0  0  0  0  0  0  0
   16.4909   -9.6496   14.2303 C   0  0  0  0  0  0  0  0  0  0  0  0
   15.3367  -10.0375   14.5605 O   0  0  0  0  0  0  0  0  0  0  0  0
   16.8130   -9.4181   12.8578 N   0  0  0  0  0  0  0  0  0  0  0  0
   17.7115   -9.0823   12.6358 H   0  0  0  0  0  0  0  0  0  0  0  0
   15.8714   -9.6566   11.7719 C   0  0  0  0  0  0  0  0  0  0  0  0
   16.5386   -9.4663   10.4483 C   0  0  0  0  0  0  0  0  0  0  0  0
   15.9559   -9.9709    9.2754 C   0  0  0  0  0  0  0  0  0  0  0  0
   16.5967   -9.7923    8.0453 C   0  0  0  0  0  0  0  0  0  0  0  0
   17.8156   -9.1114    7.9812 C   0  0  0  0  0  0  0  0  0  0  0  0
   18.3961   -8.6065    9.1478 C   0  0  0  0  0  0  0  0  0  0  0  0
   17.7588   -8.7832   10.3789 C   0  0  0  0  0  0  0  0  0  0  0  0
   19.9222   -7.7539    9.0677 Cl  0  0  0  0  0  0  0  0  0  0  0  0
   14.7715  -10.6304    9.3198 F   0  0  0  0  0  0  0  0  0  0  0  0
  1  2  1  0  0  0
  2  3  1  0  0  0
  2  9  1  0  0  0
  3  4  1  0  0  0
  4  5  1  0  0  0
  4  6  1  0  0  0
  5 27  1  0  0  0
  5  1  1  0  0  0
 27 28  2  0  0  0
 27 29  1  0  0  0
 29 31  1  0  0  0
 31 32  1  0  0  0
 32 33  2  0  0  0
 33 34  1  0  0  0
 33 39  1  0  0  0
 34 35  2  0  0  0
 35 36  1  0  0  0
 36 37  2  0  0  0
 36 38  1  0  0  0
 37 32  1  0  0  0
  6  7  2  0  0  0
  6  8  1  0  0  0
  8 13  1  0  0  0
 13 14  2  0  0  0
 14 15  1  0  0  0
 15 16  1  0  0  0
 15 22  1  0  0  0
 16 17  2  0  0  0
 17 18  1  0  0  0
 18 19  2  0  0  0
 19 20  1  0  0  0
 20 21  2  0  0  0
 21 13  1  0  0  0
 21 16  1  0  0  0
 22 23  2  0  0  0
 22 24  1  0  0  0
 29 30  1  0  0  0
  8 10  1  0  0  0
 24 25  1  0  0  0
 24 26  1  0  0  0
  9 11  1  0  0  0
  9 12  1  0  0  0
M  END
>  <minimizedAffinity>
-8.35815

>  <minimizedRMSD>
1.70108

$$$$
CHEMBL3213641 ChemDiv-2262-2605 MolPort-007-553-212 PubChem-9675061 ZINC12571856


 28 29  0  0  0  0  0  0  0  0999 V2000
   15.3072   -7.8287   16.3842 N   0  0  0  0  0  0  0  0  0  0  0  0
   16.1458   -8.9409   16.0279 C   0  0  0  0  0  0  0  0  0  0  0  0
   16.5755   -9.7315   16.9115 O   0  0  0  0  0  0  0  0  0  0  0  0
   15.0016   -7.2451   15.6525 H   0  0  0  0  0  0  0  0  0  0  0  0
   16.5069   -9.1593   14.6158 C   0  0  0  0  0  0  0  0  0  0  0  0
   17.6218   -9.9406   14.2801 C   0  0  0  0  0  0  0  0  0  0  0  0
   17.9633  -10.1470   12.9406 C   0  0  0  0  0  0  0  0  0  0  0  0
   17.1977   -9.5770   11.9187 C   0  0  0  0  0  0  0  0  0  0  0  0
   16.0821   -8.7952   12.2527 C   0  0  0  0  0  0  0  0  0  0  0  0
   15.7395   -8.5881   13.5916 C   0  0  0  0  0  0  0  0  0  0  0  0
   17.5803   -9.8120   10.5566 N   0  0  0  0  0  0  0  0  0  0  0  0
   16.7023   -9.9967    9.4392 C   0  0  0  0  0  0  0  0  0  0  0  0
   17.2810  -10.2306    8.0908 C   0  0  0  0  0  0  0  0  0  0  0  0
   15.4511   -9.9647    9.5766 O   0  0  0  0  0  0  0  0  0  0  0  0
   18.5462   -9.8503   10.3699 H   0  0  0  0  0  0  0  0  0  0  0  0
   15.5474   -7.8132   18.7538 C   0  0  0  0  0  0  0  0  0  0  0  0
   14.8840   -7.4997   17.6864 N   0  0  0  0  0  0  0  0  0  0  0  0
   14.3803   -6.7369   22.7383 C   0  0  0  0  0  0  0  0  0  0  0  0
   13.4101   -7.2216   21.8491 C   0  0  0  0  0  0  0  0  0  0  0  0
   13.7467   -7.5861   20.5353 C   0  0  0  0  0  0  0  0  0  0  0  0
   15.0878   -7.4599   20.1081 C   0  0  0  0  0  0  0  0  0  0  0  0
   16.0504   -6.9763   20.9991 C   0  0  0  0  0  0  0  0  0  0  0  0
   15.7062   -6.6164   22.3034 C   0  0  0  0  0  0  0  0  0  0  0  0
   17.0697   -5.9622   23.4712 Br  0  0  0  0  0  0  0  0  0  0  0  0
   13.2969   -5.2059   24.3546 C   0  0  0  0  0  0  0  0  0  0  0  0
   14.0469   -6.3734   24.0476 O   0  0  0  0  0  0  0  0  0  0  0  0
   12.7660   -8.0683   19.6597 O   0  0  0  0  0  0  0  0  0  0  0  0
   11.6715   -7.2785   19.2144 C   0  0  0  0  0  0  0  0  0  0  0  0
 25 26  1  0  0  0
 26 18  1  0  0  0
 18 19  2  0  0  0
 19 20  1  0  0  0
 20 27  1  0  0  0
 20 21  2  0  0  0
 27 28  1  0  0  0
 21 16  1  0  0  0
 21 22  1  0  0  0
 16 17  2  0  0  0
 17  1  1  0  0  0
  1  2  1  0  0  0
  2  3  2  0  0  0
  2  5  1  0  0  0
  5  6  2  0  0  0
  6  7  1  0  0  0
  7  8  2  0  0  0
  8 11  1  0  0  0
  8  9  1  0  0  0
 11 12  1  0  0  0
 12 13  1  0  0  0
 12 14  2  0  0  0
  9 10  2  0  0  0
 10  5  1  0  0  0
 22 23  2  0  0  0
 23 24  1  0  0  0
 23 18  1  0  0  0
  1  4  1  0  0  0
 11 15  1  0  0  0
M  END
>  <minimizedAffinity>
-8.35312

>  <minimizedRMSD>
1.74141

$$$$
CHEMBL3196679 MolPort-004-248-911 PubChem-135519966 ZINC03238557


 32 34  0  0  0  0  0  0  0  0999 V2000
   15.2693   -7.7641   16.5372 N   0  0  0  0  0  0  0  0  0  0  0  0
   16.2331   -8.8272   16.4456 C   0  0  0  0  0  0  0  0  0  0  0  0
   16.6262   -9.4301   17.4812 O   0  0  0  0  0  0  0  0  0  0  0  0
   14.9980   -7.3311   15.6957 H   0  0  0  0  0  0  0  0  0  0  0  0
   16.7672   -9.2159   15.1282 C   0  0  0  0  0  0  0  0  0  0  0  0
   18.0061   -9.8666   15.0278 C   0  0  0  0  0  0  0  0  0  0  0  0
   18.5134  -10.2325   13.7779 C   0  0  0  0  0  0  0  0  0  0  0  0
   17.7856   -9.9501   12.6170 C   0  0  0  0  0  0  0  0  0  0  0  0
   16.5488   -9.3051   12.7102 C   0  0  0  0  0  0  0  0  0  0  0  0
   16.0421   -8.9393   13.9602 C   0  0  0  0  0  0  0  0  0  0  0  0
   18.3268  -10.3241   11.2792 C   0  0  0  0  0  0  0  0  0  0  0  0
   19.0676   -8.8828   10.4446 S   0  0  0  0  0  0  0  0  0  0  0  0
   18.0633   -9.0735    8.9715 C   0  0  0  0  0  0  0  0  0  0  0  0
   17.0402   -9.9381    8.8687 N   0  0  0  0  0  0  0  0  0  0  0  0
   16.5516   -9.7998    7.6433 N   0  0  0  0  0  0  0  0  0  0  0  0
   17.2810   -8.8574    7.0085 C   0  0  0  0  0  0  0  0  0  0  0  0
   18.2357   -8.3908    7.8293 N   0  0  0  0  0  0  0  0  0  0  0  0
   19.2402   -7.3884    7.5202 C   0  0  0  0  0  0  0  0  0  0  0  0
   15.0404   -7.6722   18.9067 C   0  0  0  0  0  0  0  0  0  0  0  0
   14.6788   -7.2872   17.7234 N   0  0  0  0  0  0  0  0  0  0  0  0
   12.6250   -5.8849   21.2049 C   0  0  0  0  0  0  0  0  0  0  0  0
   13.2287   -6.3795   20.0397 C   0  0  0  0  0  0  0  0  0  0  0  0
   14.3951   -7.1467   20.1138 C   0  0  0  0  0  0  0  0  0  0  0  0
   14.9605   -7.4206   21.3594 C   0  0  0  0  0  0  0  0  0  0  0  0
   14.3798   -6.9401   22.5376 C   0  0  0  0  0  0  0  0  0  0  0  0
   13.1980   -6.1633   22.4556 C   0  0  0  0  0  0  0  0  0  0  0  0
   12.5829   -5.6631   23.5981 O   0  0  0  0  0  0  0  0  0  0  0  0
   12.9498   -5.8379   24.4424 H   0  0  0  0  0  0  0  0  0  0  0  0
   10.5862   -5.1270   20.0210 C   0  0  0  0  0  0  0  0  0  0  0  0
   11.4575   -5.1160   21.1438 O   0  0  0  0  0  0  0  0  0  0  0  0
   15.0172   -7.2649   23.7443 O   0  0  0  0  0  0  0  0  0  0  0  0
   16.3709   -6.9645   24.0519 C   0  0  0  0  0  0  0  0  0  0  0  0
 29 30  1  0  0  0
 30 21  1  0  0  0
 21 22  2  0  0  0
 22 23  1  0  0  0
 23 19  1  0  0  0
 23 24  2  0  0  0
 19 20  2  0  0  0
 20  1  1  0  0  0
  1  2  1  0  0  0
  2  3  2  0  0  0
  2  5  1  0  0  0
  5  6  2  0  0  0
  6  7  1  0  0  0
  7  8  2  0  0  0
  8 11  1  0  0  0
  8  9  1  0  0  0
 11 12  1  0  0  0
 12 13  1  0  0  0
 13 14  2  0  0  0
 14 15  1  0  0  0
 15 16  2  0  0  0
 16 17  1  0  0  0
 17 18  1  0  0  0
 17 13  1  0  0  0
  9 10  2  0  0  0
 10  5  1  0  0  0
 24 25  1  0  0  0
 25 31  1  0  0  0
 25 26  2  0  0  0
 31 32  1  0  0  0
 26 27  1  0  0  0
 26 21  1  0  0  0
  1  4  1  0  0  0
 27 28  1  0  0  0
M  END
>  <minimizedAffinity>
-8.35192

>  <minimizedRMSD>
1.59364

$$$$
CHEMBL4590108 PubChem-135335177


 31 35  0  0  0  0  0  0  0  0999 V2000
   15.5553   -8.2946   17.4301 C   0  0  0  0  0  0  0  0  0  0  0  0
   16.3361   -9.4498   17.4531 C   0  0  0  0  0  0  0  0  0  0  0  0
   16.6708   -9.6855   16.1775 N   0  0  0  0  0  0  0  0  0  0  0  0
   17.4228  -10.6875   15.6629 C   0  0  0  0  0  0  0  0  0  0  0  0
   17.6289  -10.7097   14.2765 C   0  0  0  0  0  0  0  0  0  0  0  0
   17.0578   -9.7070   13.4575 C   0  0  0  0  0  0  0  0  0  0  0  0
   16.2859   -8.6869   14.0534 C   0  0  0  0  0  0  0  0  0  0  0  0
   16.1164   -8.7182   15.4345 C   0  0  0  0  0  0  0  0  0  0  0  0
   15.4156   -7.8319   16.1618 N   0  0  0  0  0  0  0  0  0  0  0  0
   13.6137   -7.2110   18.6506 C   0  0  0  0  0  0  0  0  0  0  0  0
   13.1096   -6.6100   19.8156 C   0  0  0  0  0  0  0  0  0  0  0  0
   13.9135   -6.4403   20.9513 C   0  0  0  0  0  0  0  0  0  0  0  0
   15.2422   -6.8797   20.9184 C   0  0  0  0  0  0  0  0  0  0  0  0
   15.7526   -7.4782   19.7656 C   0  0  0  0  0  0  0  0  0  0  0  0
   14.9561   -7.6523   18.6241 C   0  0  0  0  0  0  0  0  0  0  0  0
   16.2886   -6.6907   22.3139 Cl  0  0  0  0  0  0  0  0  0  0  0  0
   11.3750   -7.3971   17.6010 C   0  0  0  0  0  0  0  0  0  0  0  0
   12.7942   -7.3716   17.5265 O   0  0  0  0  0  0  0  0  0  0  0  0
   13.4118   -5.8416   22.1123 O   0  0  0  0  0  0  0  0  0  0  0  0
   12.0456   -5.4807   22.2630 C   0  0  0  0  0  0  0  0  0  0  0  0
   17.2732   -9.7194   12.0337 N   0  0  0  0  0  0  0  0  0  0  0  0
   18.6278   -9.7206   11.4814 C   0  0  0  0  0  0  0  0  0  0  0  0
   18.6767   -8.8186   10.2518 C   0  0  0  0  0  0  0  0  0  0  0  0
   17.6397   -9.2234    9.2922 N   0  0  0  0  0  0  0  0  0  0  0  0
   16.3211   -9.0223    9.8964 C   0  0  0  0  0  0  0  0  0  0  0  0
   16.1599   -9.9342   11.1094 C   0  0  0  0  0  0  0  0  0  0  0  0
   17.7113   -8.4279    8.0579 C   0  0  0  0  0  0  0  0  0  0  0  0
   17.7873   -9.3175    6.8269 C   0  0  0  0  0  0  0  0  0  0  0  0
   18.9390   -8.7968    5.9862 C   0  0  0  0  0  0  0  0  0  0  0  0
   19.2907   -7.4314    6.5383 C   0  0  0  0  0  0  0  0  0  0  0  0
   18.9016   -7.4756    7.9970 C   0  0  0  0  0  0  0  0  0  0  0  0
 17 18  1  0  0  0
 18 10  1  0  0  0
 10 11  2  0  0  0
 11 12  1  0  0  0
 12 13  2  0  0  0
 13 14  1  0  0  0
 14 15  2  0  0  0
 15  1  1  0  0  0
  1  2  2  0  0  0
  2  3  1  0  0  0
  3  4  1  0  0  0
  4  5  2  0  0  0
  5  6  1  0  0  0
  6  7  2  0  0  0
  7  8  1  0  0  0
  8  9  2  0  0  0
  6 21  1  0  0  0
 21 22  1  0  0  0
 22 23  1  0  0  0
 23 24  1  0  0  0
 24 25  1  0  0  0
 25 26  1  0  0  0
 24 27  1  0  0  0
 27 28  1  0  0  0
 28 29  1  0  0  0
 29 30  1  0  0  0
 30 31  1  0  0  0
 13 16  1  0  0  0
 12 19  1  0  0  0
 19 20  1  0  0  0
 15 10  1  0  0  0
  9  1  1  0  0  0
  8  3  1  0  0  0
 26 21  1  0  0  0
 31 27  1  0  0  0
M  END
>  <minimizedAffinity>
-8.34715

>  <minimizedRMSD>
1.21177

$$$$
CHEMBL609150 PubChem-44357738


 28 30  0  0  0  0  0  0  0  0999 V2000
   15.0543   -7.9315   17.6287 C   0  0  0  0  0  0  0  0  0  0  0  0
   15.7961   -7.9575   18.8336 C   0  0  0  0  0  0  0  0  0  0  0  0
   15.2340   -7.4995   20.0352 C   0  0  0  0  0  0  0  0  0  0  0  0
   13.9246   -7.0210   20.0043 C   0  0  0  0  0  0  0  0  0  0  0  0
   13.1954   -6.9932   18.8484 C   0  0  0  0  0  0  0  0  0  0  0  0
   13.7367   -7.4412   17.6410 C   0  0  0  0  0  0  0  0  0  0  0  0
   11.8358   -6.4328   19.1145 C   0  0  0  0  0  0  0  0  0  0  0  0
   10.7360   -7.4220   18.7732 C   0  0  0  0  0  0  0  0  0  0  0  0
   11.6237   -5.1096   18.4256 C   0  0  0  0  0  0  0  0  0  0  0  0
   11.1546   -4.1797   19.5227 C   0  0  0  0  0  0  0  0  0  0  0  0
   11.6651   -4.6831   20.7916 N   0  0  0  0  0  0  0  0  0  0  0  0
   10.6092   -4.4998   21.7714 C   0  0  0  0  0  0  0  0  0  0  0  0
   11.8497   -6.1219   20.6247 C   0  0  0  0  0  0  0  0  0  0  0  0
   13.1807   -6.5082   21.0906 N   0  0  0  0  0  0  0  0  0  0  0  0
   13.6166   -6.4828   22.4770 C   0  0  0  0  0  0  0  0  0  0  0  0
   15.5830   -8.3771   16.4072 O   0  0  0  0  0  0  0  0  0  0  0  0
   17.7427   -8.8655   15.3949 N   0  0  0  0  0  0  0  0  0  0  0  0
   16.6614   -9.2579   16.2400 C   0  0  0  0  0  0  0  0  0  0  0  0
   16.6889  -10.3797   16.8163 O   0  0  0  0  0  0  0  0  0  0  0  0
   17.7054   -7.9885   14.9491 H   0  0  0  0  0  0  0  0  0  0  0  0
   18.8969   -9.7199   15.1719 C   0  0  0  0  0  0  0  0  0  0  0  0
   18.6451  -10.6053   13.9699 C   0  0  0  0  0  0  0  0  0  0  0  0
   17.6652   -9.9213   13.0356 C   0  0  0  0  0  0  0  0  0  0  0  0
   18.0498  -10.1713   11.5850 C   0  0  0  0  0  0  0  0  0  0  0  0
   17.4979   -9.0886   10.6700 C   0  0  0  0  0  0  0  0  0  0  0  0
   17.7449   -9.4470    9.2136 C   0  0  0  0  0  0  0  0  0  0  0  0
   19.4418   -7.6214    9.2306 C   0  0  0  0  0  0  0  0  0  0  0  0
   18.2968   -8.2508    8.4594 C   0  0  0  0  0  0  0  0  0  0  0  0
 27 28  1  0  0  0
 28 26  1  0  0  0
 26 25  1  0  0  0
 25 24  1  0  0  0
 24 23  1  0  0  0
 23 22  1  0  0  0
 22 21  1  0  0  0
 21 17  1  0  0  0
 17 18  1  0  0  0
 18 19  2  0  0  0
 18 16  1  0  0  0
 16  1  1  0  0  0
  1  2  2  0  0  0
  2  3  1  0  0  0
  3  4  2  0  0  0
  4  5  1  0  0  0
  5  6  2  0  0  0
  5  7  1  0  0  0
  6  1  1  0  0  0
  7  8  1  0  0  0
  7  9  1  0  0  0
  9 10  1  0  0  0
 10 11  1  0  0  0
 11 12  1  0  0  0
 13 11  1  0  0  0
 13 14  1  0  0  0
 13  7  1  0  0  0
 14 15  1  0  0  0
 14  4  1  0  0  0
 17 20  1  0  0  0
M  END
>  <minimizedAffinity>
-8.33996

>  <minimizedRMSD>
1.56717

$$$$
CHEMBL5205432


 38 41  0  0  0  0  0  0  0  0999 V2000
   17.5383  -10.2520   12.5470 C   0  0  0  0  0  0  0  0  0  0  0  0
   18.5832  -11.0544   12.8912 N   0  0  0  0  0  0  0  0  0  0  0  0
   19.0638  -11.0873   14.1626 C   0  0  0  0  0  0  0  0  0  0  0  0
   18.5031  -10.3101   15.1256 N   0  0  0  0  0  0  0  0  0  0  0  0
   17.4581   -9.4919   14.8335 C   0  0  0  0  0  0  0  0  0  0  0  0
   16.9482   -9.4445   13.5258 C   0  0  0  0  0  0  0  0  0  0  0  0
   15.9028   -8.6256   13.2349 N   0  0  0  0  0  0  0  0  0  0  0  0
   15.3416   -7.8480   14.1980 C   0  0  0  0  0  0  0  0  0  0  0  0
   15.8217   -7.8805   15.4697 N   0  0  0  0  0  0  0  0  0  0  0  0
   16.8665   -8.6840   15.8096 C   0  0  0  0  0  0  0  0  0  0  0  0
   17.3532   -8.7007   17.1525 N   0  0  0  0  0  0  0  0  0  0  0  0
   18.2356   -9.0938   17.3428 H   0  0  0  0  0  0  0  0  0  0  0  0
   16.5967   -8.1675   18.2020 N   0  0  0  0  0  0  0  0  0  0  0  0
   15.3123   -8.0752   18.0919 C   0  0  0  0  0  0  0  0  0  0  0  0
   14.4903   -7.5214   19.1726 C   0  0  0  0  0  0  0  0  0  0  0  0
   14.8434   -7.7838   20.4978 C   0  0  0  0  0  0  0  0  0  0  0  0
   14.0762   -7.2674   21.5443 C   0  0  0  0  0  0  0  0  0  0  0  0
   12.9437   -6.4805   21.2768 C   0  0  0  0  0  0  0  0  0  0  0  0
   12.5843   -6.2136   19.9466 C   0  0  0  0  0  0  0  0  0  0  0  0
   13.3618   -6.7371   18.9004 C   0  0  0  0  0  0  0  0  0  0  0  0
   11.4551   -5.4292   19.6876 O   0  0  0  0  0  0  0  0  0  0  0  0
   11.3691   -4.5482   18.5757 C   0  0  0  0  0  0  0  0  0  0  0  0
   12.1644   -5.9557   22.3137 O   0  0  0  0  0  0  0  0  0  0  0  0
   12.6611   -5.0015   23.2425 C   0  0  0  0  0  0  0  0  0  0  0  0
   17.0362  -10.2226   11.2016 N   0  0  0  0  0  0  0  0  0  0  0  0
   16.2576  -10.7953   11.0147 H   0  0  0  0  0  0  0  0  0  0  0  0
   17.5385   -9.4549   10.0988 C   0  0  0  0  0  0  0  0  0  0  0  0
   16.8730   -9.5302    8.8711 C   0  0  0  0  0  0  0  0  0  0  0  0
   17.3302   -8.7979    7.7720 C   0  0  0  0  0  0  0  0  0  0  0  0
   18.4632   -7.9774    7.8901 C   0  0  0  0  0  0  0  0  0  0  0  0
   19.1301   -7.9028    9.1164 C   0  0  0  0  0  0  0  0  0  0  0  0
   18.6714   -8.6360   10.2142 C   0  0  0  0  0  0  0  0  0  0  0  0
   18.9478   -7.2328    6.8092 O   0  0  0  0  0  0  0  0  0  0  0  0
   19.6130   -7.8173    5.6927 C   0  0  0  0  0  0  0  0  0  0  0  0
   20.8504   -7.0147    5.3241 C   0  0  0  0  0  0  0  0  0  0  0  0
   21.3344   -7.4042    3.9412 C   0  0  0  0  0  0  0  0  0  0  0  0
   22.7236   -7.5170    3.9502 O   0  0  0  0  0  0  0  0  0  0  0  0
   23.1154   -6.6663    4.2025 H   0  0  0  0  0  0  0  0  0  0  0  0
  1  2  2  0  0  0
  2  3  1  0  0  0
  3  4  2  0  0  0
  4  5  1  0  0  0
  5  6  2  0  0  0
  6  7  1  0  0  0
  7  8  2  0  0  0
  8  9  1  0  0  0
  9 10  2  0  0  0
 10 11  1  0  0  0
 11 13  1  0  0  0
 13 14  2  0  0  0
 14 15  1  0  0  0
 15 16  2  0  0  0
 16 17  1  0  0  0
 17 18  2  0  0  0
 18 19  1  0  0  0
 19 20  2  0  0  0
 19 21  1  0  0  0
 21 22  1  0  0  0
 18 23  1  0  0  0
 23 24  1  0  0  0
  1 25  1  0  0  0
 25 27  1  0  0  0
 27 28  2  0  0  0
 28 29  1  0  0  0
 29 30  2  0  0  0
 30 31  1  0  0  0
 31 32  2  0  0  0
 30 33  1  0  0  0
 33 34  1  0  0  0
 34 35  1  0  0  0
 35 36  1  0  0  0
 36 37  1  0  0  0
  6  1  1  0  0  0
 20 15  1  0  0  0
 32 27  1  0  0  0
 10  5  1  0  0  0
 11 12  1  0  0  0
 25 26  1  0  0  0
 37 38  1  0  0  0
M  END
>  <minimizedAffinity>
-8.33367

>  <minimizedRMSD>
1.86353

$$$$
CHEMBL4852993


 30 32  0  0  0  0  0  0  0  0999 V2000
   16.2547   -8.9708   16.3338 C   0  0  0  0  0  0  0  0  0  0  0  0
   16.8716   -9.6204   17.2221 O   0  0  0  0  0  0  0  0  0  0  0  0
   17.8548  -10.3034   13.1813 C   0  0  0  0  0  0  0  0  0  0  0  0
   17.0207   -9.7632   12.1911 C   0  0  0  0  0  0  0  0  0  0  0  0
   15.9362   -8.9667   12.5727 C   0  0  0  0  0  0  0  0  0  0  0  0
   15.6869   -8.7090   13.9238 C   0  0  0  0  0  0  0  0  0  0  0  0
   16.5207   -9.2468   14.9127 C   0  0  0  0  0  0  0  0  0  0  0  0
   17.6070  -10.0469   14.5324 C   0  0  0  0  0  0  0  0  0  0  0  0
   17.2394  -10.0048   10.7934 N   0  0  0  0  0  0  0  0  0  0  0  0
   16.9454  -10.8805   10.4526 H   0  0  0  0  0  0  0  0  0  0  0  0
   17.8360   -9.1201    9.8344 C   0  0  0  0  0  0  0  0  0  0  0  0
   18.9517   -8.5096   10.0891 N   0  0  0  0  0  0  0  0  0  0  0  0
   19.5347   -7.6550    9.1808 O   0  0  0  0  0  0  0  0  0  0  0  0
   17.1376   -8.9096    8.5335 C   0  0  0  0  0  0  0  0  0  0  0  0
   20.3413   -7.2270    9.3911 H   0  0  0  0  0  0  0  0  0  0  0  0
   15.3166   -7.9840   16.6771 O   0  0  0  0  0  0  0  0  0  0  0  0
   14.8693   -7.6816   17.9729 C   0  0  0  0  0  0  0  0  0  0  0  0
   15.6941   -7.7508   19.1148 C   0  0  0  0  0  0  0  0  0  0  0  0
   15.1867   -7.4350   20.3894 C   0  0  0  0  0  0  0  0  0  0  0  0
   13.8436   -7.0518   20.5199 C   0  0  0  0  0  0  0  0  0  0  0  0
   13.0854   -6.9934   19.3936 N   0  0  0  0  0  0  0  0  0  0  0  0
   13.5460   -7.2886   18.1752 C   0  0  0  0  0  0  0  0  0  0  0  0
   12.5945   -7.1519   17.2355 N   0  0  0  0  0  0  0  0  0  0  0  0
   11.5234   -6.7530   17.9724 C   0  0  0  0  0  0  0  0  0  0  0  0
   11.8157   -6.6539   19.2923 N   0  0  0  0  0  0  0  0  0  0  0  0
   13.2860   -6.6866   21.8564 C   0  0  0  0  0  0  0  0  0  0  0  0
   13.3447   -5.2113   22.0573 C   0  0  0  0  0  0  0  0  0  0  0  0
   14.3529   -4.6896   22.6001 O   0  0  0  0  0  0  0  0  0  0  0  0
   12.3033   -4.4074   21.6134 O   0  0  0  0  0  0  0  0  0  0  0  0
   11.5520   -4.7948   21.2091 H   0  0  0  0  0  0  0  0  0  0  0  0
  3  4  2  0  0  0
  4  5  1  0  0  0
  5  6  2  0  0  0
  6  7  1  0  0  0
  7  8  2  0  0  0
  7  1  1  0  0  0
  1  2  2  0  0  0
  1 16  1  0  0  0
 16 17  1  0  0  0
 17 18  2  0  0  0
 18 19  1  0  0  0
 19 20  2  0  0  0
 20 21  1  0  0  0
 21 22  1  0  0  0
 22 23  2  0  0  0
 23 24  1  0  0  0
 24 25  2  0  0  0
 20 26  1  0  0  0
 26 27  1  0  0  0
 27 28  2  0  0  0
 27 29  1  0  0  0
  4  9  1  0  0  0
  9 11  1  0  0  0
 11 12  2  0  0  0
 12 13  1  0  0  0
 11 14  1  0  0  0
  8  3  1  0  0  0
 22 17  1  0  0  0
 25 21  1  0  0  0
 29 30  1  0  0  0
  9 10  1  0  0  0
 13 15  1  0  0  0
M  END
>  <minimizedAffinity>
-8.33356

>  <minimizedRMSD>
1.45142

$$$$
CHEMBL347944 PubChem-14877443


 34 36  0  0  0  0  0  0  0  0999 V2000
   15.2070   -7.9362   17.9161 C   0  0  0  0  0  0  0  0  0  0  0  0
   14.7220   -7.6617   16.7847 O   0  0  0  0  0  0  0  0  0  0  0  0
   16.4177   -8.6961   18.0002 N   0  0  0  0  0  0  0  0  0  0  0  0
   16.8175   -8.8488   18.8868 H   0  0  0  0  0  0  0  0  0  0  0  0
   13.1933   -7.0517   19.1861 C   0  0  0  0  0  0  0  0  0  0  0  0
   12.6307   -6.6285   20.4010 C   0  0  0  0  0  0  0  0  0  0  0  0
   13.3782   -6.6155   21.5850 C   0  0  0  0  0  0  0  0  0  0  0  0
   14.7153   -7.0349   21.5492 C   0  0  0  0  0  0  0  0  0  0  0  0
   15.7045   -7.0420   22.9995 Cl  0  0  0  0  0  0  0  0  0  0  0  0
   15.2839   -7.4576   20.3468 C   0  0  0  0  0  0  0  0  0  0  0  0
   14.5421   -7.4731   19.1573 C   0  0  0  0  0  0  0  0  0  0  0  0
   12.8039   -6.1830   22.8285 N   0  0  0  0  0  0  0  0  0  0  0  0
   12.7715   -4.8451   23.3415 C   0  0  0  0  0  0  0  0  0  0  0  0
   12.1305   -4.5866   24.6566 C   0  0  0  0  0  0  0  0  0  0  0  0
   13.2747   -3.8849   22.7007 O   0  0  0  0  0  0  0  0  0  0  0  0
   12.3885   -6.8790   23.3873 H   0  0  0  0  0  0  0  0  0  0  0  0
   12.4241   -7.0574   18.0157 O   0  0  0  0  0  0  0  0  0  0  0  0
   10.4120   -8.3605   18.0752 C   0  0  0  0  0  0  0  0  0  0  0  0
   11.0053   -6.9684   18.0216 C   0  0  0  0  0  0  0  0  0  0  0  0
   17.0826   -9.2526   16.8307 C   0  0  0  0  0  0  0  0  0  0  0  0
   16.2954   -8.9324   15.5708 C   0  0  0  0  0  0  0  0  0  0  0  0
   16.5470  -10.0266   14.5203 C   0  0  0  0  0  0  0  0  0  0  0  0
   16.9427   -9.4428   13.2340 N   0  0  0  0  0  0  0  0  0  0  0  0
   15.9908   -8.3958   12.8547 C   0  0  0  0  0  0  0  0  0  0  0  0
   15.7945   -7.3877   13.9997 C   0  0  0  0  0  0  0  0  0  0  0  0
   16.6606   -7.6658   15.0742 O   0  0  0  0  0  0  0  0  0  0  0  0
   16.8386  -10.4922   12.2321 C   0  0  0  0  0  0  0  0  0  0  0  0
   17.0800   -9.9349   10.8694 C   0  0  0  0  0  0  0  0  0  0  0  0
   18.2510   -9.2145   10.6124 C   0  0  0  0  0  0  0  0  0  0  0  0
   18.4882   -8.6953    9.3359 C   0  0  0  0  0  0  0  0  0  0  0  0
   17.5556   -8.8982    8.3140 C   0  0  0  0  0  0  0  0  0  0  0  0
   17.7855   -8.3949    7.0778 F   0  0  0  0  0  0  0  0  0  0  0  0
   16.3867   -9.6224    8.5675 C   0  0  0  0  0  0  0  0  0  0  0  0
   16.1491  -10.1418    9.8436 C   0  0  0  0  0  0  0  0  0  0  0  0
 18 19  1  0  0  0
 19 17  1  0  0  0
 17  5  1  0  0  0
  5  6  2  0  0  0
  6  7  1  0  0  0
  7 12  1  0  0  0
  7  8  2  0  0  0
 12 13  1  0  0  0
 13 14  1  0  0  0
 13 15  2  0  0  0
  8  9  1  0  0  0
  8 10  1  0  0  0
 10 11  2  0  0  0
 11  1  1  0  0  0
 11  5  1  0  0  0
  1  2  2  0  0  0
  1  3  1  0  0  0
  3 20  1  0  0  0
 21 20  1  0  0  0
 21 22  1  0  0  0
 22 23  1  0  0  0
 23 27  1  0  0  0
 23 24  1  0  0  0
 27 28  1  0  0  0
 28 29  2  0  0  0
 29 30  1  0  0  0
 30 31  2  0  0  0
 31 32  1  0  0  0
 31 33  1  0  0  0
 33 34  2  0  0  0
 34 28  1  0  0  0
 24 25  1  0  0  0
 25 26  1  0  0  0
 26 21  1  0  0  0
 12 16  1  0  0  0
  3  4  1  0  0  0
M  END
>  <minimizedAffinity>
-8.32870

>  <minimizedRMSD>
1.66230

$$$$
CHEMBL1504636 2750739 MCULE-5724256062 MolPort-002-794-773 PubChem-3237401 ZINC000002750739


 29 29  0  0  0  0  0  0  0  0999 V2000
   15.7402   -8.4224   18.4764 N   0  0  0  0  0  0  0  0  0  0  0  0
   15.9460   -8.4436   17.0578 C   0  0  0  0  0  0  0  0  0  0  0  0
   15.3714   -7.6168   16.3008 O   0  0  0  0  0  0  0  0  0  0  0  0
   16.2336   -9.0913   19.0040 H   0  0  0  0  0  0  0  0  0  0  0  0
   14.7839   -6.1672   22.7160 C   0  0  0  0  0  0  0  0  0  0  0  0
   14.3760   -6.4118   21.3016 C   0  0  0  0  0  0  0  0  0  0  0  0
   15.1754   -7.2732   20.5462 C   0  0  0  0  0  0  0  0  0  0  0  0
   14.8900   -7.5277   19.2063 C   0  0  0  0  0  0  0  0  0  0  0  0
   13.7868   -6.9059   18.6147 C   0  0  0  0  0  0  0  0  0  0  0  0
   12.9746   -6.0363   19.3456 C   0  0  0  0  0  0  0  0  0  0  0  0
   11.7963   -5.4495   18.6422 C   0  0  0  0  0  0  0  0  0  0  0  0
   13.2565   -5.7741   20.7105 C   0  0  0  0  0  0  0  0  0  0  0  0
   12.3990   -4.8542   21.5053 C   0  0  0  0  0  0  0  0  0  0  0  0
   11.2964   -5.3377   22.2000 O   0  0  0  0  0  0  0  0  0  0  0  0
   12.6579   -3.6229   21.5603 O   0  0  0  0  0  0  0  0  0  0  0  0
   11.0879   -6.2508   22.1710 H   0  0  0  0  0  0  0  0  0  0  0  0
   16.8817   -9.4404   16.4725 C   0  0  0  0  0  0  0  0  0  0  0  0
   17.8959   -8.7372   15.5877 C   0  0  0  0  0  0  0  0  0  0  0  0
   18.7370   -9.7522   14.8302 C   0  0  0  0  0  0  0  0  0  0  0  0
   18.0081  -10.2767   13.6381 C   0  0  0  0  0  0  0  0  0  0  0  0
   17.2217  -11.2554   13.7591 O   0  0  0  0  0  0  0  0  0  0  0  0
   18.2173   -9.6777   12.3945 O   0  0  0  0  0  0  0  0  0  0  0  0
   17.1797   -9.5427   11.4296 C   0  0  0  0  0  0  0  0  0  0  0  0
   17.7538   -9.2383   10.0508 C   0  0  0  0  0  0  0  0  0  0  0  0
   18.9117   -9.9681    9.8456 F   0  0  0  0  0  0  0  0  0  0  0  0
   18.0456   -7.8884    9.9672 F   0  0  0  0  0  0  0  0  0  0  0  0
   16.7288   -9.5964    8.9830 C   0  0  0  0  0  0  0  0  0  0  0  0
   17.2806  -10.4754    8.0684 F   0  0  0  0  0  0  0  0  0  0  0  0
   15.6114  -10.1767    9.5581 F   0  0  0  0  0  0  0  0  0  0  0  0
  5  6  1  0  0  0
  6  7  2  0  0  0
  7  8  1  0  0  0
  8  1  1  0  0  0
  8  9  2  0  0  0
  1  2  1  0  0  0
  2  3  2  0  0  0
  2 17  1  0  0  0
 17 18  1  0  0  0
 18 19  1  0  0  0
 19 20  1  0  0  0
 20 21  2  0  0  0
 20 22  1  0  0  0
 22 23  1  0  0  0
 23 24  1  0  0  0
 24 25  1  0  0  0
 24 26  1  0  0  0
 24 27  1  0  0  0
 27 28  1  0  0  0
 27 29  1  0  0  0
  9 10  1  0  0  0
 10 11  1  0  0  0
 10 12  2  0  0  0
 12 13  1  0  0  0
 12  6  1  0  0  0
 13 14  1  0  0  0
 13 15  2  0  0  0
  1  4  1  0  0  0
 14 16  1  0  0  0
M  END
>  <minimizedAffinity>
-8.32570

>  <minimizedRMSD>
1.91165

$$$$
CHEMBL1982090 LN00971869 MolPort-001-919-923 PubChem-6872188 ZINC00793821


 33 35  0  0  0  0  0  0  0  0999 V2000
   16.6438   -9.3377   16.7799 C   0  0  0  0  0  0  0  0  0  0  0  0
   16.5770   -8.9948   15.4192 C   0  0  0  0  0  0  0  0  0  0  0  0
   17.1077   -9.8424   14.4423 C   0  0  0  0  0  0  0  0  0  0  0  0
   17.7129  -11.0467   14.8265 C   0  0  0  0  0  0  0  0  0  0  0  0
   17.7842  -11.3957   16.1773 C   0  0  0  0  0  0  0  0  0  0  0  0
   17.2513  -10.5433   17.1481 C   0  0  0  0  0  0  0  0  0  0  0  0
   17.0181   -9.4488   13.0324 C   0  0  0  0  0  0  0  0  0  0  0  0
   17.6444  -10.1011   12.1090 N   0  0  0  0  0  0  0  0  0  0  0  0
   17.5381   -9.6985   10.7731 N   0  0  0  0  0  0  0  0  0  0  0  0
   18.6178   -9.0327   10.1157 C   0  0  0  0  0  0  0  0  0  0  0  0
   19.6870   -8.8022   10.7438 O   0  0  0  0  0  0  0  0  0  0  0  0
   16.7059   -9.8768   10.2782 H   0  0  0  0  0  0  0  0  0  0  0  0
   18.4831   -8.6170    8.7090 C   0  0  0  0  0  0  0  0  0  0  0  0
   17.6545   -9.3269    7.8306 C   0  0  0  0  0  0  0  0  0  0  0  0
   17.5352   -8.9373    6.5328 N   0  0  0  0  0  0  0  0  0  0  0  0
   18.2074   -7.8590    6.0481 C   0  0  0  0  0  0  0  0  0  0  0  0
   19.0448   -7.1212    6.8868 C   0  0  0  0  0  0  0  0  0  0  0  0
   19.1807   -7.5048    8.2218 C   0  0  0  0  0  0  0  0  0  0  0  0
   16.1243   -8.5178   17.7936 O   0  0  0  0  0  0  0  0  0  0  0  0
   14.9159   -7.8030   17.7498 C   0  0  0  0  0  0  0  0  0  0  0  0
   14.3698   -7.5119   16.6504 O   0  0  0  0  0  0  0  0  0  0  0  0
   12.4479   -6.3008   20.2000 C   0  0  0  0  0  0  0  0  0  0  0  0
   13.0642   -6.7004   19.0035 C   0  0  0  0  0  0  0  0  0  0  0  0
   14.2796   -7.3893   19.0110 C   0  0  0  0  0  0  0  0  0  0  0  0
   14.8875   -7.6830   20.2323 C   0  0  0  0  0  0  0  0  0  0  0  0
   14.2945   -7.2960   21.4426 C   0  0  0  0  0  0  0  0  0  0  0  0
   13.0719   -6.6028   21.4375 C   0  0  0  0  0  0  0  0  0  0  0  0
   11.0077   -4.4744   19.3391 C   0  0  0  0  0  0  0  0  0  0  0  0
   11.2303   -5.6111   20.1633 O   0  0  0  0  0  0  0  0  0  0  0  0
   14.9042   -7.5906   22.6676 O   0  0  0  0  0  0  0  0  0  0  0  0
   15.9974   -6.8435   23.1839 C   0  0  0  0  0  0  0  0  0  0  0  0
   12.5297   -6.2436   22.6833 O   0  0  0  0  0  0  0  0  0  0  0  0
   12.6516   -4.9644   23.2883 C   0  0  0  0  0  0  0  0  0  0  0  0
 28 29  1  0  0  0
 29 22  1  0  0  0
 22 23  2  0  0  0
 23 24  1  0  0  0
 24 25  2  0  0  0
 25 26  1  0  0  0
 26 30  1  0  0  0
 30 31  1  0  0  0
 26 27  2  0  0  0
 27 32  1  0  0  0
 32 33  1  0  0  0
 24 20  1  0  0  0
 20 21  2  0  0  0
 20 19  1  0  0  0
 19  1  1  0  0  0
  1  2  2  0  0  0
  2  3  1  0  0  0
  3  7  1  0  0  0
  7  8  2  0  0  0
  8  9  1  0  0  0
  9 10  1  0  0  0
 10 11  2  0  0  0
 10 13  1  0  0  0
 13 14  2  0  0  0
 14 15  1  0  0  0
 15 16  2  0  0  0
 16 17  1  0  0  0
 17 18  2  0  0  0
  3  4  2  0  0  0
  4  5  1  0  0  0
  5  6  2  0  0  0
 27 22  1  0  0  0
  6  1  1  0  0  0
 18 13  1  0  0  0
  9 12  1  0  0  0
M  END
>  <minimizedAffinity>
-8.31376

>  <minimizedRMSD>
1.52858

$$$$
CHEMBL3344424 PubChem-118717782


 35 38  0  0  0  0  0  0  0  0999 V2000
   16.9456   -9.5974   16.1361 N   0  0  0  0  0  0  0  0  0  0  0  0
   16.5131   -9.2260   17.3021 O   0  0  0  0  0  0  0  0  0  0  0  0
   15.5077   -8.3956   17.1589 C   0  0  0  0  0  0  0  0  0  0  0  0
   15.2249   -8.1769   15.8588 N   0  0  0  0  0  0  0  0  0  0  0  0
   16.1539   -8.9503   15.2586 C   0  0  0  0  0  0  0  0  0  0  0  0
   16.2774   -9.0789   13.8378 N   0  0  0  0  0  0  0  0  0  0  0  0
   17.5695   -8.8641   13.1895 C   0  0  0  0  0  0  0  0  0  0  0  0
   17.7827   -9.9193   12.1096 C   0  0  0  0  0  0  0  0  0  0  0  0
   16.5946   -9.9936   11.2624 N   0  0  0  0  0  0  0  0  0  0  0  0
   15.3157  -10.2498   11.9192 C   0  0  0  0  0  0  0  0  0  0  0  0
   15.0828   -9.2025   13.0044 C   0  0  0  0  0  0  0  0  0  0  0  0
   16.6517   -9.7979    9.8365 C   0  0  0  0  0  0  0  0  0  0  0  0
   15.5960   -9.8812    9.1536 O   0  0  0  0  0  0  0  0  0  0  0  0
   17.9312   -9.4891    9.1150 C   0  0  0  0  0  0  0  0  0  0  0  0
   17.7442   -9.4259    7.6098 C   0  0  0  0  0  0  0  0  0  0  0  0
   18.4845   -8.1877    7.1345 C   0  0  0  0  0  0  0  0  0  0  0  0
   19.2612   -7.6606    8.3247 C   0  0  0  0  0  0  0  0  0  0  0  0
   18.5309   -8.1686    9.5457 C   0  0  0  0  0  0  0  0  0  0  0  0
   14.7791   -7.7805   18.2766 C   0  0  0  0  0  0  0  0  0  0  0  0
   13.6699   -6.9662   18.0366 C   0  0  0  0  0  0  0  0  0  0  0  0
   12.9776   -6.3813   19.0983 C   0  0  0  0  0  0  0  0  0  0  0  0
   13.3942   -6.5898   20.4245 C   0  0  0  0  0  0  0  0  0  0  0  0
   14.5066   -7.4354   20.6679 C   0  0  0  0  0  0  0  0  0  0  0  0
   15.1842   -8.0170   19.5924 C   0  0  0  0  0  0  0  0  0  0  0  0
   15.0509   -7.8823   22.2780 Cl  0  0  0  0  0  0  0  0  0  0  0  0
   11.5970   -5.3585   18.7404 Cl  0  0  0  0  0  0  0  0  0  0  0  0
   12.6686   -5.9546   21.4459 O   0  0  0  0  0  0  0  0  0  0  0  0
   13.1924   -5.6195   22.7257 C   0  0  0  0  0  0  0  0  0  0  0  0
   14.1080   -4.4116   22.6244 C   0  0  0  0  0  0  0  0  0  0  0  0
   13.4473   -3.3589   21.8712 N   0  0  0  0  0  0  0  0  0  0  0  0
   12.5850   -3.0911   22.3458 H   0  0  0  0  0  0  0  0  0  0  0  0
   13.2286   -3.6972   20.9341 H   0  0  0  0  0  0  0  0  0  0  0  0
   14.4373   -3.9149   24.0187 C   0  0  0  0  0  0  0  0  0  0  0  0
   15.4710   -2.9803   23.9582 O   0  0  0  0  0  0  0  0  0  0  0  0
   16.2596   -3.3948   23.5746 H   0  0  0  0  0  0  0  0  0  0  0  0
  1  2  1  0  0  0
  2  3  1  0  0  0
  3  4  2  0  0  0
  4  5  1  0  0  0
  5  6  1  0  0  0
  6  7  1  0  0  0
  7  8  1  0  0  0
  8  9  1  0  0  0
  9 10  1  0  0  0
 10 11  1  0  0  0
  9 12  1  0  0  0
 12 13  2  0  0  0
 12 14  1  0  0  0
 14 15  1  0  0  0
 15 16  1  0  0  0
 16 17  1  0  0  0
 17 18  1  0  0  0
  3 19  1  0  0  0
 19 20  2  0  0  0
 20 21  1  0  0  0
 21 22  2  0  0  0
 22 23  1  0  0  0
 23 24  2  0  0  0
 23 25  1  0  0  0
 22 27  1  0  0  0
 27 28  1  0  0  0
 29 28  1  0  0  0
 29 33  1  0  0  0
 33 34  1  0  0  0
 29 30  1  0  0  0
 21 26  1  0  0  0
  5  1  2  0  0  0
 11  6  1  0  0  0
 18 14  1  0  0  0
 24 19  1  0  0  0
 34 35  1  0  0  0
 30 31  1  0  0  0
 30 32  1  0  0  0
M  END
>  <minimizedAffinity>
-8.30426

>  <minimizedRMSD>
1.83515

$$$$
CHEMBL1544312 9519388 ChemDiv-E244-0507 MCULE-6113541079 MolPort-003-085-652 PubChem-16801363 ZINC000009519388 ZINC09519388


 36 39  0  0  0  0  0  0  0  0999 V2000
   14.1666   -7.4202   17.8996 C   0  0  0  0  0  0  0  0  0  0  0  0
   13.2480   -7.0346   17.1274 O   0  0  0  0  0  0  0  0  0  0  0  0
   13.9850   -7.2750   19.3621 C   0  0  0  0  0  0  0  0  0  0  0  0
   14.7116   -7.9192   20.3657 C   0  0  0  0  0  0  0  0  0  0  0  0
   14.2507   -7.5250   21.5752 N   0  0  0  0  0  0  0  0  0  0  0  0
   13.2612   -6.6421   21.3575 C   0  0  0  0  0  0  0  0  0  0  0  0
   12.4994   -5.9598   22.3072 C   0  0  0  0  0  0  0  0  0  0  0  0
   11.5119   -5.0759   21.8374 C   0  0  0  0  0  0  0  0  0  0  0  0
   11.3113   -4.8951   20.4521 C   0  0  0  0  0  0  0  0  0  0  0  0
   12.0960   -5.5955   19.5188 C   0  0  0  0  0  0  0  0  0  0  0  0
   13.0674   -6.4665   20.0128 C   0  0  0  0  0  0  0  0  0  0  0  0
   14.7850   -7.9437   22.8634 C   0  0  0  0  0  0  0  0  0  0  0  0
   15.2293   -6.7509   23.6492 C   0  0  0  0  0  0  0  0  0  0  0  0
   14.5158   -6.3582   24.6110 O   0  0  0  0  0  0  0  0  0  0  0  0
   16.4313   -6.0441   23.3065 N   0  0  0  0  0  0  0  0  0  0  0  0
   16.7535   -4.7883   23.9862 C   0  0  0  0  0  0  0  0  0  0  0  0
   18.2682   -4.5826   23.9933 C   0  0  0  0  0  0  0  0  0  0  0  0
   18.7707   -4.6920   22.6854 O   0  0  0  0  0  0  0  0  0  0  0  0
   18.6788   -6.0512   22.3409 C   0  0  0  0  0  0  0  0  0  0  0  0
   17.2143   -6.4359   22.1327 C   0  0  0  0  0  0  0  0  0  0  0  0
   15.6508   -7.8125   15.9157 N   0  0  0  0  0  0  0  0  0  0  0  0
   15.3877   -8.0017   17.3075 C   0  0  0  0  0  0  0  0  0  0  0  0
   16.1971   -8.6607   18.0150 O   0  0  0  0  0  0  0  0  0  0  0  0
   15.0115   -7.2928   15.3767 H   0  0  0  0  0  0  0  0  0  0  0  0
   16.8324   -8.3627   15.2693 C   0  0  0  0  0  0  0  0  0  0  0  0
   16.5372   -9.7568   14.7372 C   0  0  0  0  0  0  0  0  0  0  0  0
   16.2303   -9.7092   10.4433 C   0  0  0  0  0  0  0  0  0  0  0  0
   15.0912   -9.8606   11.2431 C   0  0  0  0  0  0  0  0  0  0  0  0
   15.1887   -9.8811   12.6347 C   0  0  0  0  0  0  0  0  0  0  0  0
   16.4345   -9.7525   13.2489 C   0  0  0  0  0  0  0  0  0  0  0  0
   17.5806   -9.5966   12.4669 C   0  0  0  0  0  0  0  0  0  0  0  0
   17.4984   -9.5741   11.0637 C   0  0  0  0  0  0  0  0  0  0  0  0
   16.8847  -10.3412    8.1115 C   0  0  0  0  0  0  0  0  0  0  0  0
   16.0368   -9.7005    9.0536 O   0  0  0  0  0  0  0  0  0  0  0  0
   18.6574   -9.4188   10.2944 O   0  0  0  0  0  0  0  0  0  0  0  0
   19.0544   -8.1738    9.7348 C   0  0  0  0  0  0  0  0  0  0  0  0
 33 34  1  0  0  0
 34 27  1  0  0  0
 27 28  2  0  0  0
 28 29  1  0  0  0
 29 30  2  0  0  0
 30 26  1  0  0  0
 30 31  1  0  0  0
 26 25  1  0  0  0
 25 21  1  0  0  0
 21 22  1  0  0  0
 22 23  2  0  0  0
 22  1  1  0  0  0
  1  2  2  0  0  0
  1  3  1  0  0  0
  3  4  2  0  0  0
  4  5  1  0  0  0
  5 12  1  0  0  0
  5  6  1  0  0  0
 12 13  1  0  0  0
 13 14  2  0  0  0
 13 15  1  0  0  0
 15 16  1  0  0  0
 16 17  1  0  0  0
 17 18  1  0  0  0
 18 19  1  0  0  0
 19 20  1  0  0  0
 20 15  1  0  0  0
  6  7  2  0  0  0
  7  8  1  0  0  0
  8  9  2  0  0  0
  9 10  1  0  0  0
 10 11  2  0  0  0
 11  3  1  0  0  0
 11  6  1  0  0  0
 31 32  2  0  0  0
 32 35  1  0  0  0
 32 27  1  0  0  0
 35 36  1  0  0  0
 21 24  1  0  0  0
M  END
>  <minimizedAffinity>
-8.29712

>  <minimizedRMSD>
1.75871

$$$$
CHEMBL3673587 PubChem-89592385


 32 36  0  0  0  0  0  0  0  0999 V2000
   16.6957   -8.8874   17.2645 N   0  0  0  0  0  0  0  0  0  0  0  0
   15.5637   -8.0144   17.3985 C   0  0  0  0  0  0  0  0  0  0  0  0
   15.0129   -7.5132   16.3812 O   0  0  0  0  0  0  0  0  0  0  0  0
   17.0779   -9.2445   18.0985 H   0  0  0  0  0  0  0  0  0  0  0  0
   15.0370   -7.6985   18.7348 C   0  0  0  0  0  0  0  0  0  0  0  0
   14.0520   -6.7578   18.8730 N   0  0  0  0  0  0  0  0  0  0  0  0
   13.5704   -6.4762   20.1111 C   0  0  0  0  0  0  0  0  0  0  0  0
   14.0419   -7.0930   21.2287 C   0  0  0  0  0  0  0  0  0  0  0  0
   15.0412   -8.0556   21.1539 C   0  0  0  0  0  0  0  0  0  0  0  0
   15.5443   -8.3623   19.8782 C   0  0  0  0  0  0  0  0  0  0  0  0
   13.3783   -6.5759   22.3187 C   0  0  0  0  0  0  0  0  0  0  0  0
   12.5025   -5.6259   21.7715 C   0  0  0  0  0  0  0  0  0  0  0  0
   12.6169   -5.5826   20.4104 N   0  0  0  0  0  0  0  0  0  0  0  0
   12.0279   -4.6745   19.4316 C   0  0  0  0  0  0  0  0  0  0  0  0
   10.5807   -4.3756   19.7345 C   0  0  0  0  0  0  0  0  0  0  0  0
   10.5565   -3.3239   20.8123 C   0  0  0  0  0  0  0  0  0  0  0  0
   10.5773   -3.9426   22.1246 N   0  0  0  0  0  0  0  0  0  0  0  0
   11.5590   -4.8567   22.6262 C   0  0  0  0  0  0  0  0  0  0  0  0
   11.5862   -5.0582   23.8695 O   0  0  0  0  0  0  0  0  0  0  0  0
    9.8397   -3.7098   22.7336 H   0  0  0  0  0  0  0  0  0  0  0  0
   17.2718   -9.7499   13.6471 C   0  0  0  0  0  0  0  0  0  0  0  0
   16.6293   -9.3487   14.8281 C   0  0  0  0  0  0  0  0  0  0  0  0
   17.3279   -9.2937   16.0432 C   0  0  0  0  0  0  0  0  0  0  0  0
   18.6812   -9.6445   16.0700 C   0  0  0  0  0  0  0  0  0  0  0  0
   19.3310  -10.0454   14.9001 C   0  0  0  0  0  0  0  0  0  0  0  0
   18.6289  -10.0979   13.6935 C   0  0  0  0  0  0  0  0  0  0  0  0
   16.7429   -9.8421    8.7107 C   0  0  0  0  0  0  0  0  0  0  0  0
   16.3206   -9.8472   10.1355 C   0  0  0  0  0  0  0  0  0  0  0  0
   17.1807   -9.7866   11.1699 N   0  0  0  0  0  0  0  0  0  0  0  0
   16.5345   -9.8069   12.3701 C   0  0  0  0  0  0  0  0  0  0  0  0
   15.1388   -9.8848   12.3019 C   0  0  0  0  0  0  0  0  0  0  0  0
   14.7359   -9.9279   10.6668 S   0  0  0  0  0  0  0  0  0  0  0  0
 27 28  1  0  0  0
 28 29  2  0  0  0
 29 30  1  0  0  0
 30 31  2  0  0  0
 30 21  1  0  0  0
 31 32  1  0  0  0
 32 28  1  0  0  0
 21 22  2  0  0  0
 22 23  1  0  0  0
 23 24  2  0  0  0
 23  1  1  0  0  0
 24 25  1  0  0  0
 25 26  2  0  0  0
 26 21  1  0  0  0
  1  2  1  0  0  0
  2  3  2  0  0  0
  2  5  1  0  0  0
  5  6  2  0  0  0
  6  7  1  0  0  0
  7  8  2  0  0  0
  8  9  1  0  0  0
  8 11  1  0  0  0
  9 10  2  0  0  0
 10  5  1  0  0  0
 11 12  2  0  0  0
 12 13  1  0  0  0
 13 14  1  0  0  0
 13  7  1  0  0  0
 14 15  1  0  0  0
 15 16  1  0  0  0
 16 17  1  0  0  0
 17 18  1  0  0  0
 18 19  2  0  0  0
 18 12  1  0  0  0
  1  4  1  0  0  0
 17 20  1  0  0  0
M  END
>  <minimizedAffinity>
-8.29556

>  <minimizedRMSD>
1.69260

$$$$
CHEMBL3189279 ChemDiv-5617-0547 MolPort-003-841-392 PubChem-20846947 ZINC03213573


 36 38  0  0  0  0  0  0  0  0999 V2000
   12.6681   -5.5433   21.6626 C   0  0  0  0  0  0  0  0  0  0  0  0
   12.5788   -5.9257   20.3306 C   0  0  0  0  0  0  0  0  0  0  0  0
   11.4324   -5.6780   19.4055 C   0  0  0  0  0  0  0  0  0  0  0  0
   13.7543   -6.5928   20.0259 C   0  0  0  0  0  0  0  0  0  0  0  0
   14.4998   -6.5817   21.1964 C   0  0  0  0  0  0  0  0  0  0  0  0
   15.8509   -7.1787   21.3915 C   0  0  0  0  0  0  0  0  0  0  0  0
   13.8438   -5.9470   22.1866 N   0  0  0  0  0  0  0  0  0  0  0  0
   14.1593   -5.8057   23.1084 H   0  0  0  0  0  0  0  0  0  0  0  0
   11.9627   -4.0589   23.6144 N   0  0  0  0  0  0  0  0  0  0  0  0
   11.6397   -4.8028   22.4338 C   0  0  0  0  0  0  0  0  0  0  0  0
   10.4421   -4.8151   22.0453 O   0  0  0  0  0  0  0  0  0  0  0  0
   11.2350   -3.6098   24.1022 H   0  0  0  0  0  0  0  0  0  0  0  0
   13.6241   -4.5895   25.1657 C   0  0  0  0  0  0  0  0  0  0  0  0
   13.2687   -3.9433   24.1041 N   0  0  0  0  0  0  0  0  0  0  0  0
   17.5720   -4.2764   26.7781 C   0  0  0  0  0  0  0  0  0  0  0  0
   17.3872   -4.3259   25.3928 C   0  0  0  0  0  0  0  0  0  0  0  0
   16.1006   -4.4285   24.8559 C   0  0  0  0  0  0  0  0  0  0  0  0
   14.9844   -4.4842   25.7032 C   0  0  0  0  0  0  0  0  0  0  0  0
   15.1663   -4.4361   27.0882 C   0  0  0  0  0  0  0  0  0  0  0  0
   16.4525   -4.3322   27.6251 C   0  0  0  0  0  0  0  0  0  0  0  0
   19.1589   -3.5776   28.5426 C   0  0  0  0  0  0  0  0  0  0  0  0
   18.8705   -4.1717   27.2840 O   0  0  0  0  0  0  0  0  0  0  0  0
   14.1276   -7.1926   18.7251 C   0  0  0  0  0  0  0  0  0  0  0  0
   13.3678   -7.0455   17.7306 O   0  0  0  0  0  0  0  0  0  0  0  0
   15.3480   -7.9412   18.6038 N   0  0  0  0  0  0  0  0  0  0  0  0
   15.8939   -8.0426   19.4168 H   0  0  0  0  0  0  0  0  0  0  0  0
   15.8339   -8.5429   17.4266 N   0  0  0  0  0  0  0  0  0  0  0  0
   15.9994   -7.9023   16.3123 C   0  0  0  0  0  0  0  0  0  0  0  0
   16.5087   -8.5729   15.1118 C   0  0  0  0  0  0  0  0  0  0  0  0
   15.8129   -8.4308   13.9070 C   0  0  0  0  0  0  0  0  0  0  0  0
   16.2802   -9.0553   12.7471 C   0  0  0  0  0  0  0  0  0  0  0  0
   17.4517   -9.8295   12.7826 C   0  0  0  0  0  0  0  0  0  0  0  0
   18.1465   -9.9690   13.9892 C   0  0  0  0  0  0  0  0  0  0  0  0
   17.6793   -9.3439   15.1490 C   0  0  0  0  0  0  0  0  0  0  0  0
   17.9438  -10.4664   11.6398 O   0  0  0  0  0  0  0  0  0  0  0  0
   18.1461   -9.7863   10.4085 C   0  0  0  0  0  0  0  0  0  0  0  0
 21 22  1  0  0  0
 22 15  1  0  0  0
 15 16  2  0  0  0
 16 17  1  0  0  0
 17 18  2  0  0  0
 18 13  1  0  0  0
 18 19  1  0  0  0
 13 14  2  0  0  0
 14  9  1  0  0  0
  9 10  1  0  0  0
 10 11  2  0  0  0
 10  1  1  0  0  0
  1  2  2  0  0  0
  2  3  1  0  0  0
  2  4  1  0  0  0
  4 23  1  0  0  0
  4  5  2  0  0  0
 23 24  2  0  0  0
 23 25  1  0  0  0
 25 27  1  0  0  0
 27 28  2  0  0  0
 28 29  1  0  0  0
 29 30  2  0  0  0
 30 31  1  0  0  0
 31 32  2  0  0  0
 32 35  1  0  0  0
 32 33  1  0  0  0
 35 36  1  0  0  0
 33 34  2  0  0  0
 34 29  1  0  0  0
  5  6  1  0  0  0
  5  7  1  0  0  0
  7  1  1  0  0  0
 19 20  2  0  0  0
 20 15  1  0  0  0
  9 12  1  0  0  0
 25 26  1  0  0  0
  7  8  1  0  0  0
M  END
>  <minimizedAffinity>
-8.29316

>  <minimizedRMSD>
1.83530

$$$$
CHEMBL3608325 PubChem-122186806


 33 35  0  0  0  0  0  0  0  0999 V2000
   15.8707   -7.7773   15.5639 N   0  0  0  0  0  0  0  0  0  0  0  0
   15.6803   -8.9336   15.0214 C   0  0  0  0  0  0  0  0  0  0  0  0
   16.4359   -9.3318   13.8348 C   0  0  0  0  0  0  0  0  0  0  0  0
   16.1051   -8.9803   12.5433 C   0  0  0  0  0  0  0  0  0  0  0  0
   17.0945   -9.5809   11.7836 C   0  0  0  0  0  0  0  0  0  0  0  0
   17.9530  -10.2494   12.6390 C   0  0  0  0  0  0  0  0  0  0  0  0
   17.5188  -10.0727   13.8641 O   0  0  0  0  0  0  0  0  0  0  0  0
   17.2122   -9.5199   10.3151 C   0  0  0  0  0  0  0  0  0  0  0  0
   16.5284  -10.4414    9.5094 C   0  0  0  0  0  0  0  0  0  0  0  0
   16.6399  -10.3826    8.1181 C   0  0  0  0  0  0  0  0  0  0  0  0
   17.4362   -9.4018    7.5218 C   0  0  0  0  0  0  0  0  0  0  0  0
   18.1266   -8.4735    8.3132 C   0  0  0  0  0  0  0  0  0  0  0  0
   18.0097   -8.5390    9.7080 C   0  0  0  0  0  0  0  0  0  0  0  0
   18.9670   -7.4382    7.6907 C   0  0  0  0  0  0  0  0  0  0  0  0
   18.6735   -6.2190    7.8120 O   0  0  0  0  0  0  0  0  0  0  0  0
   20.0943   -7.7968    6.9607 O   0  0  0  0  0  0  0  0  0  0  0  0
   20.3220   -8.7006    6.8642 H   0  0  0  0  0  0  0  0  0  0  0  0
   15.4309   -7.9778   17.9783 C   0  0  0  0  0  0  0  0  0  0  0  0
   16.3603   -8.8231   18.0916 O   0  0  0  0  0  0  0  0  0  0  0  0
   15.1417   -7.4089   16.7000 N   0  0  0  0  0  0  0  0  0  0  0  0
   14.4177   -6.7469   16.6171 H   0  0  0  0  0  0  0  0  0  0  0  0
   12.7173   -6.4544   20.1286 C   0  0  0  0  0  0  0  0  0  0  0  0
   13.4718   -6.8393   19.0113 C   0  0  0  0  0  0  0  0  0  0  0  0
   14.6465   -7.5790   19.1598 C   0  0  0  0  0  0  0  0  0  0  0  0
   15.0672   -7.9360   20.4433 C   0  0  0  0  0  0  0  0  0  0  0  0
   14.3314   -7.5645   21.5798 C   0  0  0  0  0  0  0  0  0  0  0  0
   13.1392   -6.8127   21.4205 C   0  0  0  0  0  0  0  0  0  0  0  0
   11.3992   -4.6746   19.0185 C   0  0  0  0  0  0  0  0  0  0  0  0
   11.5397   -5.7126   19.9792 O   0  0  0  0  0  0  0  0  0  0  0  0
   14.7765   -7.9367   22.8537 O   0  0  0  0  0  0  0  0  0  0  0  0
   15.7082   -7.1690   23.6045 C   0  0  0  0  0  0  0  0  0  0  0  0
   12.3392   -6.3964   22.4982 O   0  0  0  0  0  0  0  0  0  0  0  0
   12.5381   -5.2089   23.2515 C   0  0  0  0  0  0  0  0  0  0  0  0
 28 29  1  0  0  0
 29 22  1  0  0  0
 22 23  2  0  0  0
 23 24  1  0  0  0
 24 18  1  0  0  0
 18 19  2  0  0  0
 18 20  1  0  0  0
 20  1  1  0  0  0
  1  2  2  0  0  0
  2  3  1  0  0  0
  3  4  2  0  0  0
  4  5  1  0  0  0
  5  8  1  0  0  0
  8  9  2  0  0  0
  9 10  1  0  0  0
 10 11  2  0  0  0
 11 12  1  0  0  0
 12 14  1  0  0  0
 14 15  2  0  0  0
 14 16  1  0  0  0
 12 13  2  0  0  0
  5  6  2  0  0  0
  6  7  1  0  0  0
 24 25  2  0  0  0
 25 26  1  0  0  0
 26 30  1  0  0  0
 30 31  1  0  0  0
 26 27  2  0  0  0
 27 32  1  0  0  0
 32 33  1  0  0  0
 27 22  1  0  0  0
  7  3  1  0  0  0
 13  8  1  0  0  0
 20 21  1  0  0  0
 16 17  1  0  0  0
M  END
>  <minimizedAffinity>
-8.28737

>  <minimizedRMSD>
1.90959

$$$$
CHEMBL2347191 PubChem-53240812


 37 39  0  0  0  0  0  0  0  0999 V2000
   13.9957   -6.3243   21.2991 C   0  0  0  0  0  0  0  0  0  0  0  0
   14.3519   -6.8773   20.0531 C   0  0  0  0  0  0  0  0  0  0  0  0
   15.6634   -7.2812   19.7737 C   0  0  0  0  0  0  0  0  0  0  0  0
   16.6471   -7.1200   20.7486 C   0  0  0  0  0  0  0  0  0  0  0  0
   16.3273   -6.5581   21.9838 C   0  0  0  0  0  0  0  0  0  0  0  0
   15.0188   -6.1547   22.2634 C   0  0  0  0  0  0  0  0  0  0  0  0
   14.7756   -5.5961   23.4726 F   0  0  0  0  0  0  0  0  0  0  0  0
   11.5790   -6.8168   20.8394 C   0  0  0  0  0  0  0  0  0  0  0  0
   12.5511   -5.8587   21.5313 C   0  0  0  0  0  0  0  0  0  0  0  0
   12.2242   -5.8984   22.9662 N   0  0  0  0  0  0  0  0  0  0  0  0
   12.0929   -4.8435   23.7165 C   0  0  0  0  0  0  0  0  0  0  0  0
   11.7224   -4.9911   25.0815 N   0  0  0  0  0  0  0  0  0  0  0  0
   12.3116   -3.5658   23.1934 O   0  0  0  0  0  0  0  0  0  0  0  0
   12.8927   -3.3894   21.9057 C   0  0  0  0  0  0  0  0  0  0  0  0
   12.3321   -4.4304   20.9472 C   0  0  0  0  0  0  0  0  0  0  0  0
   12.9520   -4.2971   19.7160 F   0  0  0  0  0  0  0  0  0  0  0  0
   10.9789   -4.1726   20.7854 F   0  0  0  0  0  0  0  0  0  0  0  0
   11.5672   -5.8886   25.4551 H   0  0  0  0  0  0  0  0  0  0  0  0
   11.6212   -4.1958   25.6528 H   0  0  0  0  0  0  0  0  0  0  0  0
   16.0291   -7.8533   18.5107 N   0  0  0  0  0  0  0  0  0  0  0  0
   15.2455   -7.8538   17.3074 C   0  0  0  0  0  0  0  0  0  0  0  0
   14.1065   -7.3141   17.2803 O   0  0  0  0  0  0  0  0  0  0  0  0
   16.9095   -8.2915   18.4637 H   0  0  0  0  0  0  0  0  0  0  0  0
   15.7731   -8.4897   16.0903 C   0  0  0  0  0  0  0  0  0  0  0  0
   16.4415   -9.7181   16.1627 C   0  0  0  0  0  0  0  0  0  0  0  0
   16.9338  -10.3026   14.9952 C   0  0  0  0  0  0  0  0  0  0  0  0
   16.7595   -9.6651   13.7660 C   0  0  0  0  0  0  0  0  0  0  0  0
   16.0852   -8.4362   13.7322 C   0  0  0  0  0  0  0  0  0  0  0  0
   15.6129   -7.8827   14.8812 N   0  0  0  0  0  0  0  0  0  0  0  0
   17.2590  -10.2655   12.6077 O   0  0  0  0  0  0  0  0  0  0  0  0
   16.5719  -10.2202   11.3630 C   0  0  0  0  0  0  0  0  0  0  0  0
   17.4371   -9.5474   10.3093 C   0  0  0  0  0  0  0  0  0  0  0  0
   18.7325  -10.0281   10.3931 F   0  0  0  0  0  0  0  0  0  0  0  0
   17.4418   -8.1811   10.5274 F   0  0  0  0  0  0  0  0  0  0  0  0
   16.8714   -9.8333    8.9245 C   0  0  0  0  0  0  0  0  0  0  0  0
   16.3647   -8.6728    8.3678 F   0  0  0  0  0  0  0  0  0  0  0  0
   17.8535  -10.3472    8.0954 F   0  0  0  0  0  0  0  0  0  0  0  0
  9  8  1  0  0  0
  9  1  1  0  0  0
  9 10  1  0  0  0
  1  2  2  0  0  0
  2  3  1  0  0  0
  3 20  1  0  0  0
  3  4  2  0  0  0
 20 21  1  0  0  0
 21 22  2  0  0  0
 21 24  1  0  0  0
 24 25  2  0  0  0
 25 26  1  0  0  0
 26 27  2  0  0  0
 27 30  1  0  0  0
 27 28  1  0  0  0
 30 31  1  0  0  0
 31 32  1  0  0  0
 32 33  1  0  0  0
 32 34  1  0  0  0
 32 35  1  0  0  0
 35 36  1  0  0  0
 35 37  1  0  0  0
 28 29  2  0  0  0
 29 24  1  0  0  0
  4  5  1  0  0  0
  5  6  2  0  0  0
  6  7  1  0  0  0
  6  1  1  0  0  0
 10 11  2  0  0  0
 11 12  1  0  0  0
 11 13  1  0  0  0
 13 14  1  0  0  0
 14 15  1  0  0  0
 15 16  1  0  0  0
 15 17  1  0  0  0
 15  9  1  0  0  0
 20 23  1  0  0  0
 12 18  1  0  0  0
 12 19  1  0  0  0
M  END
>  <minimizedAffinity>
-8.28146

>  <minimizedRMSD>
1.84917

$$$$
CHEMBL3126629 PubChem-76318199


 36 38  0  0  0  0  0  0  0  0999 V2000
   14.6808   -7.5079   18.4762 C   0  0  0  0  0  0  0  0  0  0  0  0
   13.4654   -6.9585   18.0618 C   0  0  0  0  0  0  0  0  0  0  0  0
   12.6940   -6.1952   18.9399 C   0  0  0  0  0  0  0  0  0  0  0  0
   11.4080   -5.6256   18.4486 C   0  0  0  0  0  0  0  0  0  0  0  0
   13.1333   -5.9549   20.2545 C   0  0  0  0  0  0  0  0  0  0  0  0
   14.3614   -6.5272   20.6806 C   0  0  0  0  0  0  0  0  0  0  0  0
   15.1157   -7.2954   19.7870 C   0  0  0  0  0  0  0  0  0  0  0  0
   16.3754   -9.0726   15.8165 C   0  0  0  0  0  0  0  0  0  0  0  0
   15.5188   -8.1098   16.2116 N   0  0  0  0  0  0  0  0  0  0  0  0
   15.4877   -8.3128   17.5462 C   0  0  0  0  0  0  0  0  0  0  0  0
   16.2775   -9.3355   17.9308 N   0  0  0  0  0  0  0  0  0  0  0  0
   16.8084   -9.7785   16.8326 O   0  0  0  0  0  0  0  0  0  0  0  0
   17.5622   -9.7500   11.7946 C   0  0  0  0  0  0  0  0  0  0  0  0
   16.3314   -9.1392   12.0465 C   0  0  0  0  0  0  0  0  0  0  0  0
   15.9396   -8.9138   13.3667 C   0  0  0  0  0  0  0  0  0  0  0  0
   16.7738   -9.3014   14.4211 C   0  0  0  0  0  0  0  0  0  0  0  0
   17.9957   -9.9153   14.1250 C   0  0  0  0  0  0  0  0  0  0  0  0
   18.3603  -10.1263   12.8316 N   0  0  0  0  0  0  0  0  0  0  0  0
   17.9852  -10.0065   10.3894 C   0  0  0  0  0  0  0  0  0  0  0  0
   17.0402   -9.0287    8.3227 C   0  0  0  0  0  0  0  0  0  0  0  0
   17.8603   -8.7412    9.5623 C   0  0  0  0  0  0  0  0  0  0  0  0
   14.8673   -6.4178   22.0815 C   0  0  0  0  0  0  0  0  0  0  0  0
   14.7920   -7.7653   22.7745 C   0  0  0  0  0  0  0  0  0  0  0  0
   12.3177   -5.1635   21.0842 O   0  0  0  0  0  0  0  0  0  0  0  0
   11.8805   -5.5264   22.3889 C   0  0  0  0  0  0  0  0  0  0  0  0
   12.1058   -4.3776   23.3613 C   0  0  0  0  0  0  0  0  0  0  0  0
   10.8928   -3.7547   23.6609 O   0  0  0  0  0  0  0  0  0  0  0  0
   10.2970   -4.3932   24.0832 H   0  0  0  0  0  0  0  0  0  0  0  0
   12.7766   -4.8707   24.6363 C   0  0  0  0  0  0  0  0  0  0  0  0
   12.1920   -4.2380   25.8109 N   0  0  0  0  0  0  0  0  0  0  0  0
   12.6047   -4.5773   27.1347 C   0  0  0  0  0  0  0  0  0  0  0  0
   13.5080   -5.4350   27.3258 O   0  0  0  0  0  0  0  0  0  0  0  0
   11.4921   -3.5566   25.6883 H   0  0  0  0  0  0  0  0  0  0  0  0
   11.9869   -3.8867   28.2974 C   0  0  0  0  0  0  0  0  0  0  0  0
   11.2874   -2.7636   27.8573 O   0  0  0  0  0  0  0  0  0  0  0  0
   11.8981   -2.1568   27.4105 H   0  0  0  0  0  0  0  0  0  0  0  0
 20 21  1  0  0  0
 21 19  1  0  0  0
 19 13  1  0  0  0
 13 14  2  0  0  0
 14 15  1  0  0  0
 15 16  2  0  0  0
 16  8  1  0  0  0
 16 17  1  0  0  0
  8  9  2  0  0  0
  9 10  1  0  0  0
 10  1  1  0  0  0
 10 11  2  0  0  0
  1  2  2  0  0  0
  2  3  1  0  0  0
  3  4  1  0  0  0
  3  5  2  0  0  0
  5 24  1  0  0  0
  5  6  1  0  0  0
 24 25  1  0  0  0
 26 25  1  0  0  0
 26 27  1  0  0  0
 26 29  1  0  0  0
 29 30  1  0  0  0
 30 31  1  0  0  0
 31 32  2  0  0  0
 31 34  1  0  0  0
 34 35  1  0  0  0
  6 22  1  0  0  0
  6  7  2  0  0  0
 22 23  1  0  0  0
  7  1  1  0  0  0
 11 12  1  0  0  0
 12  8  1  0  0  0
 17 18  2  0  0  0
 18 13  1  0  0  0
 27 28  1  0  0  0
 30 33  1  0  0  0
 35 36  1  0  0  0
M  END
>  <minimizedAffinity>
-8.27967

>  <minimizedRMSD>
1.54382

$$$$
CHEMBL4581193 PubChem-135281259


 34 38  0  0  0  0  0  0  0  0999 V2000
   14.3984   -7.3278   18.6377 C   0  0  0  0  0  0  0  0  0  0  0  0
   15.5806   -7.9992   18.9453 C   0  0  0  0  0  0  0  0  0  0  0  0
   16.0220   -8.5076   17.7871 N   0  0  0  0  0  0  0  0  0  0  0  0
   17.1320   -9.2448   17.5455 C   0  0  0  0  0  0  0  0  0  0  0  0
   17.3717   -9.6601   16.2282 C   0  0  0  0  0  0  0  0  0  0  0  0
   16.4682   -9.3096   15.1966 C   0  0  0  0  0  0  0  0  0  0  0  0
   15.3290   -8.5381   15.5122 C   0  0  0  0  0  0  0  0  0  0  0  0
   15.1450   -8.1557   16.8379 C   0  0  0  0  0  0  0  0  0  0  0  0
   14.1218   -7.4248   17.3117 N   0  0  0  0  0  0  0  0  0  0  0  0
   13.6401   -6.7363   20.9943 C   0  0  0  0  0  0  0  0  0  0  0  0
   12.7777   -6.0056   21.8280 C   0  0  0  0  0  0  0  0  0  0  0  0
   11.8116   -5.1410   21.2949 C   0  0  0  0  0  0  0  0  0  0  0  0
   11.7086   -5.0070   19.9054 C   0  0  0  0  0  0  0  0  0  0  0  0
   12.5607   -5.7285   19.0684 C   0  0  0  0  0  0  0  0  0  0  0  0
   13.5304   -6.5959   19.5911 C   0  0  0  0  0  0  0  0  0  0  0  0
   10.5161   -3.9380   19.1892 Cl  0  0  0  0  0  0  0  0  0  0  0  0
   14.9275   -7.5958   22.9315 C   0  0  0  0  0  0  0  0  0  0  0  0
   14.5978   -7.5943   21.5488 O   0  0  0  0  0  0  0  0  0  0  0  0
   10.9523   -4.4130   22.1253 O   0  0  0  0  0  0  0  0  0  0  0  0
   11.0128   -4.4806   23.5436 C   0  0  0  0  0  0  0  0  0  0  0  0
   16.7109   -9.7309   13.8401 N   0  0  0  0  0  0  0  0  0  0  0  0
   18.0793  -10.0288   13.3938 C   0  0  0  0  0  0  0  0  0  0  0  0
   18.1006  -10.5030   11.9426 C   0  0  0  0  0  0  0  0  0  0  0  0
   17.2751   -9.6156   11.1235 N   0  0  0  0  0  0  0  0  0  0  0  0
   15.9142   -9.2799   11.5618 C   0  0  0  0  0  0  0  0  0  0  0  0
   15.5892   -9.9151   12.9138 C   0  0  0  0  0  0  0  0  0  0  0  0
   17.8247   -9.0307    9.9303 C   0  0  0  0  0  0  0  0  0  0  0  0
   18.9744   -8.2991    9.9946 N   0  0  0  0  0  0  0  0  0  0  0  0
   19.5292   -7.7288    8.8914 C   0  0  0  0  0  0  0  0  0  0  0  0
   18.9216   -7.8834    7.6447 C   0  0  0  0  0  0  0  0  0  0  0  0
   17.7454   -8.6263    7.5459 C   0  0  0  0  0  0  0  0  0  0  0  0
   17.1919   -9.2036    8.6894 C   0  0  0  0  0  0  0  0  0  0  0  0
   19.5014   -7.2844    6.4762 C   0  0  0  0  0  0  0  0  0  0  0  0
   19.9689   -6.8014    5.5341 N   0  0  0  0  0  0  0  0  0  0  0  0
 17 18  1  0  0  0
 18 10  1  0  0  0
 10 11  2  0  0  0
 11 12  1  0  0  0
 12 13  2  0  0  0
 13 14  1  0  0  0
 14 15  2  0  0  0
 15  1  1  0  0  0
  1  2  2  0  0  0
  2  3  1  0  0  0
  3  4  1  0  0  0
  4  5  2  0  0  0
  5  6  1  0  0  0
  6  7  2  0  0  0
  7  8  1  0  0  0
  8  9  2  0  0  0
  6 21  1  0  0  0
 21 22  1  0  0  0
 22 23  1  0  0  0
 23 24  1  0  0  0
 24 25  1  0  0  0
 25 26  1  0  0  0
 24 27  1  0  0  0
 27 28  2  0  0  0
 28 29  1  0  0  0
 29 30  2  0  0  0
 30 31  1  0  0  0
 31 32  2  0  0  0
 30 33  1  0  0  0
 33 34  3  0  0  0
 13 16  1  0  0  0
 12 19  1  0  0  0
 19 20  1  0  0  0
 15 10  1  0  0  0
  9  1  1  0  0  0
  8  3  1  0  0  0
 26 21  1  0  0  0
 32 27  1  0  0  0
M  END
>  <minimizedAffinity>
-8.27881

>  <minimizedRMSD>
1.64052

$$$$
CHEMBL1287986 PubChem-52943660


 35 38  0  0  0  0  0  0  0  0999 V2000
   13.9026   -5.8241   24.0366 C   0  0  0  0  0  0  0  0  0  0  0  0
   14.8329   -6.8470   23.8742 C   0  0  0  0  0  0  0  0  0  0  0  0
   15.0797   -7.3725   22.6162 C   0  0  0  0  0  0  0  0  0  0  0  0
   14.3835   -6.9098   21.4960 C   0  0  0  0  0  0  0  0  0  0  0  0
   13.3911   -5.8978   21.6319 C   0  0  0  0  0  0  0  0  0  0  0  0
   13.1843   -5.3177   22.9255 C   0  0  0  0  0  0  0  0  0  0  0  0
   12.6813   -5.5093   20.5073 N   0  0  0  0  0  0  0  0  0  0  0  0
   13.0121   -6.0042   19.2785 C   0  0  0  0  0  0  0  0  0  0  0  0
   14.0038   -6.9672   19.0987 C   0  0  0  0  0  0  0  0  0  0  0  0
   14.6821   -7.4422   20.2320 C   0  0  0  0  0  0  0  0  0  0  0  0
   15.5650   -8.3382   20.1217 O   0  0  0  0  0  0  0  0  0  0  0  0
   15.5194   -7.3213   24.9426 F   0  0  0  0  0  0  0  0  0  0  0  0
   13.7181   -5.3307   25.2868 F   0  0  0  0  0  0  0  0  0  0  0  0
   14.2802   -7.4495   17.7217 C   0  0  0  0  0  0  0  0  0  0  0  0
   13.3368   -7.5331   16.8878 O   0  0  0  0  0  0  0  0  0  0  0  0
   15.6002   -7.8193   17.3211 N   0  0  0  0  0  0  0  0  0  0  0  0
   16.3387   -7.7538   17.9688 H   0  0  0  0  0  0  0  0  0  0  0  0
   15.8620   -8.2736   16.0216 N   0  0  0  0  0  0  0  0  0  0  0  0
   15.3739   -7.8708   15.2674 H   0  0  0  0  0  0  0  0  0  0  0  0
   16.8174   -9.3054   15.7584 C   0  0  0  0  0  0  0  0  0  0  0  0
   17.1503  -10.4364   16.8947 S   0  0  0  0  0  0  0  0  0  0  0  0
   17.5035   -9.3756   14.5016 N   0  0  0  0  0  0  0  0  0  0  0  0
   18.4839   -9.2929   14.5344 H   0  0  0  0  0  0  0  0  0  0  0  0
   16.9232   -9.5526   13.2018 C   0  0  0  0  0  0  0  0  0  0  0  0
   17.7559   -9.4779   12.0794 C   0  0  0  0  0  0  0  0  0  0  0  0
   17.2302   -9.6447   10.7947 C   0  0  0  0  0  0  0  0  0  0  0  0
   15.8647   -9.8880   10.6245 C   0  0  0  0  0  0  0  0  0  0  0  0
   15.0254   -9.9642   11.7391 C   0  0  0  0  0  0  0  0  0  0  0  0
   15.5529   -9.7972   13.0226 C   0  0  0  0  0  0  0  0  0  0  0  0
   18.1237   -9.5633    9.6102 C   0  0  0  0  0  0  0  0  0  0  0  0
   11.5883   -4.5232   20.5469 C   0  0  0  0  0  0  0  0  0  0  0  0
   10.9221   -4.3328   19.1852 C   0  0  0  0  0  0  0  0  0  0  0  0
   10.2675   -5.2099   20.2215 C   0  0  0  0  0  0  0  0  0  0  0  0
   12.2940   -4.2400   23.0739 O   0  0  0  0  0  0  0  0  0  0  0  0
   11.1136   -4.2498   23.8649 C   0  0  0  0  0  0  0  0  0  0  0  0
  1  2  2  0  0  0
  2  3  1  0  0  0
  3  4  2  0  0  0
  4  5  1  0  0  0
  5  6  2  0  0  0
  6 34  1  0  0  0
 34 35  1  0  0  0
  5  7  1  0  0  0
  7  8  1  0  0  0
  8  9  2  0  0  0
  9 10  1  0  0  0
 10 11  2  0  0  0
  9 14  1  0  0  0
 14 15  2  0  0  0
 14 16  1  0  0  0
 16 18  1  0  0  0
 18 20  1  0  0  0
 20 21  2  0  0  0
 20 22  1  0  0  0
 22 24  1  0  0  0
 24 25  2  0  0  0
 25 26  1  0  0  0
 26 27  2  0  0  0
 27 28  1  0  0  0
 28 29  2  0  0  0
 26 30  1  0  0  0
  7 31  1  0  0  0
 31 32  1  0  0  0
 32 33  1  0  0  0
  2 12  1  0  0  0
  1 13  1  0  0  0
  6  1  1  0  0  0
 29 24  1  0  0  0
 33 31  1  0  0  0
 10  4  1  0  0  0
 16 17  1  0  0  0
 18 19  1  0  0  0
 22 23  1  0  0  0
M  END
>  <minimizedAffinity>
-8.26303

>  <minimizedRMSD>
1.62038

$$$$
CHEMBL4973129 ChemDiv-P498-0376 KBSSMQDMOCMBSY-UHFFFAOYSA-N MCULE-5804490990 MolPort-010-927-442 PubChem-53169206 ZINC000065233072 ZINC65233072


 26 28  0  0  0  0  0  0  0  0999 V2000
   15.7776   -8.1715   18.5633 N   0  0  0  0  0  0  0  0  0  0  0  0
   15.3586   -8.0899   17.1938 C   0  0  0  0  0  0  0  0  0  0  0  0
   14.3934   -7.3539   16.8541 O   0  0  0  0  0  0  0  0  0  0  0  0
   16.5381   -8.7659   18.7569 H   0  0  0  0  0  0  0  0  0  0  0  0
   14.1452   -6.1135   21.9024 C   0  0  0  0  0  0  0  0  0  0  0  0
   13.3019   -6.4903   20.8463 C   0  0  0  0  0  0  0  0  0  0  0  0
   13.8382   -7.1707   19.7409 C   0  0  0  0  0  0  0  0  0  0  0  0
   15.2044   -7.4779   19.6797 C   0  0  0  0  0  0  0  0  0  0  0  0
   16.0366   -7.0991   20.7355 C   0  0  0  0  0  0  0  0  0  0  0  0
   15.5137   -6.4222   21.8393 C   0  0  0  0  0  0  0  0  0  0  0  0
   14.4016   -4.9411   24.0681 C   0  0  0  0  0  0  0  0  0  0  0  0
   13.6045   -5.4359   23.0007 O   0  0  0  0  0  0  0  0  0  0  0  0
   11.9393   -6.1802   20.9147 O   0  0  0  0  0  0  0  0  0  0  0  0
   11.2207   -5.6267   19.8206 C   0  0  0  0  0  0  0  0  0  0  0  0
   16.0635   -8.8739   16.1750 C   0  0  0  0  0  0  0  0  0  0  0  0
   15.9601   -8.7400   14.7969 C   0  0  0  0  0  0  0  0  0  0  0  0
   16.7812   -9.6593   14.0984 C   0  0  0  0  0  0  0  0  0  0  0  0
   17.5210  -10.5051   14.8668 N   0  0  0  0  0  0  0  0  0  0  0  0
   17.1512  -10.1069   16.4350 S   0  0  0  0  0  0  0  0  0  0  0  0
   16.8409   -9.7084   12.6245 C   0  0  0  0  0  0  0  0  0  0  0  0
   18.0669   -9.5421   11.9630 C   0  0  0  0  0  0  0  0  0  0  0  0
   18.1304   -9.5875   10.5671 C   0  0  0  0  0  0  0  0  0  0  0  0
   16.9680   -9.7997    9.8214 C   0  0  0  0  0  0  0  0  0  0  0  0
   17.0296   -9.8438    8.4690 F   0  0  0  0  0  0  0  0  0  0  0  0
   15.7422   -9.9666   10.4707 C   0  0  0  0  0  0  0  0  0  0  0  0
   15.6787   -9.9211   11.8665 C   0  0  0  0  0  0  0  0  0  0  0  0
 11 12  1  0  0  0
 12  5  1  0  0  0
  5  6  2  0  0  0
  6 13  1  0  0  0
  6  7  1  0  0  0
 13 14  1  0  0  0
  7  8  2  0  0  0
  8  1  1  0  0  0
  8  9  1  0  0  0
  1  2  1  0  0  0
  2  3  2  0  0  0
  2 15  1  0  0  0
 15 16  2  0  0  0
 16 17  1  0  0  0
 17 18  2  0  0  0
 17 20  1  0  0  0
 18 19  1  0  0  0
 19 15  1  0  0  0
 20 21  2  0  0  0
 21 22  1  0  0  0
 22 23  2  0  0  0
 23 24  1  0  0  0
 23 25  1  0  0  0
 25 26  2  0  0  0
 26 20  1  0  0  0
  9 10  2  0  0  0
 10  5  1  0  0  0
  1  4  1  0  0  0
M  END
>  <minimizedAffinity>
-8.25263

>  <minimizedRMSD>
1.52464

$$$$
CHEMBL559713


 33 35  0  0  0  0  0  0  0  0999 V2000
   17.4652  -10.2905   12.3161 C   0  0  0  0  0  0  0  0  0  0  0  0
   18.1996  -11.4994   12.3626 C   0  0  0  0  0  0  0  0  0  0  0  0
   18.5178  -12.1062   13.5891 C   0  0  0  0  0  0  0  0  0  0  0  0
   18.0910  -11.4839   14.7594 C   0  0  0  0  0  0  0  0  0  0  0  0
   17.3735  -10.3041   14.7169 C   0  0  0  0  0  0  0  0  0  0  0  0
   17.0460   -9.6840   13.5131 C   0  0  0  0  0  0  0  0  0  0  0  0
   17.0847   -9.9137   16.0810 C   0  0  0  0  0  0  0  0  0  0  0  0
   16.3778   -8.8863   16.4476 N   0  0  0  0  0  0  0  0  0  0  0  0
   17.6720  -10.9754   16.9032 C   0  0  0  0  0  0  0  0  0  0  0  0
   17.5917  -11.0683   18.1559 O   0  0  0  0  0  0  0  0  0  0  0  0
   18.3148  -11.9582   16.0884 N   0  0  0  0  0  0  0  0  0  0  0  0
   18.7963  -12.7679   16.3744 H   0  0  0  0  0  0  0  0  0  0  0  0
   17.1312   -9.6568   11.0736 N   0  0  0  0  0  0  0  0  0  0  0  0
   18.0437   -9.0684   10.1383 C   0  0  0  0  0  0  0  0  0  0  0  0
   19.2851   -9.0626   10.3489 O   0  0  0  0  0  0  0  0  0  0  0  0
   17.5132   -8.4527    8.8946 C   0  0  0  0  0  0  0  0  0  0  0  0
   16.1757   -9.6224   10.8389 H   0  0  0  0  0  0  0  0  0  0  0  0
   16.1570   -8.5366   17.7899 N   0  0  0  0  0  0  0  0  0  0  0  0
   15.0624   -7.7086   18.2004 C   0  0  0  0  0  0  0  0  0  0  0  0
   14.1850   -7.3654   17.3615 O   0  0  0  0  0  0  0  0  0  0  0  0
   16.7784   -8.8736   18.4751 H   0  0  0  0  0  0  0  0  0  0  0  0
   14.9541   -7.2701   19.6023 C   0  0  0  0  0  0  0  0  0  0  0  0
   13.7019   -7.0369   20.1749 C   0  0  0  0  0  0  0  0  0  0  0  0
   13.5784   -6.6216   21.5103 C   0  0  0  0  0  0  0  0  0  0  0  0
   14.7477   -6.4364   22.2913 C   0  0  0  0  0  0  0  0  0  0  0  0
   16.0073   -6.6721   21.7140 C   0  0  0  0  0  0  0  0  0  0  0  0
   16.1010   -7.0863   20.3776 C   0  0  0  0  0  0  0  0  0  0  0  0
   17.1568   -6.4877   22.4911 O   0  0  0  0  0  0  0  0  0  0  0  0
   18.4145   -6.1298   21.9343 C   0  0  0  0  0  0  0  0  0  0  0  0
   14.7216   -6.0233   23.6342 O   0  0  0  0  0  0  0  0  0  0  0  0
   15.0454   -6.8442   24.7472 C   0  0  0  0  0  0  0  0  0  0  0  0
   12.3101   -6.3953   22.0578 O   0  0  0  0  0  0  0  0  0  0  0  0
   11.6815   -5.1202   22.0571 C   0  0  0  0  0  0  0  0  0  0  0  0
  1  2  2  0  0  0
  2  3  1  0  0  0
  3  4  2  0  0  0
  4  5  1  0  0  0
  5  6  2  0  0  0
  5  7  1  0  0  0
  7  8  2  0  0  0
  8 18  1  0  0  0
 18 19  1  0  0  0
 19 20  2  0  0  0
 19 22  1  0  0  0
 22 23  2  0  0  0
 23 24  1  0  0  0
 24 25  2  0  0  0
 25 26  1  0  0  0
 26 27  2  0  0  0
 26 28  1  0  0  0
 28 29  1  0  0  0
 25 30  1  0  0  0
 30 31  1  0  0  0
 24 32  1  0  0  0
 32 33  1  0  0  0
  7  9  1  0  0  0
  9 10  2  0  0  0
  9 11  1  0  0  0
  1 13  1  0  0  0
 13 14  1  0  0  0
 14 15  2  0  0  0
 14 16  1  0  0  0
  6  1  1  0  0  0
 27 22  1  0  0  0
 11  4  1  0  0  0
 18 21  1  0  0  0
 11 12  1  0  0  0
 13 17  1  0  0  0
M  END
>  <minimizedAffinity>
-8.24542

>  <minimizedRMSD>
1.98389

$$$$
CHEMBL4065926 PubChem-137633747


 37 41  0  0  0  0  0  0  0  0999 V2000
   16.1399   -7.9072   15.5671 C   0  0  0  0  0  0  0  0  0  0  0  0
   16.6813   -9.1795   15.6748 C   0  0  0  0  0  0  0  0  0  0  0  0
   16.5644   -9.9079   16.8090 C   0  0  0  0  0  0  0  0  0  0  0  0
   15.8952   -9.4263   17.9260 C   0  0  0  0  0  0  0  0  0  0  0  0
   15.3357   -8.1279   17.8280 C   0  0  0  0  0  0  0  0  0  0  0  0
   15.4768   -7.4165   16.6573 N   0  0  0  0  0  0  0  0  0  0  0  0
   17.1891  -11.0878   16.6370 N   0  0  0  0  0  0  0  0  0  0  0  0
   17.6774  -11.0585   15.3962 N   0  0  0  0  0  0  0  0  0  0  0  0
   17.3770   -9.9099   14.7961 N   0  0  0  0  0  0  0  0  0  0  0  0
   14.6025   -7.5415   18.9821 C   0  0  0  0  0  0  0  0  0  0  0  0
   13.3331   -6.9400   18.8384 C   0  0  0  0  0  0  0  0  0  0  0  0
   12.6730   -6.3972   19.9497 C   0  0  0  0  0  0  0  0  0  0  0  0
   13.2676   -6.4451   21.2274 C   0  0  0  0  0  0  0  0  0  0  0  0
   14.5256   -7.0451   21.3634 C   0  0  0  0  0  0  0  0  0  0  0  0
   15.1825   -7.5839   20.2586 C   0  0  0  0  0  0  0  0  0  0  0  0
   11.4535   -5.8312   19.7653 F   0  0  0  0  0  0  0  0  0  0  0  0
   12.7233   -6.8685   17.6278 F   0  0  0  0  0  0  0  0  0  0  0  0
   12.6098   -5.8834   22.4309 C   0  0  0  0  0  0  0  0  0  0  0  0
   13.2536   -5.8014   23.5136 O   0  0  0  0  0  0  0  0  0  0  0  0
   11.2550   -5.4287   22.3809 N   0  0  0  0  0  0  0  0  0  0  0  0
   10.7614   -5.4951   21.5317 H   0  0  0  0  0  0  0  0  0  0  0  0
   10.5831   -4.8719   23.5425 C   0  0  0  0  0  0  0  0  0  0  0  0
   10.3211   -3.3981   23.3144 C   0  0  0  0  0  0  0  0  0  0  0  0
   17.7684   -9.5331   13.4448 C   0  0  0  0  0  0  0  0  0  0  0  0
   18.6058  -10.6392   12.8040 C   0  0  0  0  0  0  0  0  0  0  0  0
   19.0145  -10.2210   11.3937 C   0  0  0  0  0  0  0  0  0  0  0  0
   17.8655   -9.7274   10.6267 N   0  0  0  0  0  0  0  0  0  0  0  0
   16.5240   -9.7597   11.2118 C   0  0  0  0  0  0  0  0  0  0  0  0
   16.5313   -9.1481   12.6153 C   0  0  0  0  0  0  0  0  0  0  0  0
   18.0482   -9.2727    9.2776 C   0  0  0  0  0  0  0  0  0  0  0  0
   18.8185   -8.1786    9.0205 N   0  0  0  0  0  0  0  0  0  0  0  0
   19.0029   -7.7322    7.7508 C   0  0  0  0  0  0  0  0  0  0  0  0
   18.3944   -8.3951    6.6860 C   0  0  0  0  0  0  0  0  0  0  0  0
   17.6132   -9.5164    6.9607 C   0  0  0  0  0  0  0  0  0  0  0  0
   17.4525   -9.9316    8.2444 N   0  0  0  0  0  0  0  0  0  0  0  0
   18.5983   -7.9340    5.2850 C   0  0  0  0  0  0  0  0  0  0  0  0
   20.0470   -7.5378    5.0705 C   0  0  0  0  0  0  0  0  0  0  0  0
  1  2  2  0  0  0
  2  3  1  0  0  0
  3  4  2  0  0  0
  4  5  1  0  0  0
  5  6  2  0  0  0
  5 10  1  0  0  0
 10 11  2  0  0  0
 11 12  1  0  0  0
 12 13  2  0  0  0
 13 14  1  0  0  0
 14 15  2  0  0  0
 13 18  1  0  0  0
 18 19  2  0  0  0
 18 20  1  0  0  0
 20 22  1  0  0  0
 22 23  1  0  0  0
 12 16  1  0  0  0
 11 17  1  0  0  0
  3  7  1  0  0  0
  7  8  2  0  0  0
  8  9  1  0  0  0
  9 24  1  0  0  0
 24 25  1  0  0  0
 25 26  1  0  0  0
 26 27  1  0  0  0
 27 28  1  0  0  0
 28 29  1  0  0  0
 27 30  1  0  0  0
 30 31  2  0  0  0
 31 32  1  0  0  0
 32 33  2  0  0  0
 33 34  1  0  0  0
 34 35  2  0  0  0
 33 36  1  0  0  0
 36 37  1  0  0  0
  6  1  1  0  0  0
 15 10  1  0  0  0
 29 24  1  0  0  0
 35 30  1  0  0  0
  9  2  1  0  0  0
 20 21  1  0  0  0
M  END
>  <minimizedAffinity>
-8.24056

>  <minimizedRMSD>
1.88677

$$$$
CHEMBL3617028 ChemDiv-8004-1559 MCULE-9848286753 MolPort-002-690-366 PubChem-135419769 ZINC01433649


 28 29  0  0  0  0  0  0  0  0999 V2000
   17.1464   -9.9278   15.6473 C   0  0  0  0  0  0  0  0  0  0  0  0
   17.8822  -10.3061   16.5971 O   0  0  0  0  0  0  0  0  0  0  0  0
   16.0915   -8.9959   15.8764 N   0  0  0  0  0  0  0  0  0  0  0  0
   15.5179   -8.7187   15.1258 H   0  0  0  0  0  0  0  0  0  0  0  0
   15.8593   -8.4697   17.1521 N   0  0  0  0  0  0  0  0  0  0  0  0
   14.7125   -7.9452   17.4361 C   0  0  0  0  0  0  0  0  0  0  0  0
   14.4302   -7.3819   18.7656 C   0  0  0  0  0  0  0  0  0  0  0  0
   13.1402   -6.9170   19.0863 C   0  0  0  0  0  0  0  0  0  0  0  0
   11.7117   -7.0023   17.8031 Br  0  0  0  0  0  0  0  0  0  0  0  0
   12.8883   -6.3822   20.3604 C   0  0  0  0  0  0  0  0  0  0  0  0
   11.6171   -5.9206   20.6856 O   0  0  0  0  0  0  0  0  0  0  0  0
   13.9151   -6.3106   21.3107 C   0  0  0  0  0  0  0  0  0  0  0  0
   13.6576   -5.7799   22.5701 O   0  0  0  0  0  0  0  0  0  0  0  0
   15.1973   -6.7734   20.9905 C   0  0  0  0  0  0  0  0  0  0  0  0
   16.6212   -6.6914   22.2615 Br  0  0  0  0  0  0  0  0  0  0  0  0
   15.4489   -7.3047   19.7252 C   0  0  0  0  0  0  0  0  0  0  0  0
   10.9264   -5.9660   20.0540 H   0  0  0  0  0  0  0  0  0  0  0  0
   12.7986   -5.4710   22.7816 H   0  0  0  0  0  0  0  0  0  0  0  0
   17.3552  -10.4848   14.2847 C   0  0  0  0  0  0  0  0  0  0  0  0
   16.3697   -9.9255   13.3721 N   0  0  0  0  0  0  0  0  0  0  0  0
   15.5022   -9.6358   13.7364 H   0  0  0  0  0  0  0  0  0  0  0  0
   19.2309   -8.4060    9.6082 C   0  0  0  0  0  0  0  0  0  0  0  0
   17.9871   -9.0434   10.1129 C   0  0  0  0  0  0  0  0  0  0  0  0
   17.0252   -9.5096    9.2121 C   0  0  0  0  0  0  0  0  0  0  0  0
   15.8552  -10.1091    9.6873 C   0  0  0  0  0  0  0  0  0  0  0  0
   15.6466  -10.2425   11.0635 C   0  0  0  0  0  0  0  0  0  0  0  0
   16.6055   -9.7780   11.9703 C   0  0  0  0  0  0  0  0  0  0  0  0
   17.7786   -9.1767   11.4888 C   0  0  0  0  0  0  0  0  0  0  0  0
 22 23  1  0  0  0
 23 24  2  0  0  0
 24 25  1  0  0  0
 25 26  2  0  0  0
 26 27  1  0  0  0
 27 20  1  0  0  0
 27 28  2  0  0  0
 20 19  1  0  0  0
 19  1  1  0  0  0
  1  2  2  0  0  0
  1  3  1  0  0  0
  3  5  1  0  0  0
  5  6  2  0  0  0
  6  7  1  0  0  0
  7  8  2  0  0  0
  8  9  1  0  0  0
  8 10  1  0  0  0
 10 11  1  0  0  0
 10 12  2  0  0  0
 12 13  1  0  0  0
 12 14  1  0  0  0
 14 15  1  0  0  0
 14 16  2  0  0  0
 16  7  1  0  0  0
 28 23  1  0  0  0
 20 21  1  0  0  0
  3  4  1  0  0  0
 11 17  1  0  0  0
 13 18  1  0  0  0
M  END
>  <minimizedAffinity>
-8.23455

>  <minimizedRMSD>
1.38155

$$$$
CHEMBL4528022 CHEMBL4597178 PubChem-135335320 PubChem-154699416


 31 35  0  0  0  0  0  0  0  0999 V2000
   14.9946   -7.7646   18.0801 C   0  0  0  0  0  0  0  0  0  0  0  0
   16.2395   -8.3729   18.2495 C   0  0  0  0  0  0  0  0  0  0  0  0
   16.5944   -8.8135   17.0356 N   0  0  0  0  0  0  0  0  0  0  0  0
   17.7084   -9.4725   16.6437 C   0  0  0  0  0  0  0  0  0  0  0  0
   17.8182   -9.8156   15.2903 C   0  0  0  0  0  0  0  0  0  0  0  0
   16.7745   -9.4647   14.4011 C   0  0  0  0  0  0  0  0  0  0  0  0
   15.6782   -8.7964   14.8763 N   0  0  0  0  0  0  0  0  0  0  0  0
   15.6117   -8.4835   16.1931 C   0  0  0  0  0  0  0  0  0  0  0  0
   14.5956   -7.8328   16.7827 N   0  0  0  0  0  0  0  0  0  0  0  0
   16.8597   -9.8008   13.0053 N   0  0  0  0  0  0  0  0  0  0  0  0
   18.0848  -10.3868   12.4559 C   0  0  0  0  0  0  0  0  0  0  0  0
   18.4339   -9.7205   11.1266 C   0  0  0  0  0  0  0  0  0  0  0  0
   17.2566   -9.6037   10.2578 N   0  0  0  0  0  0  0  0  0  0  0  0
   15.9549  -10.0892   10.7174 C   0  0  0  0  0  0  0  0  0  0  0  0
   15.6889   -9.6060   12.1420 C   0  0  0  0  0  0  0  0  0  0  0  0
   17.3761   -9.0372    8.9419 C   0  0  0  0  0  0  0  0  0  0  0  0
   16.3418   -8.8542    8.2420 O   0  0  0  0  0  0  0  0  0  0  0  0
   18.7109   -8.6072    8.4038 C   0  0  0  0  0  0  0  0  0  0  0  0
   18.5209   -7.4633    7.4236 C   0  0  0  0  0  0  0  0  0  0  0  0
   19.0238   -7.1793    8.8197 C   0  0  0  0  0  0  0  0  0  0  0  0
   14.6991   -6.7980   20.4163 C   0  0  0  0  0  0  0  0  0  0  0  0
   13.8608   -6.1876   21.3637 C   0  0  0  0  0  0  0  0  0  0  0  0
   12.5231   -5.8920   21.0668 C   0  0  0  0  0  0  0  0  0  0  0  0
   12.0182   -6.2134   19.8015 C   0  0  0  0  0  0  0  0  0  0  0  0
   12.8427   -6.8200   18.8531 C   0  0  0  0  0  0  0  0  0  0  0  0
   14.1821   -7.1199   19.1396 C   0  0  0  0  0  0  0  0  0  0  0  0
   10.3511   -5.8640   19.3814 Cl  0  0  0  0  0  0  0  0  0  0  0  0
   16.6847   -6.5552   21.8816 C   0  0  0  0  0  0  0  0  0  0  0  0
   16.0323   -7.0840   20.7347 O   0  0  0  0  0  0  0  0  0  0  0  0
   11.6879   -5.2839   22.0105 O   0  0  0  0  0  0  0  0  0  0  0  0
   12.0413   -5.1552   23.3810 C   0  0  0  0  0  0  0  0  0  0  0  0
 28 29  1  0  0  0
 29 21  1  0  0  0
 21 22  2  0  0  0
 22 23  1  0  0  0
 23 24  2  0  0  0
 24 25  1  0  0  0
 25 26  2  0  0  0
 26  1  1  0  0  0
  1  2  2  0  0  0
  2  3  1  0  0  0
  3  4  1  0  0  0
  4  5  2  0  0  0
  5  6  1  0  0  0
  6  7  2  0  0  0
  7  8  1  0  0  0
  8  9  2  0  0  0
  6 10  1  0  0  0
 10 11  1  0  0  0
 11 12  1  0  0  0
 12 13  1  0  0  0
 13 14  1  0  0  0
 14 15  1  0  0  0
 13 16  1  0  0  0
 16 17  2  0  0  0
 16 18  1  0  0  0
 18 19  1  0  0  0
 19 20  1  0  0  0
 24 27  1  0  0  0
 23 30  1  0  0  0
 30 31  1  0  0  0
 26 21  1  0  0  0
  9  1  1  0  0  0
  8  3  1  0  0  0
 15 10  1  0  0  0
 20 18  1  0  0  0
M  END
>  <minimizedAffinity>
-8.22967

>  <minimizedRMSD>
0.98789

$$$$
CHEMBL433041 PubChem-198717 PubChem-20056915 PubChem-65872


 27 29  0  0  0  0  0  0  0  0999 V2000
   14.9248   -7.8225   17.4279 C   0  0  0  0  0  0  0  0  0  0  0  0
   15.7181   -7.9657   18.5911 C   0  0  0  0  0  0  0  0  0  0  0  0
   15.2203   -7.6006   19.8514 C   0  0  0  0  0  0  0  0  0  0  0  0
   13.9227   -7.0951   19.9208 C   0  0  0  0  0  0  0  0  0  0  0  0
   13.1445   -6.9538   18.8058 C   0  0  0  0  0  0  0  0  0  0  0  0
   13.6211   -7.3089   17.5417 C   0  0  0  0  0  0  0  0  0  0  0  0
   11.8105   -6.3940   19.1807 C   0  0  0  0  0  0  0  0  0  0  0  0
   10.6755   -7.3307   18.8075 C   0  0  0  0  0  0  0  0  0  0  0  0
   11.5970   -5.0127   18.6176 C   0  0  0  0  0  0  0  0  0  0  0  0
   11.1955   -4.1732   19.8103 C   0  0  0  0  0  0  0  0  0  0  0  0
   11.7524   -4.7922   21.0065 N   0  0  0  0  0  0  0  0  0  0  0  0
   10.7468   -4.6751   22.0475 C   0  0  0  0  0  0  0  0  0  0  0  0
   11.8977   -6.2144   20.7096 C   0  0  0  0  0  0  0  0  0  0  0  0
   13.2390   -6.6637   21.0797 N   0  0  0  0  0  0  0  0  0  0  0  0
   13.7319   -6.7735   22.4425 C   0  0  0  0  0  0  0  0  0  0  0  0
   15.3879   -8.1750   16.1506 O   0  0  0  0  0  0  0  0  0  0  0  0
   16.4141   -9.8639   14.7284 N   0  0  0  0  0  0  0  0  0  0  0  0
   16.4849   -8.9998   15.8622 C   0  0  0  0  0  0  0  0  0  0  0  0
   17.5215   -8.9893   16.5809 O   0  0  0  0  0  0  0  0  0  0  0  0
   15.5984   -9.8611   14.1771 H   0  0  0  0  0  0  0  0  0  0  0  0
   17.5091  -10.7487   14.3618 C   0  0  0  0  0  0  0  0  0  0  0  0
   17.9599  -10.4586   12.9388 C   0  0  0  0  0  0  0  0  0  0  0  0
   16.9512   -9.5810   12.2080 C   0  0  0  0  0  0  0  0  0  0  0  0
   17.0580   -9.7513   10.7004 C   0  0  0  0  0  0  0  0  0  0  0  0
   18.3186   -9.0810   10.1786 C   0  0  0  0  0  0  0  0  0  0  0  0
   16.8196   -9.1292    8.1871 C   0  0  0  0  0  0  0  0  0  0  0  0
   18.0959   -8.5545    8.7722 C   0  0  0  0  0  0  0  0  0  0  0  0
 26 27  1  0  0  0
 27 25  1  0  0  0
 25 24  1  0  0  0
 24 23  1  0  0  0
 23 22  1  0  0  0
 22 21  1  0  0  0
 21 17  1  0  0  0
 17 18  1  0  0  0
 18 19  2  0  0  0
 18 16  1  0  0  0
 16  1  1  0  0  0
  1  2  2  0  0  0
  2  3  1  0  0  0
  3  4  2  0  0  0
  4  5  1  0  0  0
  5  6  2  0  0  0
  5  7  1  0  0  0
  6  1  1  0  0  0
  7  8  1  0  0  0
  7  9  1  0  0  0
  9 10  1  0  0  0
 10 11  1  0  0  0
 11 12  1  0  0  0
 13 11  1  0  0  0
 13 14  1  0  0  0
 13  7  1  0  0  0
 14 15  1  0  0  0
 14  4  1  0  0  0
 17 20  1  0  0  0
M  END
>  <minimizedAffinity>
-8.22264

>  <minimizedRMSD>
1.76698

$$$$
CHEMBL32966 PubChem-44281479


 26 28  0  0  0  0  0  0  0  0999 V2000
   14.5879   -7.3616   18.1539 C   0  0  0  0  0  0  0  0  0  0  0  0
   15.3297   -7.9078   19.2249 C   0  0  0  0  0  0  0  0  0  0  0  0
   14.8967   -7.7532   20.5497 C   0  0  0  0  0  0  0  0  0  0  0  0
   13.7175   -7.0494   20.7866 C   0  0  0  0  0  0  0  0  0  0  0  0
   12.9875   -6.5166   19.7553 C   0  0  0  0  0  0  0  0  0  0  0  0
   13.4040   -6.6581   18.4279 C   0  0  0  0  0  0  0  0  0  0  0  0
   11.7796   -5.8122   20.2493 C   0  0  0  0  0  0  0  0  0  0  0  0
   10.5022   -6.4329   19.7112 C   0  0  0  0  0  0  0  0  0  0  0  0
   11.8331   -4.3321   19.9672 C   0  0  0  0  0  0  0  0  0  0  0  0
   11.5749   -3.6792   21.3064 C   0  0  0  0  0  0  0  0  0  0  0  0
   11.9813   -4.6152   22.3466 N   0  0  0  0  0  0  0  0  0  0  0  0
   11.0004   -4.5103   23.4125 C   0  0  0  0  0  0  0  0  0  0  0  0
   11.8521   -5.9516   21.7744 C   0  0  0  0  0  0  0  0  0  0  0  0
   13.1060   -6.7801   22.1062 C   0  0  0  0  0  0  0  0  0  0  0  0
   14.9865   -7.4921   16.8144 O   0  0  0  0  0  0  0  0  0  0  0  0
   16.1917   -8.4133   14.9098 N   0  0  0  0  0  0  0  0  0  0  0  0
   15.8638   -8.4569   16.2983 C   0  0  0  0  0  0  0  0  0  0  0  0
   16.3610   -9.3529   17.0340 O   0  0  0  0  0  0  0  0  0  0  0  0
   15.7953   -7.7085   14.3481 H   0  0  0  0  0  0  0  0  0  0  0  0
   17.0921   -9.3767   14.2993 C   0  0  0  0  0  0  0  0  0  0  0  0
   16.6139   -9.6981   12.8992 C   0  0  0  0  0  0  0  0  0  0  0  0
   17.8111   -9.8760   11.9849 C   0  0  0  0  0  0  0  0  0  0  0  0
   17.4397   -9.5339   10.5531 C   0  0  0  0  0  0  0  0  0  0  0  0
   18.5668   -8.7726    9.8810 C   0  0  0  0  0  0  0  0  0  0  0  0
   19.1291   -7.3923    7.9091 C   0  0  0  0  0  0  0  0  0  0  0  0
   18.1603   -8.4127    8.4680 C   0  0  0  0  0  0  0  0  0  0  0  0
 25 26  1  0  0  0
 26 24  1  0  0  0
 24 23  1  0  0  0
 23 22  1  0  0  0
 22 21  1  0  0  0
 21 20  1  0  0  0
 20 16  1  0  0  0
 16 17  1  0  0  0
 17 18  2  0  0  0
 17 15  1  0  0  0
 15  1  1  0  0  0
  1  2  2  0  0  0
  2  3  1  0  0  0
  3  4  2  0  0  0
  4  5  1  0  0  0
  5  6  2  0  0  0
  5  7  1  0  0  0
  6  1  1  0  0  0
  7  8  1  0  0  0
  7  9  1  0  0  0
  9 10  1  0  0  0
 10 11  1  0  0  0
 11 12  1  0  0  0
 13 11  1  0  0  0
 13 14  1  0  0  0
 13  7  1  0  0  0
 14  4  1  0  0  0
 16 19  1  0  0  0
M  END
>  <minimizedAffinity>
-8.22140

>  <minimizedRMSD>
1.03715

$$$$
CHEMBL7539 PubChem-13231019


 29 30  0  0  0  0  0  0  0  0999 V2000
   17.6735   -8.9636   15.7107 C   0  0  0  0  0  0  0  0  0  0  0  0
   18.0210   -9.9313   14.5869 C   0  0  0  0  0  0  0  0  0  0  0  0
   17.9978  -11.2460   15.0577 O   0  0  0  0  0  0  0  0  0  0  0  0
   17.1062  -11.4605   15.3739 H   0  0  0  0  0  0  0  0  0  0  0  0
   17.0582   -9.7732   13.4215 C   0  0  0  0  0  0  0  0  0  0  0  0
   17.7703   -9.8406   12.1939 O   0  0  0  0  0  0  0  0  0  0  0  0
   17.1195   -9.7975   10.9576 C   0  0  0  0  0  0  0  0  0  0  0  0
   16.0106  -10.3815   10.8087 O   0  0  0  0  0  0  0  0  0  0  0  0
   17.7412   -9.0658    9.8339 C   0  0  0  0  0  0  0  0  0  0  0  0
   18.9232   -8.3465   10.0670 C   0  0  0  0  0  0  0  0  0  0  0  0
   19.5444   -7.6412    9.0335 C   0  0  0  0  0  0  0  0  0  0  0  0
   18.9904   -7.6489    7.7520 C   0  0  0  0  0  0  0  0  0  0  0  0
   17.8144   -8.3600    7.5055 C   0  0  0  0  0  0  0  0  0  0  0  0
   17.1854   -9.0658    8.5366 C   0  0  0  0  0  0  0  0  0  0  0  0
   16.0447   -9.7450    8.2570 F   0  0  0  0  0  0  0  0  0  0  0  0
   16.2478   -8.6752   15.7266 N   0  0  0  0  0  0  0  0  0  0  0  0
   16.0607   -7.8000   15.2373 H   0  0  0  0  0  0  0  0  0  0  0  0
   15.8607   -8.5614   17.1198 C   0  0  0  0  0  0  0  0  0  0  0  0
   14.6270   -7.6865   17.2306 C   0  0  0  0  0  0  0  0  0  0  0  0
   13.8613   -6.7150   21.3452 C   0  0  0  0  0  0  0  0  0  0  0  0
   15.0085   -7.4433   20.9856 C   0  0  0  0  0  0  0  0  0  0  0  0
   15.2551   -7.7630   19.6492 C   0  0  0  0  0  0  0  0  0  0  0  0
   14.3552   -7.3630   18.6583 C   0  0  0  0  0  0  0  0  0  0  0  0
   13.2150   -6.6324   19.0073 C   0  0  0  0  0  0  0  0  0  0  0  0
   12.9595   -6.3056   20.3495 C   0  0  0  0  0  0  0  0  0  0  0  0
   14.5865   -5.8322   23.5425 C   0  0  0  0  0  0  0  0  0  0  0  0
   13.6013   -6.3865   22.6806 O   0  0  0  0  0  0  0  0  0  0  0  0
   11.8213   -5.5770   20.7140 O   0  0  0  0  0  0  0  0  0  0  0  0
   10.7628   -5.2996   19.8062 C   0  0  0  0  0  0  0  0  0  0  0  0
 26 27  1  0  0  0
 27 20  1  0  0  0
 20 21  2  0  0  0
 21 22  1  0  0  0
 22 23  2  0  0  0
 23 19  1  0  0  0
 23 24  1  0  0  0
 19 18  1  0  0  0
 18 16  1  0  0  0
 16  1  1  0  0  0
  2  1  1  0  0  0
  2  3  1  0  0  0
  2  5  1  0  0  0
  5  6  1  0  0  0
  6  7  1  0  0  0
  7  8  2  0  0  0
  7  9  1  0  0  0
  9 10  2  0  0  0
 10 11  1  0  0  0
 11 12  2  0  0  0
 12 13  1  0  0  0
 13 14  2  0  0  0
 14 15  1  0  0  0
 14  9  1  0  0  0
 24 25  2  0  0  0
 25 28  1  0  0  0
 25 20  1  0  0  0
 28 29  1  0  0  0
 16 17  1  0  0  0
  3  4  1  0  0  0
M  END
>  <minimizedAffinity>
-8.21257

>  <minimizedRMSD>
1.80805

$$$$
CHEMBL1602969 3328828 CSC026078850 MCULE-9997578351 MolPort-004-262-802 PubChem-2444783 Z19468133 ZINC000003328828 ZINC03328828


 34 37  0  0  0  0  0  0  0  0999 V2000
   16.6835   -8.5539   16.5606 C   0  0  0  0  0  0  0  0  0  0  0  0
   15.6138   -8.0044   17.4400 C   0  0  0  0  0  0  0  0  0  0  0  0
   14.3879   -7.6463   17.0144 N   0  0  0  0  0  0  0  0  0  0  0  0
   13.7407   -7.2043   18.0813 N   0  0  0  0  0  0  0  0  0  0  0  0
   14.5992   -7.3088   19.1152 C   0  0  0  0  0  0  0  0  0  0  0  0
   15.7529   -7.7989   18.7267 O   0  0  0  0  0  0  0  0  0  0  0  0
   14.2843   -6.9238   20.4975 C   0  0  0  0  0  0  0  0  0  0  0  0
   13.1276   -6.1983   20.7845 C   0  0  0  0  0  0  0  0  0  0  0  0
   12.8218   -5.8281   22.1021 C   0  0  0  0  0  0  0  0  0  0  0  0
   13.6842   -6.1875   23.1525 C   0  0  0  0  0  0  0  0  0  0  0  0
   14.8616   -6.9251   22.8656 C   0  0  0  0  0  0  0  0  0  0  0  0
   15.1428   -7.2823   21.5371 C   0  0  0  0  0  0  0  0  0  0  0  0
   11.6622   -5.1002   22.3930 O   0  0  0  0  0  0  0  0  0  0  0  0
   11.4375   -3.7826   21.9098 C   0  0  0  0  0  0  0  0  0  0  0  0
   13.3214   -5.7866   24.4495 O   0  0  0  0  0  0  0  0  0  0  0  0
   13.7956   -4.6196   25.1059 C   0  0  0  0  0  0  0  0  0  0  0  0
   15.7394   -7.2970   23.8906 O   0  0  0  0  0  0  0  0  0  0  0  0
   17.0644   -6.7929   23.9978 C   0  0  0  0  0  0  0  0  0  0  0  0
   16.3115  -10.2755   16.1079 S   0  0  0  0  0  0  0  0  0  0  0  0
   17.6601  -10.0017   12.1846 C   0  0  0  0  0  0  0  0  0  0  0  0
   16.6436   -9.1263   12.3491 N   0  0  0  0  0  0  0  0  0  0  0  0
   16.1379   -9.1442   13.5806 N   0  0  0  0  0  0  0  0  0  0  0  0
   16.7629  -10.0203   14.3970 C   0  0  0  0  0  0  0  0  0  0  0  0
   18.0052  -10.8361   13.6038 S   0  0  0  0  0  0  0  0  0  0  0  0
   18.4159  -10.1327   10.9775 N   0  0  0  0  0  0  0  0  0  0  0  0
   19.0465  -10.8863   10.9162 H   0  0  0  0  0  0  0  0  0  0  0  0
   17.3310   -9.3983    8.8596 C   0  0  0  0  0  0  0  0  0  0  0  0
   17.3037   -8.5027    7.7769 C   0  0  0  0  0  0  0  0  0  0  0  0
   18.2639   -7.4956    7.6630 C   0  0  0  0  0  0  0  0  0  0  0  0
   19.2673   -7.3781    8.6252 C   0  0  0  0  0  0  0  0  0  0  0  0
   19.3007   -8.2573    9.7094 C   0  0  0  0  0  0  0  0  0  0  0  0
   18.3268   -9.2523    9.8505 C   0  0  0  0  0  0  0  0  0  0  0  0
   15.1585  -10.3221    9.6133 C   0  0  0  0  0  0  0  0  0  0  0  0
   16.4059  -10.4452    8.9433 O   0  0  0  0  0  0  0  0  0  0  0  0
 33 34  1  0  0  0
 34 27  1  0  0  0
 27 28  2  0  0  0
 28 29  1  0  0  0
 29 30  2  0  0  0
 30 31  1  0  0  0
 31 32  2  0  0  0
 32 25  1  0  0  0
 32 27  1  0  0  0
 25 20  1  0  0  0
 20 21  2  0  0  0
 21 22  1  0  0  0
 22 23  2  0  0  0
 23 19  1  0  0  0
 23 24  1  0  0  0
 19  1  1  0  0  0
  1  2  1  0  0  0
  2  3  2  0  0  0
  3  4  1  0  0  0
  4  5  2  0  0  0
  5  6  1  0  0  0
  5  7  1  0  0  0
  6  2  1  0  0  0
  7  8  2  0  0  0
  8  9  1  0  0  0
  9 13  1  0  0  0
  9 10  2  0  0  0
 13 14  1  0  0  0
 10 15  1  0  0  0
 10 11  1  0  0  0
 15 16  1  0  0  0
 11 17  1  0  0  0
 11 12  2  0  0  0
 17 18  1  0  0  0
 12  7  1  0  0  0
 24 20  1  0  0  0
 25 26  1  0  0  0
M  END
>  <minimizedAffinity>
-8.21242

>  <minimizedRMSD>
1.71475

$$$$
CHEMBL5281074


 26 28  0  0  0  0  0  0  0  0999 V2000
   15.9190   -8.4804   13.8440 N   0  0  0  0  0  0  0  0  0  0  0  0
   16.1951   -8.7179   15.1395 C   0  0  0  0  0  0  0  0  0  0  0  0
   17.1384   -9.6629   15.3129 N   0  0  0  0  0  0  0  0  0  0  0  0
   17.4926  -10.0577   14.1027 N   0  0  0  0  0  0  0  0  0  0  0  0
   16.7556   -9.3426   13.2296 C   0  0  0  0  0  0  0  0  0  0  0  0
   17.4932   -9.9935   16.1697 H   0  0  0  0  0  0  0  0  0  0  0  0
   16.8527   -9.4862   11.7684 C   0  0  0  0  0  0  0  0  0  0  0  0
   18.0373   -9.1471   11.1014 C   0  0  0  0  0  0  0  0  0  0  0  0
   18.1288   -9.2836    9.7136 C   0  0  0  0  0  0  0  0  0  0  0  0
   17.0341   -9.7620    8.9757 C   0  0  0  0  0  0  0  0  0  0  0  0
   15.8524  -10.1002    9.6426 C   0  0  0  0  0  0  0  0  0  0  0  0
   15.7610   -9.9635   11.0307 C   0  0  0  0  0  0  0  0  0  0  0  0
   17.0937   -9.9101    7.5874 O   0  0  0  0  0  0  0  0  0  0  0  0
   17.8705   -9.0576    6.7571 C   0  0  0  0  0  0  0  0  0  0  0  0
   15.5456   -8.0300   16.2097 N   0  0  0  0  0  0  0  0  0  0  0  0
   15.5217   -8.5048   17.4143 C   0  0  0  0  0  0  0  0  0  0  0  0
   14.8519   -7.7901   18.5054 C   0  0  0  0  0  0  0  0  0  0  0  0
   13.5974   -7.1918   18.3223 C   0  0  0  0  0  0  0  0  0  0  0  0
   12.9700   -6.5108   19.3786 C   0  0  0  0  0  0  0  0  0  0  0  0
   13.6121   -6.4343   20.6229 C   0  0  0  0  0  0  0  0  0  0  0  0
   14.8632   -7.0308   20.8059 C   0  0  0  0  0  0  0  0  0  0  0  0
   15.4807   -7.7064   19.7504 C   0  0  0  0  0  0  0  0  0  0  0  0
   13.0106   -5.7661   21.6819 O   0  0  0  0  0  0  0  0  0  0  0  0
   12.1722   -5.3640   21.5665 H   0  0  0  0  0  0  0  0  0  0  0  0
   11.7185   -5.9079   19.2142 O   0  0  0  0  0  0  0  0  0  0  0  0
   11.5455   -4.6670   18.5433 C   0  0  0  0  0  0  0  0  0  0  0  0
  1  2  2  0  0  0
  2  3  1  0  0  0
  3  4  1  0  0  0
  4  5  2  0  0  0
  5  7  1  0  0  0
  7  8  2  0  0  0
  8  9  1  0  0  0
  9 10  2  0  0  0
 10 11  1  0  0  0
 11 12  2  0  0  0
 10 13  1  0  0  0
 13 14  1  0  0  0
  2 15  1  0  0  0
 15 16  2  0  0  0
 16 17  1  0  0  0
 17 18  2  0  0  0
 18 19  1  0  0  0
 19 20  2  0  0  0
 20 21  1  0  0  0
 21 22  2  0  0  0
 20 23  1  0  0  0
 19 25  1  0  0  0
 25 26  1  0  0  0
  5  1  1  0  0  0
 12  7  1  0  0  0
 22 17  1  0  0  0
  3  6  1  0  0  0
 23 24  1  0  0  0
M  END
>  <minimizedAffinity>
-8.21154

>  <minimizedRMSD>
1.57592

$$$$
CHEMBL3199155 MolPort-001-919-299 PubChem-9590135 ZINC03026839


 30 31  0  0  0  0  0  0  0  0999 V2000
   16.0685   -8.5077   16.0243 N   0  0  0  0  0  0  0  0  0  0  0  0
   17.3232   -9.1176   15.6850 C   0  0  0  0  0  0  0  0  0  0  0  0
   18.2354   -9.2639   16.5422 O   0  0  0  0  0  0  0  0  0  0  0  0
   15.3824   -8.4682   15.3193 H   0  0  0  0  0  0  0  0  0  0  0  0
   14.5143   -7.8169   17.6920 C   0  0  0  0  0  0  0  0  0  0  0  0
   15.7345   -7.9613   17.2785 N   0  0  0  0  0  0  0  0  0  0  0  0
   14.8603   -6.9189   21.3344 C   0  0  0  0  0  0  0  0  0  0  0  0
   15.1060   -7.4510   20.0581 C   0  0  0  0  0  0  0  0  0  0  0  0
   14.2130   -7.2452   19.0080 C   0  0  0  0  0  0  0  0  0  0  0  0
   13.0523   -6.5014   19.2292 C   0  0  0  0  0  0  0  0  0  0  0  0
   12.7823   -5.9571   20.4931 C   0  0  0  0  0  0  0  0  0  0  0  0
   13.6847   -6.1559   21.5536 C   0  0  0  0  0  0  0  0  0  0  0  0
   16.9902   -6.4318   22.5114 C   0  0  0  0  0  0  0  0  0  0  0  0
   15.7688   -7.1475   22.3760 O   0  0  0  0  0  0  0  0  0  0  0  0
   11.6210   -5.2102   20.7193 O   0  0  0  0  0  0  0  0  0  0  0  0
   10.8710   -4.6114   19.6688 C   0  0  0  0  0  0  0  0  0  0  0  0
   13.3618   -5.5761   22.7919 O   0  0  0  0  0  0  0  0  0  0  0  0
   13.8542   -4.3304   23.2635 C   0  0  0  0  0  0  0  0  0  0  0  0
   17.5373   -9.6196   14.3022 C   0  0  0  0  0  0  0  0  0  0  0  0
   16.2677  -10.0415   13.7318 N   0  0  0  0  0  0  0  0  0  0  0  0
   15.9275   -9.8185   12.3623 C   0  0  0  0  0  0  0  0  0  0  0  0
   14.8095  -10.2138   11.9363 O   0  0  0  0  0  0  0  0  0  0  0  0
   15.6171  -10.4988   14.3122 H   0  0  0  0  0  0  0  0  0  0  0  0
   16.8644   -9.1333   11.4586 C   0  0  0  0  0  0  0  0  0  0  0  0
   16.9273   -9.4173   10.1608 C   0  0  0  0  0  0  0  0  0  0  0  0
   17.8613   -8.7310    9.2612 C   0  0  0  0  0  0  0  0  0  0  0  0
   19.0592   -8.1444    9.6194 C   0  0  0  0  0  0  0  0  0  0  0  0
   19.5683   -7.6314    8.4393 C   0  0  0  0  0  0  0  0  0  0  0  0
   18.6516   -7.9364    7.4479 C   0  0  0  0  0  0  0  0  0  0  0  0
   17.6484   -8.5934    7.9785 O   0  0  0  0  0  0  0  0  0  0  0  0
 13 14  1  0  0  0
 14  7  1  0  0  0
  7  8  2  0  0  0
  8  9  1  0  0  0
  9  5  1  0  0  0
  9 10  2  0  0  0
  5  6  2  0  0  0
  6  1  1  0  0  0
  1  2  1  0  0  0
  2  3  2  0  0  0
  2 19  1  0  0  0
 19 20  1  0  0  0
 20 21  1  0  0  0
 21 22  2  0  0  0
 21 24  1  0  0  0
 24 25  2  0  0  0
 25 26  1  0  0  0
 26 27  2  0  0  0
 27 28  1  0  0  0
 28 29  2  0  0  0
 29 30  1  0  0  0
 30 26  1  0  0  0
 10 11  1  0  0  0
 11 15  1  0  0  0
 11 12  2  0  0  0
 15 16  1  0  0  0
 12 17  1  0  0  0
 12  7  1  0  0  0
 17 18  1  0  0  0
  1  4  1  0  0  0
 20 23  1  0  0  0
M  END
>  <minimizedAffinity>
-8.20877

>  <minimizedRMSD>
1.02533

$$$$
CHEMBL3182804 PubChem-60202201


 37 40  0  0  0  0  0  0  0  0999 V2000
   17.1303   -9.8770   16.5260 C   0  0  0  0  0  0  0  0  0  0  0  0
   17.7144   -8.8290   15.5741 C   0  0  0  0  0  0  0  0  0  0  0  0
   18.4107   -9.4757   14.3605 C   0  0  0  0  0  0  0  0  0  0  0  0
   19.7159  -10.1890   14.7430 C   0  0  0  0  0  0  0  0  0  0  0  0
   19.4532  -11.4556   15.5686 C   0  0  0  0  0  0  0  0  0  0  0  0
   18.3501  -12.3284   14.9549 C   0  0  0  0  0  0  0  0  0  0  0  0
   17.1184  -11.4995   14.5609 C   0  0  0  0  0  0  0  0  0  0  0  0
   16.3494  -10.9679   15.7870 C   0  0  0  0  0  0  0  0  0  0  0  0
   17.5322  -10.4205   13.6516 N   0  0  0  0  0  0  0  0  0  0  0  0
   15.4121   -8.1487   17.3067 C   0  0  0  0  0  0  0  0  0  0  0  0
   15.3060   -7.6642   16.1465 O   0  0  0  0  0  0  0  0  0  0  0  0
   16.3027   -9.2469   17.5491 N   0  0  0  0  0  0  0  0  0  0  0  0
   16.3592   -9.5988   18.4668 H   0  0  0  0  0  0  0  0  0  0  0  0
   12.4953   -6.7615   19.2857 C   0  0  0  0  0  0  0  0  0  0  0  0
   13.2642   -7.2984   18.2410 C   0  0  0  0  0  0  0  0  0  0  0  0
   14.6205   -7.5856   18.4139 C   0  0  0  0  0  0  0  0  0  0  0  0
   15.2163   -7.3319   19.6507 C   0  0  0  0  0  0  0  0  0  0  0  0
   14.4725   -6.7961   20.7116 C   0  0  0  0  0  0  0  0  0  0  0  0
   13.1080   -6.5065   20.5393 C   0  0  0  0  0  0  0  0  0  0  0  0
   10.2503   -7.3844   18.4355 C   0  0  0  0  0  0  0  0  0  0  0  0
   11.1383   -6.4834   19.0840 O   0  0  0  0  0  0  0  0  0  0  0  0
   15.0703   -6.5418   21.9515 O   0  0  0  0  0  0  0  0  0  0  0  0
   16.4792   -6.5136   22.1367 C   0  0  0  0  0  0  0  0  0  0  0  0
   12.4188   -5.9713   21.6408 O   0  0  0  0  0  0  0  0  0  0  0  0
   12.1519   -4.5913   21.8446 C   0  0  0  0  0  0  0  0  0  0  0  0
   16.3619   -9.7353   13.1012 C   0  0  0  0  0  0  0  0  0  0  0  0
   16.4466   -9.6138   11.6117 C   0  0  0  0  0  0  0  0  0  0  0  0
   15.4797  -10.0238   10.9172 O   0  0  0  0  0  0  0  0  0  0  0  0
   17.6097   -9.0429   10.9925 N   0  0  0  0  0  0  0  0  0  0  0  0
   18.3316   -8.7521   11.5955 H   0  0  0  0  0  0  0  0  0  0  0  0
   17.8305   -8.8518    9.5888 C   0  0  0  0  0  0  0  0  0  0  0  0
   17.1491   -9.6044    8.6196 C   0  0  0  0  0  0  0  0  0  0  0  0
   17.3900   -9.3891    7.2596 C   0  0  0  0  0  0  0  0  0  0  0  0
   18.3134   -8.4197    6.8593 C   0  0  0  0  0  0  0  0  0  0  0  0
   18.5474   -8.2103    5.5417 F   0  0  0  0  0  0  0  0  0  0  0  0
   18.9951   -7.6665    7.8187 C   0  0  0  0  0  0  0  0  0  0  0  0
   18.7533   -7.8829    9.1787 C   0  0  0  0  0  0  0  0  0  0  0  0
 20 21  1  0  0  0
 21 14  1  0  0  0
 14 15  2  0  0  0
 15 16  1  0  0  0
 16 10  1  0  0  0
 16 17  2  0  0  0
 10 11  2  0  0  0
 10 12  1  0  0  0
  1 12  1  0  0  0
  1  2  1  0  0  0
  3  2  1  0  0  0
  3  4  1  0  0  0
  4  5  1  0  0  0
  5  6  1  0  0  0
  7  6  1  0  0  0
  7  8  1  0  0  0
  7  9  1  0  0  0
  8  1  1  0  0  0
  9 26  1  0  0  0
  9  3  1  0  0  0
 26 27  1  0  0  0
 27 28  2  0  0  0
 27 29  1  0  0  0
 29 31  1  0  0  0
 31 32  2  0  0  0
 32 33  1  0  0  0
 33 34  2  0  0  0
 34 35  1  0  0  0
 34 36  1  0  0  0
 36 37  2  0  0  0
 37 31  1  0  0  0
 17 18  1  0  0  0
 18 22  1  0  0  0
 18 19  2  0  0  0
 22 23  1  0  0  0
 19 24  1  0  0  0
 19 14  1  0  0  0
 24 25  1  0  0  0
 12 13  1  0  0  0
 29 30  1  0  0  0
M  END
>  <minimizedAffinity>
-8.19109

>  <minimizedRMSD>
1.20077

$$$$
CHEMBL4288842 PubChem-145992971 PubChem-162720728


 38 41  0  0  0  0  0  0  0  0999 V2000
   16.0998   -9.3045   18.1194 N   0  0  0  0  0  0  0  0  0  0  0  0
   15.3032   -9.8948   17.8801 H   0  0  0  0  0  0  0  0  0  0  0  0
   15.7321   -7.9007   18.0114 C   0  0  0  0  0  0  0  0  0  0  0  0
   15.2626   -7.0349   21.6607 C   0  0  0  0  0  0  0  0  0  0  0  0
   13.9479   -6.5694   21.7129 C   0  0  0  0  0  0  0  0  0  0  0  0
   13.1742   -6.5248   20.5457 C   0  0  0  0  0  0  0  0  0  0  0  0
   13.7284   -6.9524   19.3141 C   0  0  0  0  0  0  0  0  0  0  0  0
   15.0616   -7.4249   19.2708 C   0  0  0  0  0  0  0  0  0  0  0  0
   15.8133   -7.4586   20.4498 C   0  0  0  0  0  0  0  0  0  0  0  0
   12.9264   -6.8923   18.1664 C   0  0  0  0  0  0  0  0  0  0  0  0
   11.6159   -6.4220   18.2465 C   0  0  0  0  0  0  0  0  0  0  0  0
   11.1103   -6.0121   19.4808 C   0  0  0  0  0  0  0  0  0  0  0  0
    9.9295   -5.5863   19.5652 O   0  0  0  0  0  0  0  0  0  0  0  0
   11.8909   -6.0712   20.5923 N   0  0  0  0  0  0  0  0  0  0  0  0
   13.4168   -6.1534   22.9286 O   0  0  0  0  0  0  0  0  0  0  0  0
   11.5182   -5.7779   21.4550 H   0  0  0  0  0  0  0  0  0  0  0  0
   13.9409   -6.1864   23.7046 H   0  0  0  0  0  0  0  0  0  0  0  0
   14.8503   -7.6706   16.7929 C   0  0  0  0  0  0  0  0  0  0  0  0
   15.6252   -7.2207   15.7233 O   0  0  0  0  0  0  0  0  0  0  0  0
   16.0562   -6.3859   15.9649 H   0  0  0  0  0  0  0  0  0  0  0  0
   17.1885   -9.5312   17.1830 C   0  0  0  0  0  0  0  0  0  0  0  0
   16.8830  -10.7419   16.3146 C   0  0  0  0  0  0  0  0  0  0  0  0
   17.0529  -10.4224   14.8658 C   0  0  0  0  0  0  0  0  0  0  0  0
   18.2088  -10.8150   14.1808 C   0  0  0  0  0  0  0  0  0  0  0  0
   18.3557  -10.5105   12.8247 C   0  0  0  0  0  0  0  0  0  0  0  0
   17.3479   -9.8138   12.1407 C   0  0  0  0  0  0  0  0  0  0  0  0
   16.1922   -9.4306   12.8301 C   0  0  0  0  0  0  0  0  0  0  0  0
   16.0434   -9.7339   14.1867 C   0  0  0  0  0  0  0  0  0  0  0  0
   17.4627   -9.4827   10.7500 N   0  0  0  0  0  0  0  0  0  0  0  0
   18.5805   -8.8553   10.1025 C   0  0  0  0  0  0  0  0  0  0  0  0
   19.6035   -8.5274   10.7629 O   0  0  0  0  0  0  0  0  0  0  0  0
   16.6937   -9.7096   10.1786 H   0  0  0  0  0  0  0  0  0  0  0  0
   18.5312   -8.5918    8.6534 C   0  0  0  0  0  0  0  0  0  0  0  0
   19.3342   -7.5912    8.0854 C   0  0  0  0  0  0  0  0  0  0  0  0
   19.2873   -7.3427    6.7103 C   0  0  0  0  0  0  0  0  0  0  0  0
   18.4375   -8.0928    5.8929 C   0  0  0  0  0  0  0  0  0  0  0  0
   17.6343   -9.0910    6.4503 C   0  0  0  0  0  0  0  0  0  0  0  0
   17.6810   -9.3395    7.8256 C   0  0  0  0  0  0  0  0  0  0  0  0
  4  5  2  0  0  0
  5  6  1  0  0  0
  6  7  2  0  0  0
  7  8  1  0  0  0
  8  9  2  0  0  0
  8  3  1  0  0  0
  3  1  1  0  0  0
  1 21  1  0  0  0
 21 22  1  0  0  0
 22 23  1  0  0  0
 23 24  2  0  0  0
 24 25  1  0  0  0
 25 26  2  0  0  0
 26 27  1  0  0  0
 27 28  2  0  0  0
 26 29  1  0  0  0
 29 30  1  0  0  0
 30 31  2  0  0  0
 30 33  1  0  0  0
 33 34  2  0  0  0
 34 35  1  0  0  0
 35 36  2  0  0  0
 36 37  1  0  0  0
 37 38  2  0  0  0
  3 18  1  0  0  0
 18 19  1  0  0  0
  7 10  1  0  0  0
 10 11  2  0  0  0
 11 12  1  0  0  0
 12 13  2  0  0  0
 12 14  1  0  0  0
  5 15  1  0  0  0
  9  4  1  0  0  0
 28 23  1  0  0  0
 38 33  1  0  0  0
 14  6  1  0  0  0
  1  2  1  0  0  0
 29 32  1  0  0  0
 19 20  1  0  0  0
 14 16  1  0  0  0
 15 17  1  0  0  0
M  END
>  <minimizedAffinity>
-8.19033

>  <minimizedRMSD>
1.68431

$$$$
CHEMBL1860286 PubChem-56662223


 32 35  0  0  0  0  0  0  0  0999 V2000
   16.7187   -8.8532   15.8912 C   0  0  0  0  0  0  0  0  0  0  0  0
   16.8814   -9.8903   16.7838 C   0  0  0  0  0  0  0  0  0  0  0  0
   16.1499   -9.5831   17.8287 O   0  0  0  0  0  0  0  0  0  0  0  0
   15.5685   -8.4272   17.5967 C   0  0  0  0  0  0  0  0  0  0  0  0
   15.8885   -7.9193   16.3898 N   0  0  0  0  0  0  0  0  0  0  0  0
   14.6681   -7.7616   18.5488 C   0  0  0  0  0  0  0  0  0  0  0  0
   15.1424   -7.3588   19.7979 C   0  0  0  0  0  0  0  0  0  0  0  0
   14.3001   -6.7212   20.7227 C   0  0  0  0  0  0  0  0  0  0  0  0
   12.9442   -6.4838   20.3790 C   0  0  0  0  0  0  0  0  0  0  0  0
   12.4700   -6.8909   19.1199 C   0  0  0  0  0  0  0  0  0  0  0  0
   13.3337   -7.5256   18.2158 C   0  0  0  0  0  0  0  0  0  0  0  0
   14.8008   -6.3271   21.9689 O   0  0  0  0  0  0  0  0  0  0  0  0
   16.1542   -6.5227   22.3578 C   0  0  0  0  0  0  0  0  0  0  0  0
   12.0291   -5.8533   21.2390 O   0  0  0  0  0  0  0  0  0  0  0  0
   11.8860   -4.4483   21.3907 C   0  0  0  0  0  0  0  0  0  0  0  0
   11.1312   -6.6531   18.7881 O   0  0  0  0  0  0  0  0  0  0  0  0
   10.3359   -7.5898   18.0737 C   0  0  0  0  0  0  0  0  0  0  0  0
   17.3598   -8.7670   14.5483 C   0  0  0  0  0  0  0  0  0  0  0  0
   17.4673   -9.5454   10.8660 N   0  0  0  0  0  0  0  0  0  0  0  0
   18.5455   -9.7876   11.8274 C   0  0  0  0  0  0  0  0  0  0  0  0
   18.0135  -10.4990   13.0769 C   0  0  0  0  0  0  0  0  0  0  0  0
   16.8533   -9.8223   13.6828 N   0  0  0  0  0  0  0  0  0  0  0  0
   15.9284   -9.1992   12.7177 C   0  0  0  0  0  0  0  0  0  0  0  0
   16.0844   -9.7372   11.2974 C   0  0  0  0  0  0  0  0  0  0  0  0
   18.3503   -8.3716    6.8673 C   0  0  0  0  0  0  0  0  0  0  0  0
   18.9761   -7.7313    7.9479 C   0  0  0  0  0  0  0  0  0  0  0  0
   18.6858   -8.1166    9.2591 C   0  0  0  0  0  0  0  0  0  0  0  0
   17.7659   -9.1468    9.5144 C   0  0  0  0  0  0  0  0  0  0  0  0
   17.1442   -9.7828    8.4273 C   0  0  0  0  0  0  0  0  0  0  0  0
   17.4344   -9.3976    7.1157 C   0  0  0  0  0  0  0  0  0  0  0  0
   19.9038   -7.5851    5.1104 C   0  0  0  0  0  0  0  0  0  0  0  0
   18.6189   -8.0097    5.5444 O   0  0  0  0  0  0  0  0  0  0  0  0
 31 32  1  0  0  0
 32 25  1  0  0  0
 25 26  2  0  0  0
 26 27  1  0  0  0
 27 28  2  0  0  0
 28 19  1  0  0  0
 28 29  1  0  0  0
 19 20  1  0  0  0
 20 21  1  0  0  0
 21 22  1  0  0  0
 22 18  1  0  0  0
 22 23  1  0  0  0
 18  1  1  0  0  0
  1  2  2  0  0  0
  2  3  1  0  0  0
  3  4  1  0  0  0
  4  6  1  0  0  0
  4  5  2  0  0  0
  6  7  2  0  0  0
  7  8  1  0  0  0
  8 12  1  0  0  0
  8  9  2  0  0  0
 12 13  1  0  0  0
  9 14  1  0  0  0
  9 10  1  0  0  0
 14 15  1  0  0  0
 10 16  1  0  0  0
 10 11  2  0  0  0
 16 17  1  0  0  0
 11  6  1  0  0  0
  5  1  1  0  0  0
 23 24  1  0  0  0
 24 19  1  0  0  0
 29 30  2  0  0  0
 30 25  1  0  0  0
M  END
>  <minimizedAffinity>
-8.18559

>  <minimizedRMSD>
1.80492

$$$$
CHEMBL1083066 PubChem-46889786


 26 28  0  0  0  0  0  0  0  0999 V2000
   14.9159   -7.6901   17.6597 C   0  0  0  0  0  0  0  0  0  0  0  0
   15.5767   -7.8162   18.9018 C   0  0  0  0  0  0  0  0  0  0  0  0
   14.9088   -7.5305   20.1013 C   0  0  0  0  0  0  0  0  0  0  0  0
   13.5772   -7.1239   20.0409 C   0  0  0  0  0  0  0  0  0  0  0  0
   12.9240   -7.0005   18.8425 C   0  0  0  0  0  0  0  0  0  0  0  0
   13.5752   -7.2738   17.6354 C   0  0  0  0  0  0  0  0  0  0  0  0
   11.5270   -6.5323   19.0237 C   0  0  0  0  0  0  0  0  0  0  0  0
   10.5218   -7.4888   18.4082 C   0  0  0  0  0  0  0  0  0  0  0  0
   11.3389   -5.1241   18.4991 C   0  0  0  0  0  0  0  0  0  0  0  0
   11.2958   -4.2497   19.7354 C   0  0  0  0  0  0  0  0  0  0  0  0
   10.8308   -5.0886   20.8287 N   0  0  0  0  0  0  0  0  0  0  0  0
   11.3216   -4.5317   22.0845 C   0  0  0  0  0  0  0  0  0  0  0  0
   11.3415   -6.4417   20.5450 C   0  0  0  0  0  0  0  0  0  0  0  0
   12.7180   -6.7638   21.1878 C   0  0  0  0  0  0  0  0  0  0  0  0
   15.5477   -7.9633   16.4365 O   0  0  0  0  0  0  0  0  0  0  0  0
   16.6303   -9.3651   14.7660 N   0  0  0  0  0  0  0  0  0  0  0  0
   16.3144   -9.0973   16.1318 C   0  0  0  0  0  0  0  0  0  0  0  0
   16.7245   -9.8753   17.0362 O   0  0  0  0  0  0  0  0  0  0  0  0
   16.3029   -8.7491   14.0713 H   0  0  0  0  0  0  0  0  0  0  0  0
   17.4208  -10.5197   14.3678 C   0  0  0  0  0  0  0  0  0  0  0  0
   17.8216  -10.3986   12.9056 C   0  0  0  0  0  0  0  0  0  0  0  0
   16.8863   -9.4647   12.1532 C   0  0  0  0  0  0  0  0  0  0  0  0
   16.5996  -10.0071   10.7659 C   0  0  0  0  0  0  0  0  0  0  0  0
   17.5237   -9.3463    9.7655 C   0  0  0  0  0  0  0  0  0  0  0  0
   17.8287   -8.7906    7.3762 C   0  0  0  0  0  0  0  0  0  0  0  0
   17.0087   -9.5935    8.3635 C   0  0  0  0  0  0  0  0  0  0  0  0
 25 26  1  0  0  0
 26 24  1  0  0  0
 24 23  1  0  0  0
 23 22  1  0  0  0
 22 21  1  0  0  0
 21 20  1  0  0  0
 20 16  1  0  0  0
 16 17  1  0  0  0
 17 18  2  0  0  0
 17 15  1  0  0  0
 15  1  1  0  0  0
  1  2  2  0  0  0
  2  3  1  0  0  0
  3  4  2  0  0  0
  4  5  1  0  0  0
  5  6  2  0  0  0
  5  7  1  0  0  0
  6  1  1  0  0  0
  7  8  1  0  0  0
  7  9  1  0  0  0
  9 10  1  0  0  0
 10 11  1  0  0  0
 11 12  1  0  0  0
 13 11  1  0  0  0
 13 14  1  0  0  0
 13  7  1  0  0  0
 14  4  1  0  0  0
 16 19  1  0  0  0
M  END
>  <minimizedAffinity>
-8.18473

>  <minimizedRMSD>
1.79107

$$$$
CHEMBL4515553 PubChem-155539704


 30 33  0  0  0  0  0  0  0  0999 V2000
   16.6972  -10.2242   12.0340 C   0  0  0  0  0  0  0  0  0  0  0  0
   15.7615   -9.3345   12.5696 C   0  0  0  0  0  0  0  0  0  0  0  0
   16.1667   -9.1895   13.8835 C   0  0  0  0  0  0  0  0  0  0  0  0
   15.6128   -8.4182   14.9012 C   0  0  0  0  0  0  0  0  0  0  0  0
   16.2311   -8.4536   16.1714 C   0  0  0  0  0  0  0  0  0  0  0  0
   17.3750   -9.2567   16.3751 C   0  0  0  0  0  0  0  0  0  0  0  0
   17.9128  -10.0267   15.3290 C   0  0  0  0  0  0  0  0  0  0  0  0
   17.2760   -9.9654   14.0897 C   0  0  0  0  0  0  0  0  0  0  0  0
   17.6062  -10.6076   12.9609 N   0  0  0  0  0  0  0  0  0  0  0  0
   18.7178  -11.5278   12.7708 C   0  0  0  0  0  0  0  0  0  0  0  0
   16.6852  -10.7360   10.6147 C   0  0  0  0  0  0  0  0  0  0  0  0
   17.3429   -9.8493    9.6416 N   0  0  0  0  0  0  0  0  0  0  0  0
   16.3427   -9.2312    8.7846 C   0  0  0  0  0  0  0  0  0  0  0  0
   18.0864   -8.7888   10.3142 C   0  0  0  0  0  0  0  0  0  0  0  0
   19.4441   -7.3430    8.5245 C   0  0  0  0  0  0  0  0  0  0  0  0
   18.8307   -7.9950    9.3317 C   0  0  0  0  0  0  0  0  0  0  0  0
   15.7360   -7.7064   17.2430 O   0  0  0  0  0  0  0  0  0  0  0  0
   14.3468   -7.5939   17.5230 C   0  0  0  0  0  0  0  0  0  0  0  0
   14.1516   -7.2390   18.9606 C   0  0  0  0  0  0  0  0  0  0  0  0
   15.0547   -7.7407   19.9010 C   0  0  0  0  0  0  0  0  0  0  0  0
   14.9242   -7.4151   21.2522 C   0  0  0  0  0  0  0  0  0  0  0  0
   13.8883   -6.5747   21.6884 C   0  0  0  0  0  0  0  0  0  0  0  0
   12.9808   -6.0583   20.7508 C   0  0  0  0  0  0  0  0  0  0  0  0
   13.1115   -6.3877   19.3799 C   0  0  0  0  0  0  0  0  0  0  0  0
   12.1905   -5.8525   18.4700 C   0  0  0  0  0  0  0  0  0  0  0  0
   11.1696   -5.0137   18.9168 C   0  0  0  0  0  0  0  0  0  0  0  0
   11.0759   -4.7148   20.2766 C   0  0  0  0  0  0  0  0  0  0  0  0
   11.9726   -5.2368   21.1555 N   0  0  0  0  0  0  0  0  0  0  0  0
   13.7467   -6.2418   23.0407 O   0  0  0  0  0  0  0  0  0  0  0  0
   14.7766   -6.4521   23.9971 C   0  0  0  0  0  0  0  0  0  0  0  0
 15 16  3  0  0  0
 16 14  1  0  0  0
 14 12  1  0  0  0
 12 11  1  0  0  0
 11  1  1  0  0  0
  1  2  2  0  0  0
  2  3  1  0  0  0
  3  4  2  0  0  0
  4  5  1  0  0  0
  5 17  1  0  0  0
 17 18  1  0  0  0
 18 19  1  0  0  0
 19 20  2  0  0  0
 20 21  1  0  0  0
 21 22  2  0  0  0
 22 23  1  0  0  0
 23 24  2  0  0  0
 24 25  1  0  0  0
 25 26  2  0  0  0
 26 27  1  0  0  0
 27 28  2  0  0  0
 22 29  1  0  0  0
 29 30  1  0  0  0
  5  6  2  0  0  0
  6  7  1  0  0  0
  7  8  2  0  0  0
  8  9  1  0  0  0
  9 10  1  0  0  0
 12 13  1  0  0  0
  9  1  1  0  0  0
  8  3  1  0  0  0
 24 19  1  0  0  0
 28 23  1  0  0  0
M  END
>  <minimizedAffinity>
-8.18213

>  <minimizedRMSD>
1.81815

$$$$
CHEMBL1318667


 33 35  0  0  0  0  0  0  0  0999 V2000
   17.1733   -8.4677   15.1567 C   0  0  0  0  0  0  0  0  0  0  0  0
   16.5768   -8.5489   17.6049 N   0  0  0  0  0  0  0  0  0  0  0  0
   16.2138   -8.2128   16.2638 C   0  0  0  0  0  0  0  0  0  0  0  0
   15.0800   -7.7270   16.0070 O   0  0  0  0  0  0  0  0  0  0  0  0
   17.4819   -8.8969   17.7750 H   0  0  0  0  0  0  0  0  0  0  0  0
   15.6653   -8.3987   18.7294 C   0  0  0  0  0  0  0  0  0  0  0  0
   14.5579   -7.4185   18.3788 C   0  0  0  0  0  0  0  0  0  0  0  0
   12.5861   -6.0661   21.9474 C   0  0  0  0  0  0  0  0  0  0  0  0
   13.6652   -6.9625   22.0262 C   0  0  0  0  0  0  0  0  0  0  0  0
   14.3035   -7.4060   20.8661 C   0  0  0  0  0  0  0  0  0  0  0  0
   13.8677   -6.9613   19.6156 C   0  0  0  0  0  0  0  0  0  0  0  0
   12.7987   -6.0652   19.5294 C   0  0  0  0  0  0  0  0  0  0  0  0
   12.1508   -5.6139   20.6915 C   0  0  0  0  0  0  0  0  0  0  0  0
   12.5490   -4.7374   24.0364 C   0  0  0  0  0  0  0  0  0  0  0  0
   11.9351   -5.6125   23.1000 O   0  0  0  0  0  0  0  0  0  0  0  0
   11.0774   -4.7192   20.6215 O   0  0  0  0  0  0  0  0  0  0  0  0
   10.5911   -4.1959   19.3929 C   0  0  0  0  0  0  0  0  0  0  0  0
   17.1419  -10.1917   14.7160 S   0  0  0  0  0  0  0  0  0  0  0  0
   17.5360  -11.1241   16.0563 O   0  0  0  0  0  0  0  0  0  0  0  0
   18.3153  -10.5019   13.4130 C   0  0  0  0  0  0  0  0  0  0  0  0
   17.8054   -9.9716   12.1145 C   0  0  0  0  0  0  0  0  0  0  0  0
   18.5965   -9.6733   11.0678 N   0  0  0  0  0  0  0  0  0  0  0  0
   17.7217   -9.2475   10.1272 C   0  0  0  0  0  0  0  0  0  0  0  0
   16.4728   -9.2796   10.5453 O   0  0  0  0  0  0  0  0  0  0  0  0
   16.4943   -9.7271   11.7741 C   0  0  0  0  0  0  0  0  0  0  0  0
   15.2878   -9.9297   12.6229 C   0  0  0  0  0  0  0  0  0  0  0  0
   18.1123   -8.7950    8.7775 C   0  0  0  0  0  0  0  0  0  0  0  0
   17.5341   -9.4185    7.6625 C   0  0  0  0  0  0  0  0  0  0  0  0
   17.8757   -9.0204    6.3677 C   0  0  0  0  0  0  0  0  0  0  0  0
   18.8004   -7.9927    6.1750 C   0  0  0  0  0  0  0  0  0  0  0  0
   19.3836   -7.3632    7.2769 C   0  0  0  0  0  0  0  0  0  0  0  0
   19.0458   -7.7574    8.5756 C   0  0  0  0  0  0  0  0  0  0  0  0
   19.6317   -7.1230    9.6213 F   0  0  0  0  0  0  0  0  0  0  0  0
 14 15  1  0  0  0
 15  8  1  0  0  0
  8  9  2  0  0  0
  9 10  1  0  0  0
 10 11  2  0  0  0
 11  7  1  0  0  0
 11 12  1  0  0  0
  7  6  1  0  0  0
  6  2  1  0  0  0
  2  3  1  0  0  0
  3  4  2  0  0  0
  3  1  1  0  0  0
 18  1  1  0  0  0
 18 19  1  0  0  0
 18 20  1  0  0  0
 20 21  1  0  0  0
 21 22  1  0  0  0
 22 23  2  0  0  0
 23 27  1  0  0  0
 23 24  1  0  0  0
 27 28  2  0  0  0
 28 29  1  0  0  0
 29 30  2  0  0  0
 30 31  1  0  0  0
 31 32  2  0  0  0
 32 33  1  0  0  0
 32 27  1  0  0  0
 24 25  1  0  0  0
 25 26  1  0  0  0
 25 21  2  0  0  0
 12 13  2  0  0  0
 13 16  1  0  0  0
 13  8  1  0  0  0
 16 17  1  0  0  0
  2  5  1  0  0  0
M  CHG 1  18   1
M  CHG 1  19  -1
M  END
>  <minimizedAffinity>
-8.18104

>  <minimizedRMSD>
1.08713

$$$$
CHEMBL602146 MCULE-1386275807 MolPort-005-015-821 PubChem-45177899


 35 37  0  0  0  0  0  0  0  0999 V2000
   17.3531  -10.6766   16.1045 C   0  0  0  0  0  0  0  0  0  0  0  0
   18.0385  -11.5996   17.0935 C   0  0  0  0  0  0  0  0  0  0  0  0
   17.6479   -9.2264   16.4675 C   0  0  0  0  0  0  0  0  0  0  0  0
   15.5890   -8.0188   17.3213 C   0  0  0  0  0  0  0  0  0  0  0  0
   15.2742   -7.6765   16.1485 O   0  0  0  0  0  0  0  0  0  0  0  0
   16.7784   -8.7822   17.5485 N   0  0  0  0  0  0  0  0  0  0  0  0
   17.0188   -9.0168   18.4739 H   0  0  0  0  0  0  0  0  0  0  0  0
   14.4768   -7.1429   20.8339 C   0  0  0  0  0  0  0  0  0  0  0  0
   15.2747   -7.5134   19.7398 C   0  0  0  0  0  0  0  0  0  0  0  0
   14.7352   -7.6288   18.4566 C   0  0  0  0  0  0  0  0  0  0  0  0
   13.3763   -7.3697   18.2649 C   0  0  0  0  0  0  0  0  0  0  0  0
   12.5561   -6.9974   19.3395 C   0  0  0  0  0  0  0  0  0  0  0  0
   13.0978   -6.8807   20.6310 C   0  0  0  0  0  0  0  0  0  0  0  0
   16.3414   -6.4986   22.3374 C   0  0  0  0  0  0  0  0  0  0  0  0
   15.0448   -7.0351   22.1088 O   0  0  0  0  0  0  0  0  0  0  0  0
   11.1944   -6.7368   19.1470 O   0  0  0  0  0  0  0  0  0  0  0  0
   10.3539   -7.5690   18.3587 C   0  0  0  0  0  0  0  0  0  0  0  0
   12.2236   -6.5034   21.6647 O   0  0  0  0  0  0  0  0  0  0  0  0
   12.1010   -5.1900   22.1915 C   0  0  0  0  0  0  0  0  0  0  0  0
   17.8342  -10.9580   14.7944 O   0  0  0  0  0  0  0  0  0  0  0  0
   17.3228  -10.3530   13.6408 C   0  0  0  0  0  0  0  0  0  0  0  0
   18.1554  -10.2100   12.5257 C   0  0  0  0  0  0  0  0  0  0  0  0
   17.6723   -9.6175   11.3541 C   0  0  0  0  0  0  0  0  0  0  0  0
   16.3539   -9.1543   11.2977 C   0  0  0  0  0  0  0  0  0  0  0  0
   15.5155   -9.2950   12.4066 C   0  0  0  0  0  0  0  0  0  0  0  0
   15.9968   -9.8938   13.5742 C   0  0  0  0  0  0  0  0  0  0  0  0
   18.5722   -9.4472   10.1801 C   0  0  0  0  0  0  0  0  0  0  0  0
   17.8622   -8.7694    9.1029 N   0  0  0  0  0  0  0  0  0  0  0  0
   17.5739   -9.7410    8.0557 C   0  0  0  0  0  0  0  0  0  0  0  0
   18.6777   -7.6679    8.5706 C   0  0  0  0  0  0  0  0  0  0  0  0
   18.9795   -7.7700    7.0989 C   0  0  0  0  0  0  0  0  0  0  0  0
   20.2175   -7.4044    6.5802 C   0  0  0  0  0  0  0  0  0  0  0  0
   20.1187   -7.7076    4.9300 S   0  0  0  0  0  0  0  0  0  0  0  0
   18.5455   -8.2891    4.9401 C   0  0  0  0  0  0  0  0  0  0  0  0
   18.0748   -8.2582    6.2051 N   0  0  0  0  0  0  0  0  0  0  0  0
 14 15  1  0  0  0
 15  8  1  0  0  0
  8  9  2  0  0  0
  9 10  1  0  0  0
 10 11  2  0  0  0
 10  4  1  0  0  0
 11 12  1  0  0  0
 12 16  1  0  0  0
 12 13  2  0  0  0
 16 17  1  0  0  0
 13 18  1  0  0  0
 13  8  1  0  0  0
 18 19  1  0  0  0
  4  5  2  0  0  0
  4  6  1  0  0  0
  6  3  1  0  0  0
  1  3  1  0  0  0
  1  2  1  0  0  0
  1 20  1  0  0  0
 20 21  1  0  0  0
 21 22  2  0  0  0
 22 23  1  0  0  0
 23 27  1  0  0  0
 23 24  2  0  0  0
 27 28  1  0  0  0
 28 29  1  0  0  0
 28 30  1  0  0  0
 30 31  1  0  0  0
 31 32  2  0  0  0
 32 33  1  0  0  0
 33 34  1  0  0  0
 34 35  2  0  0  0
 35 31  1  0  0  0
 24 25  1  0  0  0
 25 26  2  0  0  0
 26 21  1  0  0  0
  6  7  1  0  0  0
M  END
>  <minimizedAffinity>
-8.17711

>  <minimizedRMSD>
1.86458

$$$$
CHEMBL416586 PubChem-9863613


 27 29  0  0  0  0  0  0  0  0999 V2000
   15.0348   -7.8751   17.5544 C   0  0  0  0  0  0  0  0  0  0  0  0
   15.7858   -8.0000   18.7446 C   0  0  0  0  0  0  0  0  0  0  0  0
   15.2354   -7.6340   19.9815 C   0  0  0  0  0  0  0  0  0  0  0  0
   13.9307   -7.1450   20.0108 C   0  0  0  0  0  0  0  0  0  0  0  0
   13.1913   -7.0210   18.8627 C   0  0  0  0  0  0  0  0  0  0  0  0
   13.7231   -7.3787   17.6198 C   0  0  0  0  0  0  0  0  0  0  0  0
   11.8397   -6.4777   19.1407 C   0  0  0  0  0  0  0  0  0  0  0  0
   10.7447   -7.4487   18.7352 C   0  0  0  0  0  0  0  0  0  0  0  0
   11.6343   -5.1232   18.5115 C   0  0  0  0  0  0  0  0  0  0  0  0
   11.1600   -4.2445   19.6466 C   0  0  0  0  0  0  0  0  0  0  0  0
   11.6624   -4.8122   20.8926 N   0  0  0  0  0  0  0  0  0  0  0  0
   11.8256   -6.2432   20.6557 C   0  0  0  0  0  0  0  0  0  0  0  0
   13.1842   -6.7072   21.2103 C   0  0  0  0  0  0  0  0  0  0  0  0
   10.6120   -4.6619   21.8866 C   0  0  0  0  0  0  0  0  0  0  0  0
   11.1464   -3.9082   23.0890 C   0  0  0  0  0  0  0  0  0  0  0  0
   15.5477   -8.2290   16.2968 O   0  0  0  0  0  0  0  0  0  0  0  0
   17.4422   -8.9792   14.9642 N   0  0  0  0  0  0  0  0  0  0  0  0
   16.5320   -9.1950   16.0422 C   0  0  0  0  0  0  0  0  0  0  0  0
   16.6239  -10.2397   16.7431 O   0  0  0  0  0  0  0  0  0  0  0  0
   17.3582   -8.1590   14.4262 H   0  0  0  0  0  0  0  0  0  0  0  0
   18.4904   -9.9332   14.6353 C   0  0  0  0  0  0  0  0  0  0  0  0
   18.1049  -10.7247   13.3951 C   0  0  0  0  0  0  0  0  0  0  0  0
   17.4177   -9.8390   12.3677 C   0  0  0  0  0  0  0  0  0  0  0  0
   18.2701   -9.7199   11.1147 C   0  0  0  0  0  0  0  0  0  0  0  0
   17.5744   -8.8524   10.0812 C   0  0  0  0  0  0  0  0  0  0  0  0
   17.3349   -9.4584    7.6938 C   0  0  0  0  0  0  0  0  0  0  0  0
   16.8132   -9.7146    9.0917 C   0  0  0  0  0  0  0  0  0  0  0  0
 26 27  1  0  0  0
 27 25  1  0  0  0
 25 24  1  0  0  0
 24 23  1  0  0  0
 23 22  1  0  0  0
 22 21  1  0  0  0
 21 17  1  0  0  0
 17 18  1  0  0  0
 18 19  2  0  0  0
 18 16  1  0  0  0
 16  1  1  0  0  0
  1  2  2  0  0  0
  2  3  1  0  0  0
  3  4  2  0  0  0
  4  5  1  0  0  0
  5  6  2  0  0  0
  5  7  1  0  0  0
  6  1  1  0  0  0
  7  8  1  0  0  0
  7  9  1  0  0  0
  9 10  1  0  0  0
 10 11  1  0  0  0
 11 14  1  0  0  0
 14 15  1  0  0  0
 12 11  1  0  0  0
 12 13  1  0  0  0
 12  7  1  0  0  0
 13  4  1  0  0  0
 17 20  1  0  0  0
M  END
>  <minimizedAffinity>
-8.17367

>  <minimizedRMSD>
1.46024

$$$$
CHEMBL4585495 PubChem-135335053


 34 38  0  0  0  0  0  0  0  0999 V2000
   16.4895   -9.2776   15.2592 C   0  0  0  0  0  0  0  0  0  0  0  0
   15.3511   -8.5020   15.5672 C   0  0  0  0  0  0  0  0  0  0  0  0
   15.1508   -8.1323   16.8941 C   0  0  0  0  0  0  0  0  0  0  0  0
   14.1259   -7.3995   17.3612 N   0  0  0  0  0  0  0  0  0  0  0  0
   14.3843   -7.3186   18.6920 C   0  0  0  0  0  0  0  0  0  0  0  0
   15.5577   -8.0011   19.0089 C   0  0  0  0  0  0  0  0  0  0  0  0
   16.0120   -8.5003   17.8516 N   0  0  0  0  0  0  0  0  0  0  0  0
   17.1203   -9.2424   17.6178 C   0  0  0  0  0  0  0  0  0  0  0  0
   17.3759   -9.6454   16.2997 C   0  0  0  0  0  0  0  0  0  0  0  0
   13.5078   -6.5910   19.6408 C   0  0  0  0  0  0  0  0  0  0  0  0
   12.5414   -5.7229   19.1133 C   0  0  0  0  0  0  0  0  0  0  0  0
   11.6818   -5.0053   19.9460 C   0  0  0  0  0  0  0  0  0  0  0  0
   11.7738   -5.1440   21.3358 C   0  0  0  0  0  0  0  0  0  0  0  0
   12.7364   -6.0093   21.8737 C   0  0  0  0  0  0  0  0  0  0  0  0
   13.6065   -6.7362   21.0444 C   0  0  0  0  0  0  0  0  0  0  0  0
   10.4938   -3.9352   19.2239 Cl  0  0  0  0  0  0  0  0  0  0  0  0
   14.5607   -7.5948   21.6037 O   0  0  0  0  0  0  0  0  0  0  0  0
   14.9710   -7.5162   22.9623 C   0  0  0  0  0  0  0  0  0  0  0  0
   10.9069   -4.4198   22.1618 O   0  0  0  0  0  0  0  0  0  0  0  0
   10.9904   -4.4510   23.5801 C   0  0  0  0  0  0  0  0  0  0  0  0
   17.2767   -9.5550   11.1707 N   0  0  0  0  0  0  0  0  0  0  0  0
   18.1775  -10.3650   11.9921 C   0  0  0  0  0  0  0  0  0  0  0  0
   18.1292   -9.8929   13.4443 C   0  0  0  0  0  0  0  0  0  0  0  0
   16.7483   -9.6865   13.9019 N   0  0  0  0  0  0  0  0  0  0  0  0
   15.6348   -9.9408   12.9841 C   0  0  0  0  0  0  0  0  0  0  0  0
   15.9094   -9.2834   11.6331 C   0  0  0  0  0  0  0  0  0  0  0  0
   18.6113   -8.1162    7.4263 C   0  0  0  0  0  0  0  0  0  0  0  0
   19.1442   -7.6414    8.6261 C   0  0  0  0  0  0  0  0  0  0  0  0
   18.6946   -8.1244    9.8154 N   0  0  0  0  0  0  0  0  0  0  0  0
   17.7215   -9.0771    9.8892 C   0  0  0  0  0  0  0  0  0  0  0  0
   17.1625   -9.5767    8.7037 C   0  0  0  0  0  0  0  0  0  0  0  0
   17.6097   -9.0946    7.4736 C   0  0  0  0  0  0  0  0  0  0  0  0
   19.0920   -8.3608    5.0129 C   0  0  0  0  0  0  0  0  0  0  0  0
   19.0889   -7.6053    6.2165 O   0  0  0  0  0  0  0  0  0  0  0  0
 33 34  1  0  0  0
 34 27  1  0  0  0
 27 28  2  0  0  0
 28 29  1  0  0  0
 29 30  2  0  0  0
 30 31  1  0  0  0
 31 32  2  0  0  0
 30 21  1  0  0  0
 21 22  1  0  0  0
 22 23  1  0  0  0
 23 24  1  0  0  0
 24 25  1  0  0  0
 25 26  1  0  0  0
 24  1  1  0  0  0
  1  2  2  0  0  0
  2  3  1  0  0  0
  3  4  2  0  0  0
  4  5  1  0  0  0
  5  6  2  0  0  0
  6  7  1  0  0  0
  7  8  1  0  0  0
  8  9  2  0  0  0
  5 10  1  0  0  0
 10 11  2  0  0  0
 11 12  1  0  0  0
 12 13  2  0  0  0
 13 14  1  0  0  0
 14 15  2  0  0  0
 15 17  1  0  0  0
 17 18  1  0  0  0
 13 19  1  0  0  0
 19 20  1  0  0  0
 12 16  1  0  0  0
 32 27  1  0  0  0
 26 21  1  0  0  0
  9  1  1  0  0  0
  7  3  1  0  0  0
 15 10  1  0  0  0
M  END
>  <minimizedAffinity>
-8.16854

>  <minimizedRMSD>
1.71755

$$$$
CHEMBL3966733 PubChem-53246812


 36 40  0  0  0  0  0  0  0  0999 V2000
   15.6885   -8.2454   16.9013 C   0  0  0  0  0  0  0  0  0  0  0  0
   15.4005   -7.5800   15.8691 O   0  0  0  0  0  0  0  0  0  0  0  0
   16.4498   -9.4556   16.7948 N   0  0  0  0  0  0  0  0  0  0  0  0
   16.6331   -9.9517   17.6251 H   0  0  0  0  0  0  0  0  0  0  0  0
   10.2450   -6.7357   19.1190 C   0  0  0  0  0  0  0  0  0  0  0  0
   11.3940   -5.7361   19.0771 C   0  0  0  0  0  0  0  0  0  0  0  0
   10.9797   -4.2918   19.3088 C   0  0  0  0  0  0  0  0  0  0  0  0
    9.9283   -4.1462   20.3967 C   0  0  0  0  0  0  0  0  0  0  0  0
   10.3536   -4.5837   21.7254 N   0  0  0  0  0  0  0  0  0  0  0  0
   11.5426   -5.2381   22.1961 C   0  0  0  0  0  0  0  0  0  0  0  0
   11.7249   -5.2789   23.4418 O   0  0  0  0  0  0  0  0  0  0  0  0
   12.5543   -5.8914   21.3304 C   0  0  0  0  0  0  0  0  0  0  0  0
   13.7650   -6.3834   21.8332 C   0  0  0  0  0  0  0  0  0  0  0  0
   14.4051   -6.9016   20.7272 C   0  0  0  0  0  0  0  0  0  0  0  0
   13.6010   -6.7210   19.6369 C   0  0  0  0  0  0  0  0  0  0  0  0
   12.4588   -6.1123   19.9925 N   0  0  0  0  0  0  0  0  0  0  0  0
   13.9838   -7.1455   18.3635 C   0  0  0  0  0  0  0  0  0  0  0  0
   15.2365   -7.7789   18.2239 C   0  0  0  0  0  0  0  0  0  0  0  0
   16.0610   -7.9595   19.3607 C   0  0  0  0  0  0  0  0  0  0  0  0
   15.6489   -7.5183   20.6305 C   0  0  0  0  0  0  0  0  0  0  0  0
    9.6982   -4.3929   22.4349 H   0  0  0  0  0  0  0  0  0  0  0  0
   16.9636   -9.9976   15.5745 C   0  0  0  0  0  0  0  0  0  0  0  0
   17.7936  -11.0953   15.5057 C   0  0  0  0  0  0  0  0  0  0  0  0
   18.0535  -11.2825   14.2016 N   0  0  0  0  0  0  0  0  0  0  0  0
   17.3921  -10.3153   13.5256 C   0  0  0  0  0  0  0  0  0  0  0  0
   16.7041   -9.4975   14.3486 N   0  0  0  0  0  0  0  0  0  0  0  0
   18.8939  -12.3429   13.6700 C   0  0  0  0  0  0  0  0  0  0  0  0
   17.3951  -10.1378   12.0608 C   0  0  0  0  0  0  0  0  0  0  0  0
   16.3467  -10.3878   11.4074 O   0  0  0  0  0  0  0  0  0  0  0  0
   18.5713   -9.6944   11.3789 N   0  0  0  0  0  0  0  0  0  0  0  0
   19.3870   -9.5289   11.9048 H   0  0  0  0  0  0  0  0  0  0  0  0
   18.6135   -9.4774    9.9401 C   0  0  0  0  0  0  0  0  0  0  0  0
   17.3177   -8.8377    9.4738 C   0  0  0  0  0  0  0  0  0  0  0  0
   17.7149   -7.6840    8.5816 C   0  0  0  0  0  0  0  0  0  0  0  0
   19.0697   -7.2479    9.0825 C   0  0  0  0  0  0  0  0  0  0  0  0
   19.7316   -8.5057    9.6039 C   0  0  0  0  0  0  0  0  0  0  0  0
  6  5  1  0  0  0
  6  7  1  0  0  0
  7  8  1  0  0  0
  8  9  1  0  0  0
  9 10  1  0  0  0
 10 11  2  0  0  0
 10 12  1  0  0  0
 12 13  2  0  0  0
 13 14  1  0  0  0
 14 15  2  0  0  0
 15 16  1  0  0  0
 15 17  1  0  0  0
 16  6  1  0  0  0
 16 12  1  0  0  0
 17 18  2  0  0  0
 18 19  1  0  0  0
 18  1  1  0  0  0
 19 20  2  0  0  0
 20 14  1  0  0  0
  1  2  2  0  0  0
  1  3  1  0  0  0
  3 22  1  0  0  0
 22 23  2  0  0  0
 23 24  1  0  0  0
 24 25  1  0  0  0
 24 27  1  0  0  0
 25 26  2  0  0  0
 25 28  1  0  0  0
 26 22  1  0  0  0
 28 29  2  0  0  0
 28 30  1  0  0  0
 30 32  1  0  0  0
 32 33  1  0  0  0
 33 34  1  0  0  0
 34 35  1  0  0  0
 35 36  1  0  0  0
 36 32  1  0  0  0
  9 21  1  0  0  0
  3  4  1  0  0  0
 30 31  1  0  0  0
M  END
>  <minimizedAffinity>
-8.16812

>  <minimizedRMSD>
1.58739

$$$$
CHEMBL4526794 46046920 ChemDiv-G802-0051 MCULE-3884229088 MolPort-010-776-485 PubChem-50804980 ZINC000046046920 ZINC46046920


 33 36  0  0  0  0  0  0  0  0999 V2000
   16.9089  -10.4482   15.4457 C   0  0  0  0  0  0  0  0  0  0  0  0
   18.0848  -11.0797   15.6606 N   0  0  0  0  0  0  0  0  0  0  0  0
   18.7432  -11.0951   14.5034 N   0  0  0  0  0  0  0  0  0  0  0  0
   17.9472  -10.4727   13.6123 C   0  0  0  0  0  0  0  0  0  0  0  0
   16.8064  -10.0617   14.1666 N   0  0  0  0  0  0  0  0  0  0  0  0
   15.8442   -9.3958   13.4899 C   0  0  0  0  0  0  0  0  0  0  0  0
   16.0810   -9.1443   12.1304 C   0  0  0  0  0  0  0  0  0  0  0  0
   17.2454   -9.5636   11.5268 N   0  0  0  0  0  0  0  0  0  0  0  0
   18.2039  -10.2296   12.2655 C   0  0  0  0  0  0  0  0  0  0  0  0
   19.2986  -10.5939   11.7556 O   0  0  0  0  0  0  0  0  0  0  0  0
   17.4230   -9.2779   10.1207 C   0  0  0  0  0  0  0  0  0  0  0  0
   18.3828   -8.3467    9.6870 C   0  0  0  0  0  0  0  0  0  0  0  0
   18.5615   -8.0888    8.3250 C   0  0  0  0  0  0  0  0  0  0  0  0
   19.4862   -7.1847    7.9229 F   0  0  0  0  0  0  0  0  0  0  0  0
   17.7872   -8.7641    7.3786 C   0  0  0  0  0  0  0  0  0  0  0  0
   16.8356   -9.6983    7.7937 C   0  0  0  0  0  0  0  0  0  0  0  0
   16.6564   -9.9558    9.1556 C   0  0  0  0  0  0  0  0  0  0  0  0
   15.6688  -10.1714   16.7065 S   0  0  0  0  0  0  0  0  0  0  0  0
   16.1868   -8.4468   16.9400 C   0  0  0  0  0  0  0  0  0  0  0  0
   15.6182   -7.7292   19.2875 N   0  0  0  0  0  0  0  0  0  0  0  0
   15.2704   -7.7737   17.8975 C   0  0  0  0  0  0  0  0  0  0  0  0
   14.1905   -7.2807   17.4764 O   0  0  0  0  0  0  0  0  0  0  0  0
   16.4764   -8.1394   19.5413 H   0  0  0  0  0  0  0  0  0  0  0  0
   13.3841   -6.0216   22.4801 C   0  0  0  0  0  0  0  0  0  0  0  0
   12.8128   -6.0798   21.1842 C   0  0  0  0  0  0  0  0  0  0  0  0
   13.5567   -6.6429   20.1331 C   0  0  0  0  0  0  0  0  0  0  0  0
   14.8448   -7.1486   20.3464 C   0  0  0  0  0  0  0  0  0  0  0  0
   15.3958   -7.0884   21.6263 C   0  0  0  0  0  0  0  0  0  0  0  0
   14.6723   -6.5298   22.6808 C   0  0  0  0  0  0  0  0  0  0  0  0
   13.2061   -4.3831   24.3644 C   0  0  0  0  0  0  0  0  0  0  0  0
   12.7306   -5.4805   23.5978 O   0  0  0  0  0  0  0  0  0  0  0  0
   11.5255   -5.5834   20.9471 O   0  0  0  0  0  0  0  0  0  0  0  0
   11.0351   -5.2940   19.6444 C   0  0  0  0  0  0  0  0  0  0  0  0
 30 31  1  0  0  0
 31 24  1  0  0  0
 24 25  2  0  0  0
 25 32  1  0  0  0
 25 26  1  0  0  0
 32 33  1  0  0  0
 26 27  2  0  0  0
 27 20  1  0  0  0
 27 28  1  0  0  0
 20 21  1  0  0  0
 21 22  2  0  0  0
 21 19  1  0  0  0
 19 18  1  0  0  0
 18  1  1  0  0  0
  1  2  2  0  0  0
  2  3  1  0  0  0
  3  4  2  0  0  0
  4  5  1  0  0  0
  5  6  1  0  0  0
  5  1  1  0  0  0
  6  7  2  0  0  0
  7  8  1  0  0  0
  8  9  1  0  0  0
  8 11  1  0  0  0
  9 10  2  0  0  0
  9  4  1  0  0  0
 11 12  2  0  0  0
 12 13  1  0  0  0
 13 14  1  0  0  0
 13 15  2  0  0  0
 15 16  1  0  0  0
 16 17  2  0  0  0
 17 11  1  0  0  0
 28 29  2  0  0  0
 29 24  1  0  0  0
 20 23  1  0  0  0
M  END
>  <minimizedAffinity>
-8.16035

>  <minimizedRMSD>
1.65491

$$$$
CHEMBL1377698 19552785 CSC027824208 MCULE-5409521383 MCULE-9993298833 MolPort-001-518-344 MolPort-001-987-614 PubChem-1148182 PubChem-17366111 Z109891728 ZBMRJALIRCKUGH-UHFFFAOYSA-N ZINC000019552785 ZINC19552785


 33 36  0  0  0  0  0  0  0  0999 V2000
   15.8945   -7.7932   16.4901 N   0  0  0  0  0  0  0  0  0  0  0  0
   16.9007   -8.8210   16.8044 C   0  0  0  0  0  0  0  0  0  0  0  0
   16.6627  -10.1198   16.0311 C   0  0  0  0  0  0  0  0  0  0  0  0
   16.5635   -9.8141   14.6113 N   0  0  0  0  0  0  0  0  0  0  0  0
   15.5903   -8.8013   14.2241 C   0  0  0  0  0  0  0  0  0  0  0  0
   15.8330   -7.5299   15.0441 C   0  0  0  0  0  0  0  0  0  0  0  0
   17.2791  -10.6064   13.6463 C   0  0  0  0  0  0  0  0  0  0  0  0
   17.7009  -11.7472   13.9830 O   0  0  0  0  0  0  0  0  0  0  0  0
   17.5508  -10.1250   12.2711 C   0  0  0  0  0  0  0  0  0  0  0  0
   16.5327  -10.0490   11.3108 C   0  0  0  0  0  0  0  0  0  0  0  0
   16.8004   -9.5675   10.0271 C   0  0  0  0  0  0  0  0  0  0  0  0
   18.0923   -9.1441    9.6779 C   0  0  0  0  0  0  0  0  0  0  0  0
   19.1081   -9.2088   10.6444 C   0  0  0  0  0  0  0  0  0  0  0  0
   18.8389   -9.6908   11.9280 C   0  0  0  0  0  0  0  0  0  0  0  0
   18.3774   -8.6341    8.3152 C   0  0  0  0  0  0  0  0  0  0  0  0
   19.2298   -7.5328    8.1273 C   0  0  0  0  0  0  0  0  0  0  0  0
   19.4985   -7.0519    6.8426 C   0  0  0  0  0  0  0  0  0  0  0  0
   18.9179   -7.6668    5.7309 C   0  0  0  0  0  0  0  0  0  0  0  0
   18.0689   -8.7624    5.9034 C   0  0  0  0  0  0  0  0  0  0  0  0
   17.8002   -9.2432    7.1880 C   0  0  0  0  0  0  0  0  0  0  0  0
   14.5785   -8.2036   16.9762 C   0  0  0  0  0  0  0  0  0  0  0  0
   14.1423   -6.5180   20.9067 C   0  0  0  0  0  0  0  0  0  0  0  0
   15.3096   -7.1820   20.5156 C   0  0  0  0  0  0  0  0  0  0  0  0
   15.4105   -7.7407   19.2478 C   0  0  0  0  0  0  0  0  0  0  0  0
   14.3451   -7.6648   18.3511 C   0  0  0  0  0  0  0  0  0  0  0  0
   13.1407   -7.0144   18.7308 C   0  0  0  0  0  0  0  0  0  0  0  0
   13.0570   -6.4194   20.0202 C   0  0  0  0  0  0  0  0  0  0  0  0
   15.1332   -5.8461   23.0764 C   0  0  0  0  0  0  0  0  0  0  0  0
   14.0355   -5.9431   22.1786 O   0  0  0  0  0  0  0  0  0  0  0  0
   12.0332   -6.9307   17.8711 O   0  0  0  0  0  0  0  0  0  0  0  0
   10.9013   -7.7880   17.9223 C   0  0  0  0  0  0  0  0  0  0  0  0
   11.9223   -5.7289   20.4821 O   0  0  0  0  0  0  0  0  0  0  0  0
   11.5728   -4.3958   20.1386 C   0  0  0  0  0  0  0  0  0  0  0  0
 28 29  1  0  0  0
 29 22  1  0  0  0
 22 23  2  0  0  0
 23 24  1  0  0  0
 24 25  2  0  0  0
 25 21  1  0  0  0
 25 26  1  0  0  0
 21  1  1  0  0  0
  1  2  1  0  0  0
  2  3  1  0  0  0
  3  4  1  0  0  0
  4  5  1  0  0  0
  4  7  1  0  0  0
  5  6  1  0  0  0
  6  1  1  0  0  0
  7  8  2  0  0  0
  7  9  1  0  0  0
  9 10  2  0  0  0
 10 11  1  0  0  0
 11 12  2  0  0  0
 12 13  1  0  0  0
 12 15  1  0  0  0
 13 14  2  0  0  0
 14  9  1  0  0  0
 15 16  2  0  0  0
 16 17  1  0  0  0
 17 18  2  0  0  0
 18 19  1  0  0  0
 19 20  2  0  0  0
 20 15  1  0  0  0
 26 30  1  0  0  0
 26 27  2  0  0  0
 30 31  1  0  0  0
 27 32  1  0  0  0
 27 22  1  0  0  0
 32 33  1  0  0  0
M  END
>  <minimizedAffinity>
-8.14683

>  <minimizedRMSD>
1.52789

$$$$
CHEMBL4539994 PubChem-135281300


 34 38  0  0  0  0  0  0  0  0999 V2000
   15.5304   -8.2713   17.3093 C   0  0  0  0  0  0  0  0  0  0  0  0
   16.3771   -9.3753   17.2170 C   0  0  0  0  0  0  0  0  0  0  0  0
   16.6160   -9.5393   15.9089 N   0  0  0  0  0  0  0  0  0  0  0  0
   17.3776  -10.4728   15.2902 C   0  0  0  0  0  0  0  0  0  0  0  0
   17.4657  -10.4285   13.8919 C   0  0  0  0  0  0  0  0  0  0  0  0
   16.7731   -9.4288   13.1685 C   0  0  0  0  0  0  0  0  0  0  0  0
   15.9929   -8.4851   13.8699 C   0  0  0  0  0  0  0  0  0  0  0  0
   15.9445   -8.5802   15.2577 C   0  0  0  0  0  0  0  0  0  0  0  0
   15.2563   -7.7689   16.0786 N   0  0  0  0  0  0  0  0  0  0  0  0
   13.6291   -7.4050   18.7476 C   0  0  0  0  0  0  0  0  0  0  0  0
   13.1910   -6.8806   19.9747 C   0  0  0  0  0  0  0  0  0  0  0  0
   14.0859   -6.6597   21.0308 C   0  0  0  0  0  0  0  0  0  0  0  0
   15.4396   -6.9691   20.8542 C   0  0  0  0  0  0  0  0  0  0  0  0
   15.8848   -7.4906   19.6388 C   0  0  0  0  0  0  0  0  0  0  0  0
   14.9973   -7.7153   18.5759 C   0  0  0  0  0  0  0  0  0  0  0  0
   16.5990   -6.7109   22.1454 Cl  0  0  0  0  0  0  0  0  0  0  0  0
   11.3142   -7.4719   17.8620 C   0  0  0  0  0  0  0  0  0  0  0  0
   12.7193   -7.6184   17.7048 O   0  0  0  0  0  0  0  0  0  0  0  0
   13.6500   -6.1372   22.2537 O   0  0  0  0  0  0  0  0  0  0  0  0
   12.3201   -5.6834   22.4661 C   0  0  0  0  0  0  0  0  0  0  0  0
   16.8534   -9.3826   11.7319 N   0  0  0  0  0  0  0  0  0  0  0  0
   18.0838   -8.9807   11.0590 C   0  0  0  0  0  0  0  0  0  0  0  0
   18.3362   -9.9009    9.8620 C   0  0  0  0  0  0  0  0  0  0  0  0
   17.1690   -9.9974    8.9712 N   0  0  0  0  0  0  0  0  0  0  0  0
   15.9770  -10.4381    9.7094 C   0  0  0  0  0  0  0  0  0  0  0  0
   15.6609   -9.5352   10.9054 C   0  0  0  0  0  0  0  0  0  0  0  0
   16.9085   -8.7107    8.3271 C   0  0  0  0  0  0  0  0  0  0  0  0
   17.9861   -8.3897    7.3429 C   0  0  0  0  0  0  0  0  0  0  0  0
   19.0003   -7.4816    7.6717 C   0  0  0  0  0  0  0  0  0  0  0  0
   19.9907   -7.1937    6.7298 C   0  0  0  0  0  0  0  0  0  0  0  0
   19.9636   -7.7884    5.5067 N   0  0  0  0  0  0  0  0  0  0  0  0
   18.9853   -8.6696    5.1650 C   0  0  0  0  0  0  0  0  0  0  0  0
   17.9768   -8.9853    6.0780 C   0  0  0  0  0  0  0  0  0  0  0  0
   19.0341   -6.8846    8.8892 F   0  0  0  0  0  0  0  0  0  0  0  0
 17 18  1  0  0  0
 18 10  1  0  0  0
 10 11  2  0  0  0
 11 12  1  0  0  0
 12 13  2  0  0  0
 13 14  1  0  0  0
 14 15  2  0  0  0
 15  1  1  0  0  0
  1  2  2  0  0  0
  2  3  1  0  0  0
  3  4  1  0  0  0
  4  5  2  0  0  0
  5  6  1  0  0  0
  6  7  2  0  0  0
  7  8  1  0  0  0
  8  9  2  0  0  0
  6 21  1  0  0  0
 21 22  1  0  0  0
 22 23  1  0  0  0
 23 24  1  0  0  0
 24 25  1  0  0  0
 25 26  1  0  0  0
 24 27  1  0  0  0
 27 28  1  0  0  0
 28 29  2  0  0  0
 29 30  1  0  0  0
 30 31  2  0  0  0
 31 32  1  0  0  0
 32 33  2  0  0  0
 29 34  1  0  0  0
 13 16  1  0  0  0
 12 19  1  0  0  0
 19 20  1  0  0  0
 15 10  1  0  0  0
  9  1  1  0  0  0
  8  3  1  0  0  0
 26 21  1  0  0  0
 33 28  1  0  0  0
M  END
>  <minimizedAffinity>
-8.13877

>  <minimizedRMSD>
1.74225

$$$$
CHEMBL1862070 PubChem-56682899


 26 28  0  0  0  0  0  0  0  0999 V2000
   15.7968   -7.7623   16.6257 N   0  0  0  0  0  0  0  0  0  0  0  0
   16.2927   -7.0677   17.1842 H   0  0  0  0  0  0  0  0  0  0  0  0
   14.3990   -7.8169   17.0290 C   0  0  0  0  0  0  0  0  0  0  0  0
   14.0078   -6.5154   21.1057 C   0  0  0  0  0  0  0  0  0  0  0  0
   15.0827   -7.3334   20.7188 C   0  0  0  0  0  0  0  0  0  0  0  0
   15.2067   -7.7609   19.3953 C   0  0  0  0  0  0  0  0  0  0  0  0
   14.2559   -7.3791   18.4462 C   0  0  0  0  0  0  0  0  0  0  0  0
   13.1877   -6.5600   18.8214 C   0  0  0  0  0  0  0  0  0  0  0  0
   13.0551   -6.1254   20.1508 C   0  0  0  0  0  0  0  0  0  0  0  0
   14.9803   -5.7868   23.2629 C   0  0  0  0  0  0  0  0  0  0  0  0
   13.8682   -6.0790   22.4277 O   0  0  0  0  0  0  0  0  0  0  0  0
   11.9893   -5.3081   20.5430 O   0  0  0  0  0  0  0  0  0  0  0  0
   10.7418   -5.2913   19.8626 C   0  0  0  0  0  0  0  0  0  0  0  0
   16.3726   -9.0805   16.8481 C   0  0  0  0  0  0  0  0  0  0  0  0
   16.7589   -9.6996   15.5482 C   0  0  0  0  0  0  0  0  0  0  0  0
   17.3136  -10.9524   15.3996 C   0  0  0  0  0  0  0  0  0  0  0  0
   17.5064  -11.1093   14.1113 O   0  0  0  0  0  0  0  0  0  0  0  0
   17.0978  -10.0198   13.4998 C   0  0  0  0  0  0  0  0  0  0  0  0
   16.6176   -9.0948   14.3547 N   0  0  0  0  0  0  0  0  0  0  0  0
   17.1583   -9.8309   12.0432 C   0  0  0  0  0  0  0  0  0  0  0  0
   16.0255  -10.0756   11.2554 C   0  0  0  0  0  0  0  0  0  0  0  0
   16.0786   -9.8969    9.8699 C   0  0  0  0  0  0  0  0  0  0  0  0
   17.2650   -9.4726    9.2651 C   0  0  0  0  0  0  0  0  0  0  0  0
   17.3373   -9.2293    7.3769 Br  0  0  0  0  0  0  0  0  0  0  0  0
   18.3984   -9.2268   10.0450 C   0  0  0  0  0  0  0  0  0  0  0  0
   18.3454   -9.4053   11.4305 C   0  0  0  0  0  0  0  0  0  0  0  0
 10 11  1  0  0  0
 11  4  1  0  0  0
  4  5  2  0  0  0
  5  6  1  0  0  0
  6  7  2  0  0  0
  7  3  1  0  0  0
  7  8  1  0  0  0
  3  1  1  0  0  0
  1 14  1  0  0  0
 14 15  1  0  0  0
 15 16  2  0  0  0
 16 17  1  0  0  0
 17 18  1  0  0  0
 18 20  1  0  0  0
 18 19  2  0  0  0
 20 21  2  0  0  0
 21 22  1  0  0  0
 22 23  2  0  0  0
 23 24  1  0  0  0
 23 25  1  0  0  0
 25 26  2  0  0  0
 26 20  1  0  0  0
 19 15  1  0  0  0
  8  9  2  0  0  0
  9 12  1  0  0  0
  9  4  1  0  0  0
 12 13  1  0  0  0
  1  2  1  0  0  0
M  END
>  <minimizedAffinity>
-8.11027

>  <minimizedRMSD>
1.60772

$$$$
CHEMBL5188245


 35 37  0  0  0  0  0  0  0  0999 V2000
   16.3103   -9.1118   16.1863 C   0  0  0  0  0  0  0  0  0  0  0  0
   17.1737  -10.1719   16.4947 C   0  0  0  0  0  0  0  0  0  0  0  0
   17.8373  -10.8610   15.4766 C   0  0  0  0  0  0  0  0  0  0  0  0
   17.6419  -10.4939   14.1431 C   0  0  0  0  0  0  0  0  0  0  0  0
   16.7810   -9.4330   13.8202 C   0  0  0  0  0  0  0  0  0  0  0  0
   16.1195   -8.7495   14.8456 C   0  0  0  0  0  0  0  0  0  0  0  0
   14.7375   -7.3747   19.2674 C   0  0  0  0  0  0  0  0  0  0  0  0
   14.0750   -7.0054   18.1474 N   0  0  0  0  0  0  0  0  0  0  0  0
   14.5559   -7.5621   17.0365 N   0  0  0  0  0  0  0  0  0  0  0  0
   15.6087   -8.3828   17.2553 C   0  0  0  0  0  0  0  0  0  0  0  0
   15.9889   -8.4448   18.8981 S   0  0  0  0  0  0  0  0  0  0  0  0
   13.7185   -5.9652   23.1929 C   0  0  0  0  0  0  0  0  0  0  0  0
   12.8126   -5.8230   22.1281 C   0  0  0  0  0  0  0  0  0  0  0  0
   13.1559   -6.2872   20.8492 C   0  0  0  0  0  0  0  0  0  0  0  0
   14.3929   -6.8932   20.6149 C   0  0  0  0  0  0  0  0  0  0  0  0
   15.2942   -7.0348   21.6734 C   0  0  0  0  0  0  0  0  0  0  0  0
   14.9720   -6.5796   22.9540 C   0  0  0  0  0  0  0  0  0  0  0  0
   15.9080   -6.7479   23.9664 O   0  0  0  0  0  0  0  0  0  0  0  0
   16.7300   -7.1578   23.7811 H   0  0  0  0  0  0  0  0  0  0  0  0
   11.5739   -5.2158   22.3646 O   0  0  0  0  0  0  0  0  0  0  0  0
   10.7454   -4.7231   21.3201 C   0  0  0  0  0  0  0  0  0  0  0  0
   13.3237   -5.4829   24.4519 O   0  0  0  0  0  0  0  0  0  0  0  0
   13.7007   -4.2258   24.9946 C   0  0  0  0  0  0  0  0  0  0  0  0
   16.5620   -9.0410   12.4952 O   0  0  0  0  0  0  0  0  0  0  0  0
   16.8867   -9.8583   11.3741 C   0  0  0  0  0  0  0  0  0  0  0  0
   18.2864   -9.5401   10.8638 C   0  0  0  0  0  0  0  0  0  0  0  0
   18.2350   -8.5819    9.6851 C   0  0  0  0  0  0  0  0  0  0  0  0
   17.7110   -9.2911    8.4468 C   0  0  0  0  0  0  0  0  0  0  0  0
   17.3153   -8.2813    7.3818 C   0  0  0  0  0  0  0  0  0  0  0  0
   18.4408   -8.0399    6.4341 C   0  0  0  0  0  0  0  0  0  0  0  0
   18.7488   -8.9216    5.5891 O   0  0  0  0  0  0  0  0  0  0  0  0
   19.1798   -6.8228    6.5071 N   0  0  0  0  0  0  0  0  0  0  0  0
   20.2147   -6.5876    5.6673 O   0  0  0  0  0  0  0  0  0  0  0  0
   18.9340   -6.1446    7.1771 H   0  0  0  0  0  0  0  0  0  0  0  0
   20.3277   -7.3459    5.0731 H   0  0  0  0  0  0  0  0  0  0  0  0
 12 13  2  0  0  0
 13 14  1  0  0  0
 14 15  2  0  0  0
 15  7  1  0  0  0
  7  8  2  0  0  0
  8  9  1  0  0  0
  9 10  2  0  0  0
 10  1  1  0  0  0
  1  2  2  0  0  0
  2  3  1  0  0  0
  3  4  2  0  0  0
  4  5  1  0  0  0
  5 24  1  0  0  0
 24 25  1  0  0  0
 25 26  1  0  0  0
 26 27  1  0  0  0
 27 28  1  0  0  0
 28 29  1  0  0  0
 29 30  1  0  0  0
 30 31  2  0  0  0
 30 32  1  0  0  0
 32 33  1  0  0  0
  5  6  2  0  0  0
 10 11  1  0  0  0
 15 16  1  0  0  0
 16 17  2  0  0  0
 17 18  1  0  0  0
 13 20  1  0  0  0
 20 21  1  0  0  0
 12 22  1  0  0  0
 22 23  1  0  0  0
 17 12  1  0  0  0
 11  7  1  0  0  0
  6  1  1  0  0  0
 32 34  1  0  0  0
 33 35  1  0  0  0
 18 19  1  0  0  0
M  END
>  <minimizedAffinity>
-8.09773

>  <minimizedRMSD>
1.70470

$$$$
CHEMBL4586890 PubChem-135334871


 33 37  0  0  0  0  0  0  0  0999 V2000
   14.2266   -7.2905   18.8423 C   0  0  0  0  0  0  0  0  0  0  0  0
   15.4966   -7.7903   19.1279 C   0  0  0  0  0  0  0  0  0  0  0  0
   15.9473   -8.3106   17.9785 N   0  0  0  0  0  0  0  0  0  0  0  0
   17.1298   -8.9187   17.7218 C   0  0  0  0  0  0  0  0  0  0  0  0
   17.3623   -9.3814   16.4192 C   0  0  0  0  0  0  0  0  0  0  0  0
   16.3778   -9.2089   15.4169 C   0  0  0  0  0  0  0  0  0  0  0  0
   15.1652   -8.5660   15.7469 C   0  0  0  0  0  0  0  0  0  0  0  0
   14.9922   -8.1285   17.0568 C   0  0  0  0  0  0  0  0  0  0  0  0
   13.9064   -7.5015   17.5403 N   0  0  0  0  0  0  0  0  0  0  0  0
   12.0214   -6.2236   19.5004 C   0  0  0  0  0  0  0  0  0  0  0  0
   11.2350   -5.5907   20.4769 C   0  0  0  0  0  0  0  0  0  0  0  0
   11.7343   -5.3437   21.7633 C   0  0  0  0  0  0  0  0  0  0  0  0
   13.0410   -5.7371   22.0751 C   0  0  0  0  0  0  0  0  0  0  0  0
   13.8304   -6.3666   21.1118 C   0  0  0  0  0  0  0  0  0  0  0  0
   13.3400   -6.6182   19.8217 C   0  0  0  0  0  0  0  0  0  0  0  0
   13.7119   -5.4504   23.6706 Cl  0  0  0  0  0  0  0  0  0  0  0  0
   10.5757   -7.5011   17.9428 C   0  0  0  0  0  0  0  0  0  0  0  0
   11.5042   -6.4613   18.2210 O   0  0  0  0  0  0  0  0  0  0  0  0
   10.9512   -4.7132   22.7366 O   0  0  0  0  0  0  0  0  0  0  0  0
   10.7522   -3.3065   22.7713 C   0  0  0  0  0  0  0  0  0  0  0  0
   16.6123   -9.6798   14.0753 N   0  0  0  0  0  0  0  0  0  0  0  0
   15.4836  -10.0476   13.2163 C   0  0  0  0  0  0  0  0  0  0  0  0
   15.6784   -9.4671   11.8168 C   0  0  0  0  0  0  0  0  0  0  0  0
   17.0427   -9.6964   11.3241 N   0  0  0  0  0  0  0  0  0  0  0  0
   18.0108  -10.4064   12.1611 C   0  0  0  0  0  0  0  0  0  0  0  0
   17.9862   -9.8436   13.5810 C   0  0  0  0  0  0  0  0  0  0  0  0
   17.4239   -9.2674   10.0053 C   0  0  0  0  0  0  0  0  0  0  0  0
   18.5185   -8.4714    9.8351 N   0  0  0  0  0  0  0  0  0  0  0  0
   18.9136   -8.0407    8.6069 C   0  0  0  0  0  0  0  0  0  0  0  0
   18.1930   -8.4107    7.4705 C   0  0  0  0  0  0  0  0  0  0  0  0
   17.0685   -9.2235    7.6125 C   0  0  0  0  0  0  0  0  0  0  0  0
   16.6789   -9.6553    8.8810 C   0  0  0  0  0  0  0  0  0  0  0  0
   20.0077   -7.2515    8.4867 F   0  0  0  0  0  0  0  0  0  0  0  0
 17 18  1  0  0  0
 18 10  1  0  0  0
 10 11  2  0  0  0
 11 12  1  0  0  0
 12 13  2  0  0  0
 13 14  1  0  0  0
 14 15  2  0  0  0
 15  1  1  0  0  0
  1  2  2  0  0  0
  2  3  1  0  0  0
  3  4  1  0  0  0
  4  5  2  0  0  0
  5  6  1  0  0  0
  6  7  2  0  0  0
  7  8  1  0  0  0
  8  9  2  0  0  0
  6 21  1  0  0  0
 21 22  1  0  0  0
 22 23  1  0  0  0
 23 24  1  0  0  0
 24 25  1  0  0  0
 25 26  1  0  0  0
 24 27  1  0  0  0
 27 28  2  0  0  0
 28 29  1  0  0  0
 29 30  2  0  0  0
 30 31  1  0  0  0
 31 32  2  0  0  0
 29 33  1  0  0  0
 13 16  1  0  0  0
 12 19  1  0  0  0
 19 20  1  0  0  0
 15 10  1  0  0  0
  9  1  1  0  0  0
  8  3  1  0  0  0
 26 21  1  0  0  0
 32 27  1  0  0  0
M  END
>  <minimizedAffinity>
-8.09658

>  <minimizedRMSD>
1.69117

$$$$
CHEMBL246300 PubChem-44143538


 36 40  0  0  0  0  0  0  0  0999 V2000
   15.6853   -8.0959   17.0691 C   0  0  0  0  0  0  0  0  0  0  0  0
   15.0997   -7.7695   16.0006 O   0  0  0  0  0  0  0  0  0  0  0  0
   16.8802   -8.8871   17.0282 N   0  0  0  0  0  0  0  0  0  0  0  0
   17.3025   -9.1172   17.8873 H   0  0  0  0  0  0  0  0  0  0  0  0
   11.4034   -4.2783   18.5881 C   0  0  0  0  0  0  0  0  0  0  0  0
   11.0555   -5.6009   19.2454 C   0  0  0  0  0  0  0  0  0  0  0  0
    9.7910   -5.4425   20.1196 C   0  0  0  0  0  0  0  0  0  0  0  0
   10.0772   -4.8784   21.4476 N   0  0  0  0  0  0  0  0  0  0  0  0
   11.2567   -5.2508   22.1690 C   0  0  0  0  0  0  0  0  0  0  0  0
   11.3831   -4.9670   23.3887 O   0  0  0  0  0  0  0  0  0  0  0  0
   12.3177   -5.9212   21.4283 C   0  0  0  0  0  0  0  0  0  0  0  0
   13.4908   -6.3792   21.9266 N   0  0  0  0  0  0  0  0  0  0  0  0
   14.1305   -6.8482   20.8334 C   0  0  0  0  0  0  0  0  0  0  0  0
   15.3974   -7.4243   20.7994 C   0  0  0  0  0  0  0  0  0  0  0  0
   15.8975   -7.8336   19.5501 C   0  0  0  0  0  0  0  0  0  0  0  0
   15.1387   -7.6616   18.3665 C   0  0  0  0  0  0  0  0  0  0  0  0
   13.8589   -7.0719   18.4345 C   0  0  0  0  0  0  0  0  0  0  0  0
   13.3901   -6.6822   19.6856 C   0  0  0  0  0  0  0  0  0  0  0  0
   12.2150   -6.0881   20.0657 C   0  0  0  0  0  0  0  0  0  0  0  0
    9.4481   -4.2348   21.8466 H   0  0  0  0  0  0  0  0  0  0  0  0
   13.8023   -6.3719   22.8605 H   0  0  0  0  0  0  0  0  0  0  0  0
   17.5061   -9.3680   15.8350 C   0  0  0  0  0  0  0  0  0  0  0  0
   16.9252   -9.3719   14.6185 N   0  0  0  0  0  0  0  0  0  0  0  0
   17.7561   -9.8868   13.6702 C   0  0  0  0  0  0  0  0  0  0  0  0
   19.0128  -10.3003   14.1215 C   0  0  0  0  0  0  0  0  0  0  0  0
   19.0556   -9.9966   15.7789 S   0  0  0  0  0  0  0  0  0  0  0  0
   17.3454   -9.9944   12.2643 C   0  0  0  0  0  0  0  0  0  0  0  0
   16.1520  -10.2872   11.9817 O   0  0  0  0  0  0  0  0  0  0  0  0
   18.2985   -9.7716   11.2205 N   0  0  0  0  0  0  0  0  0  0  0  0
   19.2294   -9.5680   11.4678 H   0  0  0  0  0  0  0  0  0  0  0  0
   17.9501   -9.8333    9.8086 C   0  0  0  0  0  0  0  0  0  0  0  0
   19.1194   -9.3014    8.9663 C   0  0  0  0  0  0  0  0  0  0  0  0
   18.9426   -7.8233    8.6267 C   0  0  0  0  0  0  0  0  0  0  0  0
   17.6675   -7.5893    7.8055 C   0  0  0  0  0  0  0  0  0  0  0  0
   16.5408   -8.5820    8.1241 C   0  0  0  0  0  0  0  0  0  0  0  0
   16.6312   -9.0819    9.5627 C   0  0  0  0  0  0  0  0  0  0  0  0
  6  5  1  0  0  0
  6  7  1  0  0  0
  7  8  1  0  0  0
  8  9  1  0  0  0
  9 10  2  0  0  0
  9 11  1  0  0  0
 11 12  1  0  0  0
 12 13  1  0  0  0
 13 14  2  0  0  0
 14 15  1  0  0  0
 15 16  2  0  0  0
 16  1  1  0  0  0
 16 17  1  0  0  0
  1  2  2  0  0  0
  1  3  1  0  0  0
  3 22  1  0  0  0
 22 23  2  0  0  0
 23 24  1  0  0  0
 24 27  1  0  0  0
 24 25  2  0  0  0
 27 28  2  0  0  0
 27 29  1  0  0  0
 29 31  1  0  0  0
 31 32  1  0  0  0
 32 33  1  0  0  0
 33 34  1  0  0  0
 34 35  1  0  0  0
 35 36  1  0  0  0
 36 31  1  0  0  0
 25 26  1  0  0  0
 26 22  1  0  0  0
 17 18  2  0  0  0
 18 19  1  0  0  0
 18 13  1  0  0  0
 19  6  1  0  0  0
 19 11  2  0  0  0
  8 20  1  0  0  0
 12 21  1  0  0  0
  3  4  1  0  0  0
 29 30  1  0  0  0
M  END
>  <minimizedAffinity>
-8.09438

>  <minimizedRMSD>
1.62165

$$$$
CHEMBL1321012 ChemDiv-D065-0166 MCULE-2163028359 MolPort-007-687-347 PubChem-16013233 ZINC000008612149 ZINC08612149


 30 33  0  0  0  0  0  0  0  0999 V2000
   15.5195   -8.1981   17.5459 C   0  0  0  0  0  0  0  0  0  0  0  0
   16.5077   -9.1026   17.7027 N   0  0  0  0  0  0  0  0  0  0  0  0
   16.9239   -9.3537   16.4994 O   0  0  0  0  0  0  0  0  0  0  0  0
   16.2376   -8.6426   15.6413 C   0  0  0  0  0  0  0  0  0  0  0  0
   15.3126   -7.8778   16.2503 N   0  0  0  0  0  0  0  0  0  0  0  0
   13.2903   -6.5069   20.7991 C   0  0  0  0  0  0  0  0  0  0  0  0
   12.7646   -6.4669   19.4833 C   0  0  0  0  0  0  0  0  0  0  0  0
   13.5095   -7.0270   18.4311 C   0  0  0  0  0  0  0  0  0  0  0  0
   14.7542   -7.6209   18.6620 C   0  0  0  0  0  0  0  0  0  0  0  0
   15.2638   -7.6565   19.9625 C   0  0  0  0  0  0  0  0  0  0  0  0
   14.5369   -7.1043   21.0178 C   0  0  0  0  0  0  0  0  0  0  0  0
   12.6886   -4.6185   22.3282 C   0  0  0  0  0  0  0  0  0  0  0  0
   12.6312   -5.9776   21.9191 O   0  0  0  0  0  0  0  0  0  0  0  0
   11.5201   -5.8790   19.2279 O   0  0  0  0  0  0  0  0  0  0  0  0
   11.3773   -4.5863   18.6531 C   0  0  0  0  0  0  0  0  0  0  0  0
   16.4310   -8.6968   14.1681 C   0  0  0  0  0  0  0  0  0  0  0  0
   17.1257  -10.3082   13.7037 S   0  0  0  0  0  0  0  0  0  0  0  0
   16.9269   -9.9721   11.9558 C   0  0  0  0  0  0  0  0  0  0  0  0
   15.7925  -10.2150   11.2749 N   0  0  0  0  0  0  0  0  0  0  0  0
   16.0133   -9.8487   10.0201 N   0  0  0  0  0  0  0  0  0  0  0  0
   17.2808   -9.3887    9.9515 C   0  0  0  0  0  0  0  0  0  0  0  0
   17.8799   -9.4562   11.1604 N   0  0  0  0  0  0  0  0  0  0  0  0
   19.2263   -9.0644   11.5509 C   0  0  0  0  0  0  0  0  0  0  0  0
   17.8905   -8.8904    8.6973 C   0  0  0  0  0  0  0  0  0  0  0  0
   18.8044   -7.8258    8.6973 C   0  0  0  0  0  0  0  0  0  0  0  0
   19.3719   -7.3753    7.5018 C   0  0  0  0  0  0  0  0  0  0  0  0
   19.0296   -7.9869    6.2933 C   0  0  0  0  0  0  0  0  0  0  0  0
   19.7387   -7.4233    4.7956 Cl  0  0  0  0  0  0  0  0  0  0  0  0
   18.1209   -9.0484    6.2808 C   0  0  0  0  0  0  0  0  0  0  0  0
   17.5551   -9.4979    7.4777 C   0  0  0  0  0  0  0  0  0  0  0  0
 12 13  1  0  0  0
 13  6  1  0  0  0
  6  7  2  0  0  0
  7 14  1  0  0  0
  7  8  1  0  0  0
 14 15  1  0  0  0
  8  9  2  0  0  0
  9 10  1  0  0  0
  9  1  1  0  0  0
 10 11  2  0  0  0
 11  6  1  0  0  0
  1  2  2  0  0  0
  2  3  1  0  0  0
  3  4  1  0  0  0
  4 16  1  0  0  0
  4  5  2  0  0  0
 16 17  1  0  0  0
 17 18  1  0  0  0
 18 19  2  0  0  0
 19 20  1  0  0  0
 20 21  2  0  0  0
 21 22  1  0  0  0
 21 24  1  0  0  0
 22 23  1  0  0  0
 22 18  1  0  0  0
 24 25  2  0  0  0
 25 26  1  0  0  0
 26 27  2  0  0  0
 27 28  1  0  0  0
 27 29  1  0  0  0
 29 30  2  0  0  0
 30 24  1  0  0  0
  5  1  1  0  0  0
M  END
>  <minimizedAffinity>
-8.08523

>  <minimizedRMSD>
1.36767

$$$$
CHEMBL7509 PubChem-13231018


 29 30  0  0  0  0  0  0  0  0999 V2000
   16.3492   -8.6908   14.6251 C   0  0  0  0  0  0  0  0  0  0  0  0
   16.9278   -9.5605   13.5156 C   0  0  0  0  0  0  0  0  0  0  0  0
   17.1238  -10.8631   13.9783 O   0  0  0  0  0  0  0  0  0  0  0  0
   16.2721  -11.2429   14.2451 H   0  0  0  0  0  0  0  0  0  0  0  0
   16.0148   -9.5663   12.2999 C   0  0  0  0  0  0  0  0  0  0  0  0
   16.6455  -10.2491   11.2251 O   0  0  0  0  0  0  0  0  0  0  0  0
   16.4226   -9.8925    9.8920 C   0  0  0  0  0  0  0  0  0  0  0  0
   15.3580  -10.2415    9.3092 O   0  0  0  0  0  0  0  0  0  0  0  0
   17.4385   -9.1139    9.1659 C   0  0  0  0  0  0  0  0  0  0  0  0
   18.3697   -8.3387    9.8729 C   0  0  0  0  0  0  0  0  0  0  0  0
   19.3432   -7.6073    9.1865 C   0  0  0  0  0  0  0  0  0  0  0  0
   19.3905   -7.6445    7.7905 C   0  0  0  0  0  0  0  0  0  0  0  0
   18.4646   -8.4127    7.0795 C   0  0  0  0  0  0  0  0  0  0  0  0
   18.5242   -8.4618    5.3301 Cl  0  0  0  0  0  0  0  0  0  0  0  0
   17.4916   -9.1449    7.7654 C   0  0  0  0  0  0  0  0  0  0  0  0
   16.0742   -9.4805   15.8147 N   0  0  0  0  0  0  0  0  0  0  0  0
   15.1917   -9.9807   15.7080 H   0  0  0  0  0  0  0  0  0  0  0  0
   15.9901   -8.5508   16.9241 C   0  0  0  0  0  0  0  0  0  0  0  0
   14.5854   -7.9852   17.0044 C   0  0  0  0  0  0  0  0  0  0  0  0
   13.9156   -6.2718   20.8921 C   0  0  0  0  0  0  0  0  0  0  0  0
   14.9563   -7.1832   20.6774 C   0  0  0  0  0  0  0  0  0  0  0  0
   15.1727   -7.7436   19.4187 C   0  0  0  0  0  0  0  0  0  0  0  0
   14.3422   -7.4007   18.3516 C   0  0  0  0  0  0  0  0  0  0  0  0
   13.3042   -6.4860   18.5441 C   0  0  0  0  0  0  0  0  0  0  0  0
   13.0747   -5.9124   19.8077 C   0  0  0  0  0  0  0  0  0  0  0  0
   12.5888   -5.8250   22.9690 C   0  0  0  0  0  0  0  0  0  0  0  0
   13.7768   -5.7611   22.1920 O   0  0  0  0  0  0  0  0  0  0  0  0
   12.0299   -4.9983   19.9869 O   0  0  0  0  0  0  0  0  0  0  0  0
   10.6609   -5.3472   19.8260 C   0  0  0  0  0  0  0  0  0  0  0  0
 26 27  1  0  0  0
 27 20  1  0  0  0
 20 21  2  0  0  0
 21 22  1  0  0  0
 22 23  2  0  0  0
 23 19  1  0  0  0
 23 24  1  0  0  0
 19 18  1  0  0  0
 18 16  1  0  0  0
 16  1  1  0  0  0
  2  1  1  0  0  0
  2  3  1  0  0  0
  2  5  1  0  0  0
  5  6  1  0  0  0
  6  7  1  0  0  0
  7  8  2  0  0  0
  7  9  1  0  0  0
  9 10  2  0  0  0
 10 11  1  0  0  0
 11 12  2  0  0  0
 12 13  1  0  0  0
 13 14  1  0  0  0
 13 15  2  0  0  0
 15  9  1  0  0  0
 24 25  2  0  0  0
 25 28  1  0  0  0
 25 20  1  0  0  0
 28 29  1  0  0  0
 16 17  1  0  0  0
  3  4  1  0  0  0
M  END
>  <minimizedAffinity>
-8.08394

>  <minimizedRMSD>
1.78586

$$$$
CHEMBL271863 PubChem-44454705


 34 37  0  0  0  0  0  0  0  0999 V2000
   15.5886   -8.1459   17.0106 C   0  0  0  0  0  0  0  0  0  0  0  0
   15.0681   -7.6510   15.9736 O   0  0  0  0  0  0  0  0  0  0  0  0
   16.6210   -9.1348   16.9022 N   0  0  0  0  0  0  0  0  0  0  0  0
   16.9975   -9.4923   17.7386 H   0  0  0  0  0  0  0  0  0  0  0  0
   10.3395   -6.7937   19.0584 C   0  0  0  0  0  0  0  0  0  0  0  0
   11.2498   -5.6032   19.3021 C   0  0  0  0  0  0  0  0  0  0  0  0
   10.4591   -4.4624   19.9756 C   0  0  0  0  0  0  0  0  0  0  0  0
   10.3138   -4.6621   21.4224 N   0  0  0  0  0  0  0  0  0  0  0  0
   11.3835   -5.2165   22.1913 C   0  0  0  0  0  0  0  0  0  0  0  0
   11.3596   -5.1794   23.4494 O   0  0  0  0  0  0  0  0  0  0  0  0
   12.4735   -5.8565   21.4640 C   0  0  0  0  0  0  0  0  0  0  0  0
   13.6509   -6.3917   21.9897 C   0  0  0  0  0  0  0  0  0  0  0  0
   14.2945   -6.8841   20.8644 C   0  0  0  0  0  0  0  0  0  0  0  0
   15.5177   -7.5396   20.7619 C   0  0  0  0  0  0  0  0  0  0  0  0
   15.9341   -7.9499   19.4828 C   0  0  0  0  0  0  0  0  0  0  0  0
   15.1332   -7.7054   18.3406 C   0  0  0  0  0  0  0  0  0  0  0  0
   13.8977   -7.0393   18.4820 C   0  0  0  0  0  0  0  0  0  0  0  0
   13.5141   -6.6421   19.7617 C   0  0  0  0  0  0  0  0  0  0  0  0
   12.3930   -6.0061   20.1264 N   0  0  0  0  0  0  0  0  0  0  0  0
    9.4719   -4.4119   21.8672 H   0  0  0  0  0  0  0  0  0  0  0  0
   17.1461   -9.6420   15.6718 C   0  0  0  0  0  0  0  0  0  0  0  0
   16.6570   -9.3391   14.4526 N   0  0  0  0  0  0  0  0  0  0  0  0
   17.3544   -9.9660   13.4651 C   0  0  0  0  0  0  0  0  0  0  0  0
   18.4111  -10.7780   13.8872 C   0  0  0  0  0  0  0  0  0  0  0  0
   18.4483  -10.6873   15.5699 S   0  0  0  0  0  0  0  0  0  0  0  0
   17.0088   -9.7895   12.0487 C   0  0  0  0  0  0  0  0  0  0  0  0
   15.8431  -10.0589   11.6509 O   0  0  0  0  0  0  0  0  0  0  0  0
   17.9939   -9.3202   11.1239 N   0  0  0  0  0  0  0  0  0  0  0  0
   18.9109   -9.1666   11.4477 H   0  0  0  0  0  0  0  0  0  0  0  0
   17.6944   -9.0599    9.7199 C   0  0  0  0  0  0  0  0  0  0  0  0
   18.7112   -8.1110    9.0856 C   0  0  0  0  0  0  0  0  0  0  0  0
   20.0820   -8.3075    9.7065 C   0  0  0  0  0  0  0  0  0  0  0  0
   18.2837   -6.6644    9.2505 C   0  0  0  0  0  0  0  0  0  0  0  0
   18.8018   -8.4209    7.6065 C   0  0  0  0  0  0  0  0  0  0  0  0
  6  5  1  0  0  0
  6  7  1  0  0  0
  7  8  1  0  0  0
  8  9  1  0  0  0
  9 10  2  0  0  0
  9 11  1  0  0  0
 11 12  2  0  0  0
 12 13  1  0  0  0
 13 14  2  0  0  0
 14 15  1  0  0  0
 15 16  2  0  0  0
 16  1  1  0  0  0
 16 17  1  0  0  0
  1  2  2  0  0  0
  1  3  1  0  0  0
  3 21  1  0  0  0
 21 22  2  0  0  0
 22 23  1  0  0  0
 23 26  1  0  0  0
 23 24  2  0  0  0
 26 27  2  0  0  0
 26 28  1  0  0  0
 28 30  1  0  0  0
 30 31  1  0  0  0
 31 32  1  0  0  0
 31 33  1  0  0  0
 31 34  1  0  0  0
 24 25  1  0  0  0
 25 21  1  0  0  0
 17 18  2  0  0  0
 18 19  1  0  0  0
 18 13  1  0  0  0
 19  6  1  0  0  0
 19 11  1  0  0  0
  8 20  1  0  0  0
  3  4  1  0  0  0
 28 29  1  0  0  0
M  END
>  <minimizedAffinity>
-8.08360

>  <minimizedRMSD>
1.18811

$$$$
CHEMBL3212208 LN01177163 MolPort-001-672-354 PubChem-6874302 ZINC02100879


 31 32  0  0  0  0  0  0  0  0999 V2000
   15.0359   -7.6426   16.4051 N   0  0  0  0  0  0  0  0  0  0  0  0
   16.0949   -8.5624   16.1036 C   0  0  0  0  0  0  0  0  0  0  0  0
   16.8026   -9.0664   17.0133 O   0  0  0  0  0  0  0  0  0  0  0  0
   14.5210   -7.2850   15.6460 H   0  0  0  0  0  0  0  0  0  0  0  0
   15.0757   -7.7816   18.7816 C   0  0  0  0  0  0  0  0  0  0  0  0
   14.6694   -7.2072   17.6933 N   0  0  0  0  0  0  0  0  0  0  0  0
   13.0411   -6.2344   21.5720 C   0  0  0  0  0  0  0  0  0  0  0  0
   13.4261   -6.6792   20.2981 C   0  0  0  0  0  0  0  0  0  0  0  0
   14.6616   -7.3010   20.1033 C   0  0  0  0  0  0  0  0  0  0  0  0
   15.5182   -7.4777   21.1875 C   0  0  0  0  0  0  0  0  0  0  0  0
   15.1596   -7.0397   22.4743 C   0  0  0  0  0  0  0  0  0  0  0  0
   13.9029   -6.4099   22.6696 C   0  0  0  0  0  0  0  0  0  0  0  0
   11.1083   -4.9264   20.7379 C   0  0  0  0  0  0  0  0  0  0  0  0
   11.8031   -5.6113   21.7719 O   0  0  0  0  0  0  0  0  0  0  0  0
   16.0393   -7.2249   23.5476 O   0  0  0  0  0  0  0  0  0  0  0  0
   17.3420   -6.6570   23.5907 C   0  0  0  0  0  0  0  0  0  0  0  0
   13.4609   -5.9390   23.9179 O   0  0  0  0  0  0  0  0  0  0  0  0
   13.8206   -4.6909   24.4926 C   0  0  0  0  0  0  0  0  0  0  0  0
   16.3459   -8.9502   14.6921 C   0  0  0  0  0  0  0  0  0  0  0  0
   16.4731  -10.3943   14.5941 N   0  0  0  0  0  0  0  0  0  0  0  0
   15.6340  -10.7885   14.1687 H   0  0  0  0  0  0  0  0  0  0  0  0
   17.8511  -10.7376   13.6057 S   0  0  0  0  0  0  0  0  0  0  0  0
   19.0636  -10.0524   14.1717 O   0  0  0  0  0  0  0  0  0  0  0  0
   18.0975  -12.2196   13.5996 O   0  0  0  0  0  0  0  0  0  0  0  0
   17.5747  -10.1899   11.9599 C   0  0  0  0  0  0  0  0  0  0  0  0
   16.3216  -10.3709   11.3620 C   0  0  0  0  0  0  0  0  0  0  0  0
   16.0983   -9.9329   10.0527 C   0  0  0  0  0  0  0  0  0  0  0  0
   17.1287   -9.3101    9.3400 C   0  0  0  0  0  0  0  0  0  0  0  0
   16.8936   -8.8450    7.9488 C   0  0  0  0  0  0  0  0  0  0  0  0
   18.3822   -9.1266    9.9361 C   0  0  0  0  0  0  0  0  0  0  0  0
   18.6044   -9.5665   11.2444 C   0  0  0  0  0  0  0  0  0  0  0  0
 13 14  1  0  0  0
 14  7  1  0  0  0
  7  8  2  0  0  0
  8  9  1  0  0  0
  9  5  1  0  0  0
  9 10  2  0  0  0
  5  6  2  0  0  0
  6  1  1  0  0  0
  1  2  1  0  0  0
  2  3  2  0  0  0
  2 19  1  0  0  0
 19 20  1  0  0  0
 20 22  1  0  0  0
 22 23  2  0  0  0
 22 24  2  0  0  0
 22 25  1  0  0  0
 25 26  2  0  0  0
 26 27  1  0  0  0
 27 28  2  0  0  0
 28 29  1  0  0  0
 28 30  1  0  0  0
 30 31  2  0  0  0
 31 25  1  0  0  0
 10 11  1  0  0  0
 11 15  1  0  0  0
 11 12  2  0  0  0
 15 16  1  0  0  0
 12 17  1  0  0  0
 12  7  1  0  0  0
 17 18  1  0  0  0
  1  4  1  0  0  0
 20 21  1  0  0  0
M  END
>  <minimizedAffinity>
-8.07838

>  <minimizedRMSD>
1.22728

$$$$
CHEMBL2336009 PubChem-71625290 ZINC000095590159


 37 41  0  0  0  0  0  0  0  0999 V2000
   15.4052   -8.0171   18.4282 N   0  0  0  0  0  0  0  0  0  0  0  0
   15.3687   -8.1376   16.9978 C   0  0  0  0  0  0  0  0  0  0  0  0
   14.4199   -7.6359   16.3352 O   0  0  0  0  0  0  0  0  0  0  0  0
   16.1718   -8.4324   18.8855 H   0  0  0  0  0  0  0  0  0  0  0  0
   11.0116   -5.7604   19.0573 C   0  0  0  0  0  0  0  0  0  0  0  0
   12.3054   -6.2498   19.5995 C   0  0  0  0  0  0  0  0  0  0  0  0
   12.6121   -6.0648   20.9499 C   0  0  0  0  0  0  0  0  0  0  0  0
   13.8287   -6.5281   21.4600 C   0  0  0  0  0  0  0  0  0  0  0  0
   14.7424   -7.1662   20.6145 C   0  0  0  0  0  0  0  0  0  0  0  0
   14.4433   -7.3557   19.2609 C   0  0  0  0  0  0  0  0  0  0  0  0
   13.2174   -6.8931   18.7581 C   0  0  0  0  0  0  0  0  0  0  0  0
   14.1660   -6.3111   22.8951 C   0  0  0  0  0  0  0  0  0  0  0  0
   14.9787   -5.1066   23.0453 N   0  0  0  0  0  0  0  0  0  0  0  0
   16.1639   -5.4157   23.8573 C   0  0  0  0  0  0  0  0  0  0  0  0
   15.8073   -5.6540   25.3288 C   0  0  0  0  0  0  0  0  0  0  0  0
   15.1259   -4.4827   25.8668 N   0  0  0  0  0  0  0  0  0  0  0  0
   14.7668   -4.8008   27.2364 C   0  0  0  0  0  0  0  0  0  0  0  0
   13.8766   -4.3157   25.1336 C   0  0  0  0  0  0  0  0  0  0  0  0
   14.1775   -4.0358   23.6574 C   0  0  0  0  0  0  0  0  0  0  0  0
   16.4493   -8.8544   16.2977 C   0  0  0  0  0  0  0  0  0  0  0  0
   17.2838   -9.7357   16.9976 C   0  0  0  0  0  0  0  0  0  0  0  0
   18.3085  -10.4155   16.3347 C   0  0  0  0  0  0  0  0  0  0  0  0
   18.5122  -10.2234   14.9652 C   0  0  0  0  0  0  0  0  0  0  0  0
   19.6177  -10.9687   14.2953 C   0  0  0  0  0  0  0  0  0  0  0  0
   17.6782   -9.3397   14.2538 C   0  0  0  0  0  0  0  0  0  0  0  0
   16.6546   -8.6626   14.9243 C   0  0  0  0  0  0  0  0  0  0  0  0
   17.8506   -9.1109   12.8423 C   0  0  0  0  0  0  0  0  0  0  0  0
   17.9958   -8.9192   11.6607 C   0  0  0  0  0  0  0  0  0  0  0  0
   18.1695   -8.6907   10.2548 C   0  0  0  0  0  0  0  0  0  0  0  0
   19.1502   -7.7918    9.7915 C   0  0  0  0  0  0  0  0  0  0  0  0
   19.3144   -7.5758    8.4533 N   0  0  0  0  0  0  0  0  0  0  0  0
   18.5157   -8.2439    7.5851 C   0  0  0  0  0  0  0  0  0  0  0  0
   18.5168   -8.1713    6.2110 C   0  0  0  0  0  0  0  0  0  0  0  0
   17.4945   -9.0656    5.8668 C   0  0  0  0  0  0  0  0  0  0  0  0
   16.9455   -9.6133    6.9798 N   0  0  0  0  0  0  0  0  0  0  0  0
   17.5838   -9.0976    8.0095 N   0  0  0  0  0  0  0  0  0  0  0  0
   17.3670   -9.3585    9.3203 C   0  0  0  0  0  0  0  0  0  0  0  0
  5  6  1  0  0  0
  6  7  2  0  0  0
  7  8  1  0  0  0
  8 12  1  0  0  0
  8  9  2  0  0  0
 12 13  1  0  0  0
 13 14  1  0  0  0
 14 15  1  0  0  0
 15 16  1  0  0  0
 16 17  1  0  0  0
 16 18  1  0  0  0
 18 19  1  0  0  0
 19 13  1  0  0  0
  9 10  1  0  0  0
 10  1  1  0  0  0
 10 11  2  0  0  0
  1  2  1  0  0  0
  2  3  2  0  0  0
  2 20  1  0  0  0
 20 21  2  0  0  0
 21 22  1  0  0  0
 22 23  2  0  0  0
 23 24  1  0  0  0
 23 25  1  0  0  0
 25 27  1  0  0  0
 25 26  2  0  0  0
 27 28  3  0  0  0
 28 29  1  0  0  0
 29 30  1  0  0  0
 30 31  2  0  0  0
 31 32  1  0  0  0
 32 33  2  0  0  0
 33 34  1  0  0  0
 34 35  2  0  0  0
 35 36  1  0  0  0
 36 37  1  0  0  0
 36 32  1  0  0  0
 37 29  2  0  0  0
 26 20  1  0  0  0
 11  6  1  0  0  0
  1  4  1  0  0  0
M  END
>  <minimizedAffinity>
-8.07631

>  <minimizedRMSD>
1.66391

$$$$
CHEMBL4781635 PubChem-162665068


 30 32  0  0  0  0  0  0  0  0999 V2000
   15.4970   -8.1336   17.2782 C   0  0  0  0  0  0  0  0  0  0  0  0
   16.2098   -9.3361   16.6803 C   0  0  0  0  0  0  0  0  0  0  0  0
   17.5733   -9.0290   16.4371 O   0  0  0  0  0  0  0  0  0  0  0  0
   17.9041   -9.0989   15.1106 N   0  0  0  0  0  0  0  0  0  0  0  0
   16.8633   -9.4261   14.4276 C   0  0  0  0  0  0  0  0  0  0  0  0
   15.6556   -9.6192   15.2850 C   0  0  0  0  0  0  0  0  0  0  0  0
   16.8839   -9.5828   12.9633 C   0  0  0  0  0  0  0  0  0  0  0  0
   15.6858   -9.6879   12.2424 C   0  0  0  0  0  0  0  0  0  0  0  0
   15.7088   -9.8367   10.8532 C   0  0  0  0  0  0  0  0  0  0  0  0
   16.9324   -9.8813   10.1662 C   0  0  0  0  0  0  0  0  0  0  0  0
   18.1269   -9.7781   10.8855 C   0  0  0  0  0  0  0  0  0  0  0  0
   18.1039   -9.6294   12.2751 C   0  0  0  0  0  0  0  0  0  0  0  0
   16.9900  -10.0313    8.7762 O   0  0  0  0  0  0  0  0  0  0  0  0
   16.8595   -8.9424    7.8664 C   0  0  0  0  0  0  0  0  0  0  0  0
   18.2030   -8.2674    7.6399 C   0  0  0  0  0  0  0  0  0  0  0  0
   18.6192   -8.4036    6.1884 C   0  0  0  0  0  0  0  0  0  0  0  0
   15.6547   -8.1170   18.6929 O   0  0  0  0  0  0  0  0  0  0  0  0
   12.8198   -6.4853   21.3365 C   0  0  0  0  0  0  0  0  0  0  0  0
   12.4082   -7.0270   20.1179 C   0  0  0  0  0  0  0  0  0  0  0  0
   13.3399   -7.5687   19.2369 C   0  0  0  0  0  0  0  0  0  0  0  0
   14.7014   -7.5754   19.5637 C   0  0  0  0  0  0  0  0  0  0  0  0
   15.1228   -7.0378   20.7875 C   0  0  0  0  0  0  0  0  0  0  0  0
   14.1879   -6.4820   21.6930 C   0  0  0  0  0  0  0  0  0  0  0  0
   16.4497   -7.0537   21.0761 F   0  0  0  0  0  0  0  0  0  0  0  0
   11.8690   -5.9797   22.1607 F   0  0  0  0  0  0  0  0  0  0  0  0
   14.6393   -5.9083   22.9916 C   0  0  0  0  0  0  0  0  0  0  0  0
   14.7761   -6.6447   24.0043 O   0  0  0  0  0  0  0  0  0  0  0  0
   14.9294   -4.5194   23.1201 N   0  0  0  0  0  0  0  0  0  0  0  0
   14.8306   -3.9220   22.3439 H   0  0  0  0  0  0  0  0  0  0  0  0
   15.2286   -4.1571   23.9852 H   0  0  0  0  0  0  0  0  0  0  0  0
 18 19  2  0  0  0
 19 20  1  0  0  0
 20 21  2  0  0  0
 21 22  1  0  0  0
 22 23  2  0  0  0
 23 26  1  0  0  0
 26 27  2  0  0  0
 26 28  1  0  0  0
 22 24  1  0  0  0
 21 17  1  0  0  0
 17  1  1  0  0  0
  1  2  1  0  0  0
  2  3  1  0  0  0
  3  4  1  0  0  0
  4  5  2  0  0  0
  5  6  1  0  0  0
  5  7  1  0  0  0
  7  8  2  0  0  0
  8  9  1  0  0  0
  9 10  2  0  0  0
 10 11  1  0  0  0
 11 12  2  0  0  0
 10 13  1  0  0  0
 13 14  1  0  0  0
 14 15  1  0  0  0
 15 16  1  0  0  0
 18 25  1  0  0  0
 23 18  1  0  0  0
  6  2  1  0  0  0
 12  7  1  0  0  0
 28 29  1  0  0  0
 28 30  1  0  0  0
M  END
>  <minimizedAffinity>
-8.07228

>  <minimizedRMSD>
1.77920

$$$$
CHEMBL4586227 PubChem-140914494


 29 32  0  0  0  0  0  0  0  0999 V2000
   17.0132   -9.7748   13.6210 C   0  0  0  0  0  0  0  0  0  0  0  0
   17.6596  -10.7016   14.4737 C   0  0  0  0  0  0  0  0  0  0  0  0
   17.4871  -10.6176   15.8623 C   0  0  0  0  0  0  0  0  0  0  0  0
   16.6926   -9.6327   16.3454 N   0  0  0  0  0  0  0  0  0  0  0  0
   16.0658   -8.7384   15.5692 C   0  0  0  0  0  0  0  0  0  0  0  0
   16.1986   -8.7710   14.1840 C   0  0  0  0  0  0  0  0  0  0  0  0
   15.3332   -7.8555   16.2690 N   0  0  0  0  0  0  0  0  0  0  0  0
   15.5304   -8.2421   17.5550 C   0  0  0  0  0  0  0  0  0  0  0  0
   16.3761   -9.3491   17.6159 C   0  0  0  0  0  0  0  0  0  0  0  0
   17.1865   -9.8487   12.1516 C   0  0  0  0  0  0  0  0  0  0  0  0
   18.3196   -9.4410   11.5694 C   0  0  0  0  0  0  0  0  0  0  0  0
   18.4825   -9.5494   10.0839 C   0  0  0  0  0  0  0  0  0  0  0  0
   17.2241   -9.2116    9.4092 N   0  0  0  0  0  0  0  0  0  0  0  0
   15.9302   -9.5833   10.0019 C   0  0  0  0  0  0  0  0  0  0  0  0
   16.0966  -10.4140   11.2800 C   0  0  0  0  0  0  0  0  0  0  0  0
   17.2490   -8.5677    8.1258 C   0  0  0  0  0  0  0  0  0  0  0  0
   16.1721   -8.3028    7.5275 O   0  0  0  0  0  0  0  0  0  0  0  0
   18.5393   -8.1957    7.4756 C   0  0  0  0  0  0  0  0  0  0  0  0
   14.9245   -7.5724   18.7305 C   0  0  0  0  0  0  0  0  0  0  0  0
   13.5956   -7.0913   18.7237 C   0  0  0  0  0  0  0  0  0  0  0  0
   13.0841   -6.4659   19.8726 C   0  0  0  0  0  0  0  0  0  0  0  0
   13.8676   -6.3107   21.0247 C   0  0  0  0  0  0  0  0  0  0  0  0
   15.1831   -6.7895   21.0246 C   0  0  0  0  0  0  0  0  0  0  0  0
   15.7006   -7.4122   19.8881 C   0  0  0  0  0  0  0  0  0  0  0  0
   16.2038   -6.6194   22.4413 Cl  0  0  0  0  0  0  0  0  0  0  0  0
   13.3585   -5.6877   22.1696 O   0  0  0  0  0  0  0  0  0  0  0  0
   11.9720   -5.4397   22.3584 C   0  0  0  0  0  0  0  0  0  0  0  0
   12.7967   -7.2366   17.5829 O   0  0  0  0  0  0  0  0  0  0  0  0
   11.3811   -7.3517   17.6393 C   0  0  0  0  0  0  0  0  0  0  0  0
  1  2  1  0  0  0
  2  3  2  0  0  0
  3  4  1  0  0  0
  4  5  1  0  0  0
  5  6  1  0  0  0
  5  7  2  0  0  0
  7  8  1  0  0  0
  8  9  2  0  0  0
  8 19  1  0  0  0
 19 20  2  0  0  0
 20 21  1  0  0  0
 21 22  2  0  0  0
 22 23  1  0  0  0
 23 24  2  0  0  0
 23 25  1  0  0  0
 22 26  1  0  0  0
 26 27  1  0  0  0
 20 28  1  0  0  0
 28 29  1  0  0  0
  1 10  1  0  0  0
 10 11  2  0  0  0
 11 12  1  0  0  0
 12 13  1  0  0  0
 13 14  1  0  0  0
 14 15  1  0  0  0
 13 16  1  0  0  0
 16 17  2  0  0  0
 16 18  1  0  0  0
  6  1  2  0  0  0
 24 19  1  0  0  0
 15 10  1  0  0  0
  9  4  1  0  0  0
M  END
>  <minimizedAffinity>
-8.06855

>  <minimizedRMSD>
1.37909

$$$$
CHEMBL63560 538564 LN01271800 MCULE-1236485515 MCULE-2855059481 MolPort-003-845-036 PubChem-56069 ZINC000000538564 ZINC00538564


 31 32  0  0  0  0  0  0  0  0999 V2000
   15.5627   -8.1447   17.1390 C   0  0  0  0  0  0  0  0  0  0  0  0
   14.4089   -8.0920   16.6295 O   0  0  0  0  0  0  0  0  0  0  0  0
   15.7781   -7.7362   18.4986 N   0  0  0  0  0  0  0  0  0  0  0  0
   16.7018   -7.7938   18.8344 H   0  0  0  0  0  0  0  0  0  0  0  0
   14.7904   -7.2534   19.4192 C   0  0  0  0  0  0  0  0  0  0  0  0
   14.9671   -7.4964   20.7826 C   0  0  0  0  0  0  0  0  0  0  0  0
   14.0263   -7.0425   21.7084 C   0  0  0  0  0  0  0  0  0  0  0  0
   12.8953   -6.3393   21.2834 C   0  0  0  0  0  0  0  0  0  0  0  0
   12.7006   -6.0848   19.9062 C   0  0  0  0  0  0  0  0  0  0  0  0
   13.6574   -6.5490   18.9904 C   0  0  0  0  0  0  0  0  0  0  0  0
   11.4952   -5.3301   19.3993 C   0  0  0  0  0  0  0  0  0  0  0  0
   10.3562   -6.0925   19.5846 F   0  0  0  0  0  0  0  0  0  0  0  0
   11.6173   -5.0421   18.0499 F   0  0  0  0  0  0  0  0  0  0  0  0
   11.3650   -4.1402   20.0924 F   0  0  0  0  0  0  0  0  0  0  0  0
   11.9558   -5.8935   22.2810 C   0  0  0  0  0  0  0  0  0  0  0  0
   11.2012   -5.5355   23.0821 N   0  0  0  0  0  0  0  0  0  0  0  0
   17.0269   -7.6936   15.1683 C   0  0  0  0  0  0  0  0  0  0  0  0
   16.7364   -8.6331   16.3319 C   0  0  0  0  0  0  0  0  0  0  0  0
   17.8572   -8.6809   17.1634 O   0  0  0  0  0  0  0  0  0  0  0  0
   18.6226   -8.9942   16.6567 H   0  0  0  0  0  0  0  0  0  0  0  0
   16.4055  -10.0319   15.7987 C   0  0  0  0  0  0  0  0  0  0  0  0
   17.6465  -10.7374   14.7117 S   0  0  0  0  0  0  0  0  0  0  0  0
   19.0142  -10.2951   15.1523 O   0  0  0  0  0  0  0  0  0  0  0  0
   17.5788  -12.2354   14.8058 O   0  0  0  0  0  0  0  0  0  0  0  0
   17.3810  -10.2638   13.0423 C   0  0  0  0  0  0  0  0  0  0  0  0
   16.0763  -10.1135   12.5590 C   0  0  0  0  0  0  0  0  0  0  0  0
   15.8600   -9.7254   11.2335 C   0  0  0  0  0  0  0  0  0  0  0  0
   16.9481   -9.4857   10.3889 C   0  0  0  0  0  0  0  0  0  0  0  0
   18.2526   -9.6344   10.8695 C   0  0  0  0  0  0  0  0  0  0  0  0
   18.4690  -10.0226   12.1950 C   0  0  0  0  0  0  0  0  0  0  0  0
   16.7385   -9.1094    9.1048 F   0  0  0  0  0  0  0  0  0  0  0  0
 18 17  1  0  0  0
 18 21  1  0  0  0
 18  1  1  0  0  0
 18 19  1  0  0  0
 21 22  1  0  0  0
 22 23  2  0  0  0
 22 24  2  0  0  0
 22 25  1  0  0  0
 25 26  2  0  0  0
 26 27  1  0  0  0
 27 28  2  0  0  0
 28 29  1  0  0  0
 28 31  1  0  0  0
 29 30  2  0  0  0
 30 25  1  0  0  0
  1  2  2  0  0  0
  1  3  1  0  0  0
  3  5  1  0  0  0
  5  6  2  0  0  0
  6  7  1  0  0  0
  7  8  2  0  0  0
  8  9  1  0  0  0
  8 15  1  0  0  0
  9 10  2  0  0  0
  9 11  1  0  0  0
 10  5  1  0  0  0
 11 12  1  0  0  0
 11 13  1  0  0  0
 11 14  1  0  0  0
 15 16  3  0  0  0
  3  4  1  0  0  0
 19 20  1  0  0  0
M  END
>  <minimizedAffinity>
-8.06669

>  <minimizedRMSD>
1.42846

$$$$
CHEMBL3126609 PubChem-76318197


 39 42  0  0  0  0  0  0  0  0999 V2000
   13.8868   -7.1754   21.2822 C   0  0  0  0  0  0  0  0  0  0  0  0
   14.7065   -7.7687   20.3133 C   0  0  0  0  0  0  0  0  0  0  0  0
   14.5012   -7.5312   18.9521 C   0  0  0  0  0  0  0  0  0  0  0  0
   13.4467   -6.7064   18.5548 C   0  0  0  0  0  0  0  0  0  0  0  0
   12.6111   -6.1135   19.5029 C   0  0  0  0  0  0  0  0  0  0  0  0
   11.4975   -5.2448   19.0283 C   0  0  0  0  0  0  0  0  0  0  0  0
   12.8244   -6.3236   20.8777 C   0  0  0  0  0  0  0  0  0  0  0  0
   15.3751   -8.1577   17.9477 C   0  0  0  0  0  0  0  0  0  0  0  0
   16.4803   -8.8672   18.2544 N   0  0  0  0  0  0  0  0  0  0  0  0
   16.9605   -9.2471   17.1102 O   0  0  0  0  0  0  0  0  0  0  0  0
   16.1999   -8.7993   16.1410 C   0  0  0  0  0  0  0  0  0  0  0  0
   15.1582   -8.0879   16.6169 N   0  0  0  0  0  0  0  0  0  0  0  0
   16.4573   -9.0338   14.7133 C   0  0  0  0  0  0  0  0  0  0  0  0
   15.7784   -8.3052   13.7339 C   0  0  0  0  0  0  0  0  0  0  0  0
   16.0370   -8.5229   12.4183 N   0  0  0  0  0  0  0  0  0  0  0  0
   16.9560   -9.4380   11.9955 C   0  0  0  0  0  0  0  0  0  0  0  0
   17.6505  -10.2042   12.9585 C   0  0  0  0  0  0  0  0  0  0  0  0
   18.6147  -11.2807   12.5958 C   0  0  0  0  0  0  0  0  0  0  0  0
   17.3915   -9.9893   14.3128 C   0  0  0  0  0  0  0  0  0  0  0  0
   17.1765   -9.5941   10.5814 N   0  0  0  0  0  0  0  0  0  0  0  0
   16.1825  -10.1810    9.7077 C   0  0  0  0  0  0  0  0  0  0  0  0
   16.7647  -10.1027    8.3106 C   0  0  0  0  0  0  0  0  0  0  0  0
   17.8951   -9.0881    8.3845 C   0  0  0  0  0  0  0  0  0  0  0  0
   18.2704   -8.9869    9.8474 C   0  0  0  0  0  0  0  0  0  0  0  0
   15.5328   -7.2100   23.1417 C   0  0  0  0  0  0  0  0  0  0  0  0
   14.1170   -7.5543   22.7113 C   0  0  0  0  0  0  0  0  0  0  0  0
   11.9544   -5.6826   21.7790 O   0  0  0  0  0  0  0  0  0  0  0  0
   12.3155   -5.2086   23.0723 C   0  0  0  0  0  0  0  0  0  0  0  0
   13.2812   -4.0415   22.9555 C   0  0  0  0  0  0  0  0  0  0  0  0
   12.5788   -2.8799   22.6339 O   0  0  0  0  0  0  0  0  0  0  0  0
   11.9305   -2.6908   23.3303 H   0  0  0  0  0  0  0  0  0  0  0  0
   14.0070   -3.8534   24.2778 C   0  0  0  0  0  0  0  0  0  0  0  0
   15.4469   -3.7966   24.0664 N   0  0  0  0  0  0  0  0  0  0  0  0
   16.3262   -2.9873   24.8501 C   0  0  0  0  0  0  0  0  0  0  0  0
   15.8915   -2.3225   25.8282 O   0  0  0  0  0  0  0  0  0  0  0  0
   15.8347   -4.3443   23.3460 H   0  0  0  0  0  0  0  0  0  0  0  0
   17.7829   -2.9821   24.5462 C   0  0  0  0  0  0  0  0  0  0  0  0
   18.1854   -4.2644   24.1680 O   0  0  0  0  0  0  0  0  0  0  0  0
   18.0092   -4.8853   24.8921 H   0  0  0  0  0  0  0  0  0  0  0  0
 25 26  1  0  0  0
 26  1  1  0  0  0
  1  2  2  0  0  0
  2  3  1  0  0  0
  3  8  1  0  0  0
  3  4  2  0  0  0
  8  9  2  0  0  0
  9 10  1  0  0  0
 10 11  1  0  0  0
 11 13  1  0  0  0
 11 12  2  0  0  0
 13 14  2  0  0  0
 14 15  1  0  0  0
 15 16  2  0  0  0
 16 20  1  0  0  0
 16 17  1  0  0  0
 20 21  1  0  0  0
 21 22  1  0  0  0
 22 23  1  0  0  0
 23 24  1  0  0  0
 24 20  1  0  0  0
 17 18  1  0  0  0
 17 19  2  0  0  0
 19 13  1  0  0  0
 12  8  1  0  0  0
  4  5  1  0  0  0
  5  6  1  0  0  0
  5  7  2  0  0  0
  7 27  1  0  0  0
  7  1  1  0  0  0
 27 28  1  0  0  0
 29 28  1  0  0  0
 29 30  1  0  0  0
 29 32  1  0  0  0
 32 33  1  0  0  0
 33 34  1  0  0  0
 34 35  2  0  0  0
 34 37  1  0  0  0
 37 38  1  0  0  0
 30 31  1  0  0  0
 33 36  1  0  0  0
 38 39  1  0  0  0
M  END
>  <minimizedAffinity>
-8.05612

>  <minimizedRMSD>
1.37301

$$$$
CHEMBL3121969 PubChem-66636847


 35 37  0  0  0  0  0  0  0  0999 V2000
   14.7203   -7.7075   18.5570 C   0  0  0  0  0  0  0  0  0  0  0  0
   13.7090   -6.8138   18.1959 C   0  0  0  0  0  0  0  0  0  0  0  0
   12.9371   -6.1818   19.1725 C   0  0  0  0  0  0  0  0  0  0  0  0
   13.1723   -6.4244   20.5384 C   0  0  0  0  0  0  0  0  0  0  0  0
   14.1870   -7.3482   20.9025 C   0  0  0  0  0  0  0  0  0  0  0  0
   14.9464   -7.9740   19.9101 C   0  0  0  0  0  0  0  0  0  0  0  0
   14.4589   -7.7428   22.3134 C   0  0  0  0  0  0  0  0  0  0  0  0
   11.8742   -5.2323   18.7380 C   0  0  0  0  0  0  0  0  0  0  0  0
   16.2871   -9.0119   15.6887 C   0  0  0  0  0  0  0  0  0  0  0  0
   17.0176   -9.5521   16.6323 O   0  0  0  0  0  0  0  0  0  0  0  0
   16.5777   -9.1754   17.7938 N   0  0  0  0  0  0  0  0  0  0  0  0
   15.5310   -8.3694   17.5233 C   0  0  0  0  0  0  0  0  0  0  0  0
   15.3099   -8.2369   16.1975 N   0  0  0  0  0  0  0  0  0  0  0  0
   17.3907   -9.6399   11.9787 C   0  0  0  0  0  0  0  0  0  0  0  0
   17.9944   -9.5368   13.5424 S   0  0  0  0  0  0  0  0  0  0  0  0
   16.5050   -9.2242   14.2559 C   0  0  0  0  0  0  0  0  0  0  0  0
   15.5155   -9.2038   13.2796 C   0  0  0  0  0  0  0  0  0  0  0  0
   16.0160   -9.4426   11.9921 C   0  0  0  0  0  0  0  0  0  0  0  0
   18.2028   -9.9488   10.7666 C   0  0  0  0  0  0  0  0  0  0  0  0
   17.9313   -8.9435    9.6586 C   0  0  0  0  0  0  0  0  0  0  0  0
   19.1700   -8.1029    9.4329 C   0  0  0  0  0  0  0  0  0  0  0  0
   17.5774   -9.6608    8.3694 C   0  0  0  0  0  0  0  0  0  0  0  0
   12.3727   -5.7411   21.4734 O   0  0  0  0  0  0  0  0  0  0  0  0
   12.8017   -5.3139   22.7615 C   0  0  0  0  0  0  0  0  0  0  0  0
   13.8530   -4.2263   22.6310 C   0  0  0  0  0  0  0  0  0  0  0  0
   13.4025   -3.2385   21.7542 O   0  0  0  0  0  0  0  0  0  0  0  0
   12.5824   -2.8508   22.0977 H   0  0  0  0  0  0  0  0  0  0  0  0
   14.1231   -3.6182   23.9962 C   0  0  0  0  0  0  0  0  0  0  0  0
   15.5131   -3.1952   24.1002 N   0  0  0  0  0  0  0  0  0  0  0  0
   16.5506   -4.0556   24.5768 C   0  0  0  0  0  0  0  0  0  0  0  0
   16.2867   -5.2214   24.9756 O   0  0  0  0  0  0  0  0  0  0  0  0
   15.7481   -2.2779   23.8309 H   0  0  0  0  0  0  0  0  0  0  0  0
   17.9489   -3.5546   24.6419 C   0  0  0  0  0  0  0  0  0  0  0  0
   18.0074   -2.4358   25.4720 O   0  0  0  0  0  0  0  0  0  0  0  0
   17.4330   -1.7394   25.1170 H   0  0  0  0  0  0  0  0  0  0  0  0
 14 15  1  0  0  0
 15 16  1  0  0  0
 16  9  1  0  0  0
  9 10  1  0  0  0
 10 11  1  0  0  0
 11 12  2  0  0  0
 12 13  1  0  0  0
 12  1  1  0  0  0
  1  2  2  0  0  0
  2  3  1  0  0  0
  3  4  2  0  0  0
  4  5  1  0  0  0
  5  6  2  0  0  0
  5  7  1  0  0  0
  4 23  1  0  0  0
 23 24  1  0  0  0
 24 25  1  0  0  0
 25 28  1  0  0  0
 28 29  1  0  0  0
 29 30  1  0  0  0
 30 31  2  0  0  0
 30 33  1  0  0  0
 33 34  1  0  0  0
 25 26  1  0  0  0
  3  8  1  0  0  0
 16 17  2  0  0  0
 17 18  1  0  0  0
 14 19  1  0  0  0
 19 20  1  0  0  0
 20 21  1  0  0  0
 20 22  1  0  0  0
 18 14  2  0  0  0
 13  9  2  0  0  0
  6  1  1  0  0  0
 29 32  1  0  0  0
 34 35  1  0  0  0
 26 27  1  0  0  0
M  END
>  <minimizedAffinity>
-8.04548

>  <minimizedRMSD>
1.88061

$$$$
CHEMBL5174553


 34 39  0  0  0  0  0  0  0  0999 V2000
   15.5107   -8.2457   17.5615 C   0  0  0  0  0  0  0  0  0  0  0  0
   16.6901   -8.6510   18.1936 C   0  0  0  0  0  0  0  0  0  0  0  0
   17.6241   -9.4305   17.0283 S   0  0  0  0  0  0  0  0  0  0  0  0
   16.5025   -9.2182   15.7973 C   0  0  0  0  0  0  0  0  0  0  0  0
   15.4119   -8.5598   16.2400 N   0  0  0  0  0  0  0  0  0  0  0  0
   11.6686   -5.4627   21.2733 O   0  0  0  0  0  0  0  0  0  0  0  0
   12.7487   -6.0899   21.1161 C   0  0  0  0  0  0  0  0  0  0  0  0
   13.6124   -6.4309   22.2999 C   0  0  0  0  0  0  0  0  0  0  0  0
   15.0927   -6.5705   21.8944 C   0  0  0  0  0  0  0  0  0  0  0  0
   15.2904   -7.5556   20.7287 C   0  0  0  0  0  0  0  0  0  0  0  0
   14.3632   -7.2077   19.6017 C   0  0  0  0  0  0  0  0  0  0  0  0
   13.1729   -6.5615   19.7926 C   0  0  0  0  0  0  0  0  0  0  0  0
   12.5637   -6.4774   18.5577 C   0  0  0  0  0  0  0  0  0  0  0  0
   11.2458   -5.8478   18.2696 C   0  0  0  0  0  0  0  0  0  0  0  0
   13.3271   -7.0666   17.6121 N   0  0  0  0  0  0  0  0  0  0  0  0
   14.4294   -7.5219   18.2528 C   0  0  0  0  0  0  0  0  0  0  0  0
   13.1235   -7.1483   16.6524 H   0  0  0  0  0  0  0  0  0  0  0  0
   16.6613   -9.6648   14.4450 N   0  0  0  0  0  0  0  0  0  0  0  0
   17.9883   -9.9739   13.9155 C   0  0  0  0  0  0  0  0  0  0  0  0
   17.8762  -10.7331   12.5889 C   0  0  0  0  0  0  0  0  0  0  0  0
   17.0055  -10.0627   11.6052 N   0  0  0  0  0  0  0  0  0  0  0  0
   15.8362   -9.3738   12.1792 C   0  0  0  0  0  0  0  0  0  0  0  0
   15.4912   -9.8387   13.5922 C   0  0  0  0  0  0  0  0  0  0  0  0
   17.7985   -9.0563   10.9149 C   0  0  0  0  0  0  0  0  0  0  0  0
   17.6361   -9.2035    9.4398 C   0  0  0  0  0  0  0  0  0  0  0  0
   18.3288   -8.5441    8.4595 C   0  0  0  0  0  0  0  0  0  0  0  0
   17.8022   -8.9486    7.2749 C   0  0  0  0  0  0  0  0  0  0  0  0
   16.7983   -9.8286    7.4377 N   0  0  0  0  0  0  0  0  0  0  0  0
   16.6882   -9.9847    8.7835 C   0  0  0  0  0  0  0  0  0  0  0  0
   18.2624   -8.4778    6.0905 N   0  0  0  0  0  0  0  0  0  0  0  0
   19.2858   -7.5717    6.1060 C   0  0  0  0  0  0  0  0  0  0  0  0
   19.8260   -7.1522    7.2944 N   0  0  0  0  0  0  0  0  0  0  0  0
   19.3652   -7.6221    8.4908 C   0  0  0  0  0  0  0  0  0  0  0  0
   16.2614  -10.2639    6.7366 H   0  0  0  0  0  0  0  0  0  0  0  0
  6  7  2  0  0  0
  7  8  1  0  0  0
  8  9  1  0  0  0
  9 10  1  0  0  0
 10 11  1  0  0  0
 11 12  1  0  0  0
 12 13  2  0  0  0
 13 14  1  0  0  0
 13 15  1  0  0  0
 15 16  1  0  0  0
 16  1  1  0  0  0
  1  2  2  0  0  0
  2  3  1  0  0  0
  3  4  1  0  0  0
  4  5  2  0  0  0
  4 18  1  0  0  0
 18 19  1  0  0  0
 19 20  1  0  0  0
 20 21  1  0  0  0
 21 22  1  0  0  0
 22 23  1  0  0  0
 21 24  1  0  0  0
 24 25  1  0  0  0
 25 26  1  0  0  0
 26 27  2  0  0  0
 27 28  1  0  0  0
 28 29  1  0  0  0
 27 30  1  0  0  0
 30 31  2  0  0  0
 31 32  1  0  0  0
 32 33  2  0  0  0
 12  7  1  0  0  0
  5  1  1  0  0  0
 23 18  1  0  0  0
 29 25  2  0  0  0
 16 11  2  0  0  0
 33 26  1  0  0  0
 15 17  1  0  0  0
 28 34  1  0  0  0
M  END
>  <minimizedAffinity>
-8.04443

>  <minimizedRMSD>
1.72437

$$$$
CHEMBL3195588 MolPort-004-247-203 PubChem-135401291 ZINC03204429


 32 33  0  0  0  0  0  0  0  0999 V2000
   16.5023   -9.1926   16.2735 C   0  0  0  0  0  0  0  0  0  0  0  0
   16.6375   -9.8489   17.3417 O   0  0  0  0  0  0  0  0  0  0  0  0
   15.6533   -8.0332   16.2272 N   0  0  0  0  0  0  0  0  0  0  0  0
   15.5850   -7.5615   15.3658 H   0  0  0  0  0  0  0  0  0  0  0  0
   17.2550  -10.0159   12.6609 C   0  0  0  0  0  0  0  0  0  0  0  0
   18.5904  -10.4226   12.7467 C   0  0  0  0  0  0  0  0  0  0  0  0
   19.2427  -10.4300   13.9821 C   0  0  0  0  0  0  0  0  0  0  0  0
   18.5612  -10.0291   15.1346 C   0  0  0  0  0  0  0  0  0  0  0  0
   17.2222   -9.6179   15.0600 C   0  0  0  0  0  0  0  0  0  0  0  0
   16.5757   -9.6141   13.8161 C   0  0  0  0  0  0  0  0  0  0  0  0
   16.4352   -9.9945   11.1044 S   0  0  0  0  0  0  0  0  0  0  0  0
   16.3157  -11.4018   10.5886 O   0  0  0  0  0  0  0  0  0  0  0  0
   15.0497   -9.4384   11.2838 O   0  0  0  0  0  0  0  0  0  0  0  0
   17.3019   -9.0270    9.9492 N   0  0  0  0  0  0  0  0  0  0  0  0
   19.4561   -7.9501    9.6200 C   0  0  0  0  0  0  0  0  0  0  0  0
   18.7141   -9.0881   10.2930 C   0  0  0  0  0  0  0  0  0  0  0  0
   17.1531   -9.6460    8.6400 C   0  0  0  0  0  0  0  0  0  0  0  0
   16.8304   -8.5864    7.6051 C   0  0  0  0  0  0  0  0  0  0  0  0
   14.9105   -7.5121   17.3044 N   0  0  0  0  0  0  0  0  0  0  0  0
   15.1130   -7.8462   18.5399 C   0  0  0  0  0  0  0  0  0  0  0  0
   14.3133   -7.2761   19.6283 C   0  0  0  0  0  0  0  0  0  0  0  0
   14.8005   -7.3416   20.9349 C   0  0  0  0  0  0  0  0  0  0  0  0
   14.0612   -6.8059   22.0014 C   0  0  0  0  0  0  0  0  0  0  0  0
   12.8219   -6.2001   21.7461 C   0  0  0  0  0  0  0  0  0  0  0  0
   12.0834   -5.6670   22.7969 O   0  0  0  0  0  0  0  0  0  0  0  0
   12.3235   -6.1291   20.4369 C   0  0  0  0  0  0  0  0  0  0  0  0
   13.0756   -6.6697   19.3823 C   0  0  0  0  0  0  0  0  0  0  0  0
   12.4138   -5.7130   23.6725 H   0  0  0  0  0  0  0  0  0  0  0  0
   14.5365   -6.8643   23.3159 O   0  0  0  0  0  0  0  0  0  0  0  0
   15.9060   -7.0779   23.6297 C   0  0  0  0  0  0  0  0  0  0  0  0
   11.0850   -5.5199   20.2077 O   0  0  0  0  0  0  0  0  0  0  0  0
   10.9186   -4.4290   19.3123 C   0  0  0  0  0  0  0  0  0  0  0  0
 15 16  1  0  0  0
 16 14  1  0  0  0
 14 17  1  0  0  0
 14 11  1  0  0  0
 17 18  1  0  0  0
 11 12  2  0  0  0
 11 13  2  0  0  0
 11  5  1  0  0  0
  5  6  2  0  0  0
  6  7  1  0  0  0
  7  8  2  0  0  0
  8  9  1  0  0  0
  9 10  2  0  0  0
  9  1  1  0  0  0
 10  5  1  0  0  0
  1  2  2  0  0  0
  1  3  1  0  0  0
  3 19  1  0  0  0
 19 20  2  0  0  0
 20 21  1  0  0  0
 21 22  2  0  0  0
 22 23  1  0  0  0
 23 29  1  0  0  0
 23 24  2  0  0  0
 29 30  1  0  0  0
 24 25  1  0  0  0
 24 26  1  0  0  0
 26 31  1  0  0  0
 26 27  2  0  0  0
 31 32  1  0  0  0
 27 21  1  0  0  0
  3  4  1  0  0  0
 25 28  1  0  0  0
M  END
>  <minimizedAffinity>
-8.04036

>  <minimizedRMSD>
1.47083

$$$$
CHEMBL3800203 PubChem-127047145


 37 39  0  0  0  0  0  0  0  0999 V2000
   14.8327   -7.7307   18.3447 C   0  0  0  0  0  0  0  0  0  0  0  0
   13.6571   -7.0905   17.9448 C   0  0  0  0  0  0  0  0  0  0  0  0
   12.8843   -6.3823   18.8669 C   0  0  0  0  0  0  0  0  0  0  0  0
   13.2835   -6.2895   20.2127 C   0  0  0  0  0  0  0  0  0  0  0  0
   14.4688   -6.9551   20.6225 C   0  0  0  0  0  0  0  0  0  0  0  0
   15.2246   -7.6664   19.6845 C   0  0  0  0  0  0  0  0  0  0  0  0
   11.6409   -5.7128   18.3917 C   0  0  0  0  0  0  0  0  0  0  0  0
   15.6409   -8.4778   17.3689 C   0  0  0  0  0  0  0  0  0  0  0  0
   15.5960   -8.2629   16.0365 N   0  0  0  0  0  0  0  0  0  0  0  0
   16.4886   -9.1693   15.5908 C   0  0  0  0  0  0  0  0  0  0  0  0
   17.0113   -9.8556   16.5779 O   0  0  0  0  0  0  0  0  0  0  0  0
   16.5080   -9.4540   17.7047 N   0  0  0  0  0  0  0  0  0  0  0  0
   16.8319   -9.3641   14.1755 C   0  0  0  0  0  0  0  0  0  0  0  0
   15.9590   -8.9319   13.1675 C   0  0  0  0  0  0  0  0  0  0  0  0
   16.2893   -9.1186   11.8220 C   0  0  0  0  0  0  0  0  0  0  0  0
   17.4967   -9.7343   11.4765 C   0  0  0  0  0  0  0  0  0  0  0  0
   18.3668  -10.1749   12.4790 C   0  0  0  0  0  0  0  0  0  0  0  0
   18.0363   -9.9880   13.8243 C   0  0  0  0  0  0  0  0  0  0  0  0
   17.8385   -9.9531   10.0447 C   0  0  0  0  0  0  0  0  0  0  0  0
   16.6465   -9.8121    9.2270 N   0  0  0  0  0  0  0  0  0  0  0  0
   17.0796   -9.2858    7.9459 C   0  0  0  0  0  0  0  0  0  0  0  0
   15.9914   -9.1671    9.6687 H   0  0  0  0  0  0  0  0  0  0  0  0
   14.9164   -7.0118   22.0457 C   0  0  0  0  0  0  0  0  0  0  0  0
   14.5744   -8.3611   22.6489 C   0  0  0  0  0  0  0  0  0  0  0  0
   12.4719   -5.5478   21.0899 O   0  0  0  0  0  0  0  0  0  0  0  0
   12.7746   -5.2849   22.4556 C   0  0  0  0  0  0  0  0  0  0  0  0
   13.8316   -4.1956   22.5629 C   0  0  0  0  0  0  0  0  0  0  0  0
   13.4613   -3.1077   21.7727 O   0  0  0  0  0  0  0  0  0  0  0  0
   12.6112   -2.7577   22.0823 H   0  0  0  0  0  0  0  0  0  0  0  0
   13.9674   -3.7427   24.0048 C   0  0  0  0  0  0  0  0  0  0  0  0
   15.0243   -4.4916   24.6672 N   0  0  0  0  0  0  0  0  0  0  0  0
   14.7417   -5.4996   25.6377 C   0  0  0  0  0  0  0  0  0  0  0  0
   13.5520   -5.8031   25.9206 O   0  0  0  0  0  0  0  0  0  0  0  0
   15.9622   -4.2974   24.4394 H   0  0  0  0  0  0  0  0  0  0  0  0
   15.8629   -6.2183   26.2995 C   0  0  0  0  0  0  0  0  0  0  0  0
   16.0010   -7.4889   25.7423 O   0  0  0  0  0  0  0  0  0  0  0  0
   15.1801   -7.9893   25.8707 H   0  0  0  0  0  0  0  0  0  0  0  0
  1  2  2  0  0  0
  2  3  1  0  0  0
  3  4  2  0  0  0
  4  5  1  0  0  0
  5  6  2  0  0  0
  5 23  1  0  0  0
 23 24  1  0  0  0
  4 25  1  0  0  0
 25 26  1  0  0  0
 27 26  1  0  0  0
 27 30  1  0  0  0
 30 31  1  0  0  0
 31 32  1  0  0  0
 32 33  2  0  0  0
 32 35  1  0  0  0
 35 36  1  0  0  0
 27 28  1  0  0  0
  3  7  1  0  0  0
  1  8  1  0  0  0
  8  9  1  0  0  0
  9 10  2  0  0  0
 10 11  1  0  0  0
 11 12  1  0  0  0
 10 13  1  0  0  0
 13 14  2  0  0  0
 14 15  1  0  0  0
 15 16  2  0  0  0
 16 17  1  0  0  0
 17 18  2  0  0  0
 16 19  1  0  0  0
 19 20  1  0  0  0
 20 21  1  0  0  0
  6  1  1  0  0  0
 12  8  2  0  0  0
 18 13  1  0  0  0
 31 34  1  0  0  0
 36 37  1  0  0  0
 28 29  1  0  0  0
 20 22  1  0  0  0
M  END
>  <minimizedAffinity>
-8.03450

>  <minimizedRMSD>
1.86022

$$$$
CHEMBL5014801 ChemDiv-L605-0028 MCULE-4975385819 MolPort-010-875-454 PubChem-53118012 ZINC000065060334 ZINC65060334


 27 30  0  0  0  0  0  0  0  0999 V2000
   15.5595   -8.3533   17.1438 C   0  0  0  0  0  0  0  0  0  0  0  0
   16.4507   -9.4230   17.0987 C   0  0  0  0  0  0  0  0  0  0  0  0
   16.7227   -9.6040   15.7994 N   0  0  0  0  0  0  0  0  0  0  0  0
   17.5385  -10.5078   15.2125 C   0  0  0  0  0  0  0  0  0  0  0  0
   17.6419  -10.4717   13.8154 C   0  0  0  0  0  0  0  0  0  0  0  0
   16.9360   -9.5489   13.0798 N   0  0  0  0  0  0  0  0  0  0  0  0
   16.1239   -8.6354   13.7215 C   0  0  0  0  0  0  0  0  0  0  0  0
   15.4907   -7.7506   13.0830 O   0  0  0  0  0  0  0  0  0  0  0  0
   16.0298   -8.6906   15.1116 C   0  0  0  0  0  0  0  0  0  0  0  0
   15.2910   -7.8864   15.8982 N   0  0  0  0  0  0  0  0  0  0  0  0
   17.0787   -9.5736   11.6410 C   0  0  0  0  0  0  0  0  0  0  0  0
   16.0440  -10.0526   10.8182 C   0  0  0  0  0  0  0  0  0  0  0  0
   16.1976  -10.0935    9.4298 C   0  0  0  0  0  0  0  0  0  0  0  0
   17.3904   -9.6615    8.8462 C   0  0  0  0  0  0  0  0  0  0  0  0
   17.5826   -9.7124    7.1074 Cl  0  0  0  0  0  0  0  0  0  0  0  0
   18.4313   -9.1924    9.6504 C   0  0  0  0  0  0  0  0  0  0  0  0
   18.2777   -9.1513   11.0387 C   0  0  0  0  0  0  0  0  0  0  0  0
   13.8386   -6.6916   20.7020 C   0  0  0  0  0  0  0  0  0  0  0  0
   13.1434   -6.6197   19.4852 C   0  0  0  0  0  0  0  0  0  0  0  0
   13.7168   -7.1674   18.3258 C   0  0  0  0  0  0  0  0  0  0  0  0
   14.9730   -7.7841   18.3691 C   0  0  0  0  0  0  0  0  0  0  0  0
   15.6605   -7.8520   19.5870 C   0  0  0  0  0  0  0  0  0  0  0  0
   15.0984   -7.3103   20.7445 C   0  0  0  0  0  0  0  0  0  0  0  0
   14.0278   -5.7180   22.9707 C   0  0  0  0  0  0  0  0  0  0  0  0
   13.2609   -6.1436   21.8526 O   0  0  0  0  0  0  0  0  0  0  0  0
   11.8886   -6.0018   19.4503 O   0  0  0  0  0  0  0  0  0  0  0  0
   11.6043   -4.8841   18.6198 C   0  0  0  0  0  0  0  0  0  0  0  0
 24 25  1  0  0  0
 25 18  1  0  0  0
 18 19  2  0  0  0
 19 26  1  0  0  0
 19 20  1  0  0  0
 26 27  1  0  0  0
 20 21  2  0  0  0
 21 22  1  0  0  0
 21  1  1  0  0  0
 22 23  2  0  0  0
 23 18  1  0  0  0
  1  2  2  0  0  0
  2  3  1  0  0  0
  3  4  1  0  0  0
  4  5  2  0  0  0
  5  6  1  0  0  0
  6 11  1  0  0  0
  6  7  1  0  0  0
 11 12  2  0  0  0
 12 13  1  0  0  0
 13 14  2  0  0  0
 14 15  1  0  0  0
 14 16  1  0  0  0
 16 17  2  0  0  0
 17 11  1  0  0  0
  7  8  2  0  0  0
  7  9  1  0  0  0
  9 10  2  0  0  0
  9  3  1  0  0  0
 10  1  1  0  0  0
M  END
>  <minimizedAffinity>
-8.02318

>  <minimizedRMSD>
1.61705

$$$$
CHEMBL1541407 4880726 ChemDiv-C226-0771 MCULE-9329359306 MolPort-006-843-220 PubChem-17252848 ZINC000004880726 ZINC04880726


 29 31  0  0  0  0  0  0  0  0999 V2000
   15.1705   -7.8276   17.8824 C   0  0  0  0  0  0  0  0  0  0  0  0
   14.1478   -7.1225   17.6680 O   0  0  0  0  0  0  0  0  0  0  0  0
   15.7509   -7.9062   19.1919 N   0  0  0  0  0  0  0  0  0  0  0  0
   16.5487   -8.4752   19.2871 H   0  0  0  0  0  0  0  0  0  0  0  0
   15.2903   -7.2426   20.3767 C   0  0  0  0  0  0  0  0  0  0  0  0
   13.9370   -6.9705   20.5954 C   0  0  0  0  0  0  0  0  0  0  0  0
   13.5052   -6.3195   21.7617 C   0  0  0  0  0  0  0  0  0  0  0  0
   14.4614   -5.9319   22.7348 C   0  0  0  0  0  0  0  0  0  0  0  0
   15.8216   -6.2067   22.5121 C   0  0  0  0  0  0  0  0  0  0  0  0
   16.2235   -6.8585   21.3371 C   0  0  0  0  0  0  0  0  0  0  0  0
   12.1433   -6.0594   21.9543 O   0  0  0  0  0  0  0  0  0  0  0  0
   11.4740   -4.9535   21.3624 C   0  0  0  0  0  0  0  0  0  0  0  0
   14.1235   -5.2766   23.9311 O   0  0  0  0  0  0  0  0  0  0  0  0
   13.9270   -3.8766   24.0676 C   0  0  0  0  0  0  0  0  0  0  0  0
   16.7599   -5.8212   23.4766 O   0  0  0  0  0  0  0  0  0  0  0  0
   17.7669   -6.6966   23.9660 C   0  0  0  0  0  0  0  0  0  0  0  0
   16.3799   -9.2972   14.8423 C   0  0  0  0  0  0  0  0  0  0  0  0
   15.6061   -8.3113   15.4319 C   0  0  0  0  0  0  0  0  0  0  0  0
   15.7782   -8.5799   16.7794 C   0  0  0  0  0  0  0  0  0  0  0  0
   16.5890   -9.6398   16.9558 N   0  0  0  0  0  0  0  0  0  0  0  0
   16.9306  -10.0440   15.7704 O   0  0  0  0  0  0  0  0  0  0  0  0
   16.9644   -9.8892   10.6411 C   0  0  0  0  0  0  0  0  0  0  0  0
   18.0579   -9.8636   11.5123 C   0  0  0  0  0  0  0  0  0  0  0  0
   17.8643   -9.6703   12.8832 C   0  0  0  0  0  0  0  0  0  0  0  0
   16.5730   -9.5000   13.3983 C   0  0  0  0  0  0  0  0  0  0  0  0
   15.4758   -9.5254   12.5263 C   0  0  0  0  0  0  0  0  0  0  0  0
   15.6692   -9.7189   11.1559 C   0  0  0  0  0  0  0  0  0  0  0  0
   16.8116   -9.1331    8.2909 C   0  0  0  0  0  0  0  0  0  0  0  0
   17.1913  -10.0844    9.2759 O   0  0  0  0  0  0  0  0  0  0  0  0
 28 29  1  0  0  0
 29 22  1  0  0  0
 22 23  2  0  0  0
 23 24  1  0  0  0
 24 25  2  0  0  0
 25 26  1  0  0  0
 25 17  1  0  0  0
 26 27  2  0  0  0
 27 22  1  0  0  0
 17 18  2  0  0  0
 18 19  1  0  0  0
 19 20  2  0  0  0
 19  1  1  0  0  0
 20 21  1  0  0  0
 21 17  1  0  0  0
  1  2  2  0  0  0
  1  3  1  0  0  0
  3  5  1  0  0  0
  5  6  2  0  0  0
  6  7  1  0  0  0
  7 11  1  0  0  0
  7  8  2  0  0  0
 11 12  1  0  0  0
  8 13  1  0  0  0
  8  9  1  0  0  0
 13 14  1  0  0  0
  9 15  1  0  0  0
  9 10  2  0  0  0
 15 16  1  0  0  0
 10  5  1  0  0  0
  3  4  1  0  0  0
M  END
>  <minimizedAffinity>
-8.02203

>  <minimizedRMSD>
1.94746

$$$$
CHEMBL2003606 9506937 MolPort-005-319-604 PubChem-9684435 ZINC000009506937 ZINC09506937


 38 40  0  0  0  0  0  0  0  0999 V2000
   16.8743  -10.0067   15.3324 N   0  0  0  0  0  0  0  0  0  0  0  0
   16.3646   -8.7523   15.8256 C   0  0  0  0  0  0  0  0  0  0  0  0
   16.6275   -7.6783   15.2205 O   0  0  0  0  0  0  0  0  0  0  0  0
   17.4649  -10.0922   14.0242 C   0  0  0  0  0  0  0  0  0  0  0  0
   16.6900   -9.9045   12.8679 C   0  0  0  0  0  0  0  0  0  0  0  0
   15.2866   -9.6656   12.9897 N   0  0  0  0  0  0  0  0  0  0  0  0
   17.2718   -9.9830   11.6314 N   0  0  0  0  0  0  0  0  0  0  0  0
   18.6066  -10.2608   11.5154 C   0  0  0  0  0  0  0  0  0  0  0  0
   19.1493  -10.3464   10.3806 O   0  0  0  0  0  0  0  0  0  0  0  0
   19.3631  -10.4515   12.6259 N   0  0  0  0  0  0  0  0  0  0  0  0
   18.8277  -10.3730   13.8686 C   0  0  0  0  0  0  0  0  0  0  0  0
   19.5668  -10.5438   14.8737 O   0  0  0  0  0  0  0  0  0  0  0  0
   14.8723   -9.6099   13.8811 H   0  0  0  0  0  0  0  0  0  0  0  0
   14.7339   -9.5567   12.1823 H   0  0  0  0  0  0  0  0  0  0  0  0
   20.3219  -10.6513   12.5266 H   0  0  0  0  0  0  0  0  0  0  0  0
   16.4647   -9.7619   10.4296 C   0  0  0  0  0  0  0  0  0  0  0  0
   17.2637   -9.0586    9.3819 C   0  0  0  0  0  0  0  0  0  0  0  0
   17.1569   -9.4471    8.0418 C   0  0  0  0  0  0  0  0  0  0  0  0
   17.9202   -8.8037    7.0628 C   0  0  0  0  0  0  0  0  0  0  0  0
   18.7941   -7.7733    7.4229 C   0  0  0  0  0  0  0  0  0  0  0  0
   18.9058   -7.3871    8.7621 C   0  0  0  0  0  0  0  0  0  0  0  0
   18.1426   -8.0305    9.7409 C   0  0  0  0  0  0  0  0  0  0  0  0
   17.7650  -11.3340   17.1883 C   0  0  0  0  0  0  0  0  0  0  0  0
   16.7109  -11.2393   16.0994 C   0  0  0  0  0  0  0  0  0  0  0  0
   15.4891   -8.6977   17.0324 C   0  0  0  0  0  0  0  0  0  0  0  0
   14.8790   -7.4148   17.1198 O   0  0  0  0  0  0  0  0  0  0  0  0
   14.5048   -6.8518   18.3259 N   0  0  0  0  0  0  0  0  0  0  0  0
   14.3352   -7.5499   19.4051 C   0  0  0  0  0  0  0  0  0  0  0  0
   13.9357   -6.9455   20.6880 C   0  0  0  0  0  0  0  0  0  0  0  0
   14.8775   -6.9683   21.7218 C   0  0  0  0  0  0  0  0  0  0  0  0
   14.5807   -6.4177   22.9694 C   0  0  0  0  0  0  0  0  0  0  0  0
   13.3292   -5.8326   23.2025 C   0  0  0  0  0  0  0  0  0  0  0  0
   12.3841   -5.8068   22.1750 C   0  0  0  0  0  0  0  0  0  0  0  0
   12.6693   -6.3574   20.9136 C   0  0  0  0  0  0  0  0  0  0  0  0
   12.9998   -5.2724   24.4398 O   0  0  0  0  0  0  0  0  0  0  0  0
   13.7875   -5.4693   25.6061 C   0  0  0  0  0  0  0  0  0  0  0  0
   11.7118   -6.3240   19.8925 O   0  0  0  0  0  0  0  0  0  0  0  0
   10.7169   -5.3131   19.7983 C   0  0  0  0  0  0  0  0  0  0  0  0
 23 24  1  0  0  0
 24  1  1  0  0  0
  1  2  1  0  0  0
  1  4  1  0  0  0
  2  3  2  0  0  0
  2 25  1  0  0  0
 25 26  1  0  0  0
 26 27  1  0  0  0
 27 28  2  0  0  0
 28 29  1  0  0  0
 29 30  2  0  0  0
 30 31  1  0  0  0
 31 32  2  0  0  0
 32 35  1  0  0  0
 32 33  1  0  0  0
 35 36  1  0  0  0
 33 34  2  0  0  0
 34 37  1  0  0  0
 34 29  1  0  0  0
 37 38  1  0  0  0
  4  5  2  0  0  0
  5  6  1  0  0  0
  5  7  1  0  0  0
  7 16  1  0  0  0
  7  8  1  0  0  0
 16 17  1  0  0  0
 17 18  2  0  0  0
 18 19  1  0  0  0
 19 20  2  0  0  0
 20 21  1  0  0  0
 21 22  2  0  0  0
 22 17  1  0  0  0
  8  9  2  0  0  0
  8 10  1  0  0  0
 10 11  1  0  0  0
 11 12  2  0  0  0
 11  4  1  0  0  0
  6 13  1  0  0  0
  6 14  1  0  0  0
 10 15  1  0  0  0
M  END
>  <minimizedAffinity>
-8.01622

>  <minimizedRMSD>
1.63124

$$$$
CHEMBL1314312 ChemDiv-G267-0316 MCULE-3076938971 MolPort-007-837-253 PubChem-16027009 ZINC000008605683


 34 37  0  0  0  0  0  0  0  0999 V2000
   16.6373   -9.5287   13.7925 C   0  0  0  0  0  0  0  0  0  0  0  0
   15.9513   -8.8152   14.7777 C   0  0  0  0  0  0  0  0  0  0  0  0
   16.2852   -8.9474   16.1334 C   0  0  0  0  0  0  0  0  0  0  0  0
   17.3429   -9.8306   16.4742 C   0  0  0  0  0  0  0  0  0  0  0  0
   17.9960  -10.5155   15.4962 N   0  0  0  0  0  0  0  0  0  0  0  0
   17.6754  -10.3899   14.1833 C   0  0  0  0  0  0  0  0  0  0  0  0
   18.3740  -11.1141   13.2208 C   0  0  0  0  0  0  0  0  0  0  0  0
   18.0296  -10.9696   11.8767 C   0  0  0  0  0  0  0  0  0  0  0  0
   17.0215  -10.1325   11.5013 N   0  0  0  0  0  0  0  0  0  0  0  0
   16.3182   -9.4101   12.4291 C   0  0  0  0  0  0  0  0  0  0  0  0
   15.3849   -8.6416   12.0630 O   0  0  0  0  0  0  0  0  0  0  0  0
   17.7890  -10.0522   17.8793 C   0  0  0  0  0  0  0  0  0  0  0  0
   15.5068   -8.1526   17.1214 C   0  0  0  0  0  0  0  0  0  0  0  0
   14.5390   -7.4511   16.7173 O   0  0  0  0  0  0  0  0  0  0  0  0
   15.8419   -8.1720   18.5169 N   0  0  0  0  0  0  0  0  0  0  0  0
   16.6095   -8.7315   18.7757 H   0  0  0  0  0  0  0  0  0  0  0  0
   15.1810   -7.4658   19.5756 C   0  0  0  0  0  0  0  0  0  0  0  0
   15.9357   -7.0235   20.6597 C   0  0  0  0  0  0  0  0  0  0  0  0
   15.3358   -6.3293   21.7202 C   0  0  0  0  0  0  0  0  0  0  0  0
   13.9545   -6.0708   21.7005 C   0  0  0  0  0  0  0  0  0  0  0  0
   13.1791   -6.5179   20.6004 C   0  0  0  0  0  0  0  0  0  0  0  0
   13.8072   -7.2100   19.5531 C   0  0  0  0  0  0  0  0  0  0  0  0
   16.0948   -5.8854   22.8092 O   0  0  0  0  0  0  0  0  0  0  0  0
   17.3359   -6.4740   23.1744 C   0  0  0  0  0  0  0  0  0  0  0  0
   11.8016   -6.2751   20.5513 O   0  0  0  0  0  0  0  0  0  0  0  0
   11.2334   -5.1687   19.8626 C   0  0  0  0  0  0  0  0  0  0  0  0
   13.4136   -5.3716   22.7929 O   0  0  0  0  0  0  0  0  0  0  0  0
   13.1990   -3.9685   22.8385 C   0  0  0  0  0  0  0  0  0  0  0  0
   16.7211  -10.0150   10.0785 C   0  0  0  0  0  0  0  0  0  0  0  0
   17.7020   -9.1093    9.4131 C   0  0  0  0  0  0  0  0  0  0  0  0
   18.7854   -8.5078   10.0290 C   0  0  0  0  0  0  0  0  0  0  0  0
   19.4937   -7.6608    9.1644 C   0  0  0  0  0  0  0  0  0  0  0  0
   18.9676   -7.5823    7.8766 C   0  0  0  0  0  0  0  0  0  0  0  0
   17.6114   -8.5777    7.8286 S   0  0  0  0  0  0  0  0  0  0  0  0
  1  2  2  0  0  0
  2  3  1  0  0  0
  3  4  2  0  0  0
  4  5  1  0  0  0
  5  6  2  0  0  0
  6  7  1  0  0  0
  7  8  2  0  0  0
  8  9  1  0  0  0
  9 29  1  0  0  0
 29 30  1  0  0  0
 30 31  2  0  0  0
 31 32  1  0  0  0
 32 33  2  0  0  0
 33 34  1  0  0  0
  9 10  1  0  0  0
 10 11  2  0  0  0
  4 12  1  0  0  0
  3 13  1  0  0  0
 13 14  2  0  0  0
 13 15  1  0  0  0
 15 17  1  0  0  0
 17 18  2  0  0  0
 18 19  1  0  0  0
 19 23  1  0  0  0
 23 24  1  0  0  0
 19 20  2  0  0  0
 20 21  1  0  0  0
 21 25  1  0  0  0
 25 26  1  0  0  0
 21 22  2  0  0  0
 20 27  1  0  0  0
 27 28  1  0  0  0
  6  1  1  0  0  0
 34 30  1  0  0  0
 22 17  1  0  0  0
 10  1  1  0  0  0
 15 16  1  0  0  0
M  END
>  <minimizedAffinity>
-8.01544

>  <minimizedRMSD>
0.83054

$$$$
CHEMBL3407821 CHEMBL3547160 PubChem-118730382 PubChem-118730383


 26 28  0  0  0  0  0  0  0  0999 V2000
   14.8505   -7.8402   16.9954 C   0  0  0  0  0  0  0  0  0  0  0  0
   14.6943   -7.4766   18.4330 C   0  0  0  0  0  0  0  0  0  0  0  0
   15.6645   -7.8585   19.3582 C   0  0  0  0  0  0  0  0  0  0  0  0
   15.4909   -7.4869   20.6896 C   0  0  0  0  0  0  0  0  0  0  0  0
   14.3989   -6.7676   21.0572 N   0  0  0  0  0  0  0  0  0  0  0  0
   13.4597   -6.3968   20.1434 C   0  0  0  0  0  0  0  0  0  0  0  0
   13.6174   -6.7542   18.8394 N   0  0  0  0  0  0  0  0  0  0  0  0
   12.3160   -5.6330   20.5602 N   0  0  0  0  0  0  0  0  0  0  0  0
   11.4610   -4.9077   19.8131 C   0  0  0  0  0  0  0  0  0  0  0  0
   10.5123   -4.3414   20.6331 C   0  0  0  0  0  0  0  0  0  0  0  0
   10.7823   -4.7198   21.9002 N   0  0  0  0  0  0  0  0  0  0  0  0
   11.8805   -5.5020   21.8277 C   0  0  0  0  0  0  0  0  0  0  0  0
   11.5190   -4.7330   18.3337 C   0  0  0  0  0  0  0  0  0  0  0  0
   16.0972   -8.6838   16.7828 C   0  0  0  0  0  0  0  0  0  0  0  0
   15.9625   -9.4791   15.5728 N   0  0  0  0  0  0  0  0  0  0  0  0
   14.9798   -9.6920   15.4019 H   0  0  0  0  0  0  0  0  0  0  0  0
   16.4990   -8.6872   14.4772 C   0  0  0  0  0  0  0  0  0  0  0  0
   16.1199   -9.3065   13.1421 C   0  0  0  0  0  0  0  0  0  0  0  0
   17.3546   -9.8565   12.4468 C   0  0  0  0  0  0  0  0  0  0  0  0
   17.2956   -9.5863   10.9822 C   0  0  0  0  0  0  0  0  0  0  0  0
   16.2449  -10.1133   10.2238 C   0  0  0  0  0  0  0  0  0  0  0  0
   16.1884   -9.8798    8.8462 C   0  0  0  0  0  0  0  0  0  0  0  0
   17.1855   -9.1226    8.2238 C   0  0  0  0  0  0  0  0  0  0  0  0
   18.2404   -8.6001    8.9783 C   0  0  0  0  0  0  0  0  0  0  0  0
   18.2977   -8.8336   10.3555 C   0  0  0  0  0  0  0  0  0  0  0  0
   19.2079   -7.8692    8.3746 F   0  0  0  0  0  0  0  0  0  0  0  0
  2  3  2  0  0  0
  3  4  1  0  0  0
  4  5  2  0  0  0
  5  6  1  0  0  0
  6  7  2  0  0  0
  6  8  1  0  0  0
  8  9  1  0  0  0
  9 10  2  0  0  0
 10 11  1  0  0  0
 11 12  2  0  0  0
  9 13  1  0  0  0
  2  1  1  0  0  0
  1 14  1  0  0  0
 14 15  1  0  0  0
 15 17  1  0  0  0
 17 18  1  0  0  0
 18 19  1  0  0  0
 19 20  1  0  0  0
 20 21  2  0  0  0
 21 22  1  0  0  0
 22 23  2  0  0  0
 23 24  1  0  0  0
 24 25  2  0  0  0
 24 26  1  0  0  0
  7  2  1  0  0  0
 12  8  1  0  0  0
 25 20  1  0  0  0
 15 16  1  0  0  0
M  END
>  <minimizedAffinity>
-8.01318

>  <minimizedRMSD>
1.54299

$$$$
CHEMBL1861998 PubChem-56665910


 32 35  0  0  0  0  0  0  0  0999 V2000
   15.5218   -8.1817   17.4005 C   0  0  0  0  0  0  0  0  0  0  0  0
   15.3788   -7.8364   16.1056 N   0  0  0  0  0  0  0  0  0  0  0  0
   16.3516   -8.5454   15.5055 C   0  0  0  0  0  0  0  0  0  0  0  0
   17.0451   -9.3020   16.4256 C   0  0  0  0  0  0  0  0  0  0  0  0
   16.4987   -9.0408   17.5897 O   0  0  0  0  0  0  0  0  0  0  0  0
   14.4289   -6.9027   20.7810 C   0  0  0  0  0  0  0  0  0  0  0  0
   15.2236   -7.4040   19.7400 C   0  0  0  0  0  0  0  0  0  0  0  0
   14.6759   -7.6578   18.4823 C   0  0  0  0  0  0  0  0  0  0  0  0
   13.3205   -7.4068   18.2635 C   0  0  0  0  0  0  0  0  0  0  0  0
   12.5012   -6.9055   19.2876 C   0  0  0  0  0  0  0  0  0  0  0  0
   13.0631   -6.6505   20.5649 C   0  0  0  0  0  0  0  0  0  0  0  0
   16.3733   -6.5063   22.2642 C   0  0  0  0  0  0  0  0  0  0  0  0
   14.9762   -6.6474   22.0437 O   0  0  0  0  0  0  0  0  0  0  0  0
   11.1446   -6.6631   19.0422 O   0  0  0  0  0  0  0  0  0  0  0  0
   10.3108   -7.5696   18.3321 C   0  0  0  0  0  0  0  0  0  0  0  0
   12.3214   -6.1500   21.6485 O   0  0  0  0  0  0  0  0  0  0  0  0
   11.9956   -4.7822   21.8525 C   0  0  0  0  0  0  0  0  0  0  0  0
   16.5930   -8.5441   14.0352 C   0  0  0  0  0  0  0  0  0  0  0  0
   16.4128   -9.8863   13.4966 N   0  0  0  0  0  0  0  0  0  0  0  0
   15.4200   -9.7962   12.4083 C   0  0  0  0  0  0  0  0  0  0  0  0
   15.9225  -10.3210   11.0628 C   0  0  0  0  0  0  0  0  0  0  0  0
   17.2163   -9.7139   10.7750 N   0  0  0  0  0  0  0  0  0  0  0  0
   18.2535   -9.7503   11.8059 C   0  0  0  0  0  0  0  0  0  0  0  0
   17.7270  -10.4145   13.0846 C   0  0  0  0  0  0  0  0  0  0  0  0
   17.4679   -9.1356    9.4818 C   0  0  0  0  0  0  0  0  0  0  0  0
   16.4679   -9.2134    8.5008 C   0  0  0  0  0  0  0  0  0  0  0  0
   16.6682   -8.6759    7.2301 C   0  0  0  0  0  0  0  0  0  0  0  0
   17.8742   -8.0490    6.9224 C   0  0  0  0  0  0  0  0  0  0  0  0
   18.8831   -7.9482    7.8828 C   0  0  0  0  0  0  0  0  0  0  0  0
   20.1482   -7.2514    7.5079 C   0  0  0  0  0  0  0  0  0  0  0  0
   18.6871   -8.4819    9.1735 C   0  0  0  0  0  0  0  0  0  0  0  0
   19.7450   -8.2963   10.2169 C   0  0  0  0  0  0  0  0  0  0  0  0
 12 13  1  0  0  0
 13  6  1  0  0  0
  6  7  2  0  0  0
  7  8  1  0  0  0
  8  1  1  0  0  0
  8  9  2  0  0  0
  1  2  2  0  0  0
  2  3  1  0  0  0
  3 18  1  0  0  0
  3  4  2  0  0  0
 18 19  1  0  0  0
 19 20  1  0  0  0
 20 21  1  0  0  0
 21 22  1  0  0  0
 22 25  1  0  0  0
 22 23  1  0  0  0
 25 26  2  0  0  0
 26 27  1  0  0  0
 27 28  2  0  0  0
 28 29  1  0  0  0
 29 30  1  0  0  0
 29 31  2  0  0  0
 31 32  1  0  0  0
 31 25  1  0  0  0
 23 24  1  0  0  0
 24 19  1  0  0  0
  4  5  1  0  0  0
  5  1  1  0  0  0
  9 10  1  0  0  0
 10 14  1  0  0  0
 10 11  2  0  0  0
 14 15  1  0  0  0
 11 16  1  0  0  0
 11  6  1  0  0  0
 16 17  1  0  0  0
M  END
>  <minimizedAffinity>
-7.98873

>  <minimizedRMSD>
1.58282

$$$$
CHEMBL3194592 ChemDiv-3272-0898 MolPort-003-002-756 PubChem-6049307 ZINC08683246


 35 37  0  0  0  0  0  0  0  0999 V2000
   15.1978   -7.7596   16.4372 N   0  0  0  0  0  0  0  0  0  0  0  0
   16.1713   -8.7994   16.2430 C   0  0  0  0  0  0  0  0  0  0  0  0
   16.6707   -9.4051   17.2302 O   0  0  0  0  0  0  0  0  0  0  0  0
   14.8198   -7.3423   15.6296 H   0  0  0  0  0  0  0  0  0  0  0  0
   16.5870   -9.1644   14.8769 C   0  0  0  0  0  0  0  0  0  0  0  0
   15.8119   -8.7822   13.7737 C   0  0  0  0  0  0  0  0  0  0  0  0
   16.2091   -9.1240   12.4789 C   0  0  0  0  0  0  0  0  0  0  0  0
   17.3873   -9.8556   12.2603 C   0  0  0  0  0  0  0  0  0  0  0  0
   18.1572  -10.2405   13.3697 C   0  0  0  0  0  0  0  0  0  0  0  0
   17.7619   -9.8974   14.6653 C   0  0  0  0  0  0  0  0  0  0  0  0
   17.8023  -10.2060   10.9246 N   0  0  0  0  0  0  0  0  0  0  0  0
   19.0686  -10.8906   10.7003 C   0  0  0  0  0  0  0  0  0  0  0  0
   16.8354   -9.8057    9.5356 S   0  0  0  0  0  0  0  0  0  0  0  0
   15.6487   -8.9953    9.9777 O   0  0  0  0  0  0  0  0  0  0  0  0
   16.3461  -11.0613    8.8700 O   0  0  0  0  0  0  0  0  0  0  0  0
   17.7984   -8.8968    8.3839 C   0  0  0  0  0  0  0  0  0  0  0  0
   18.6321   -7.8663    8.8342 C   0  0  0  0  0  0  0  0  0  0  0  0
   19.4012   -7.1375    7.9220 C   0  0  0  0  0  0  0  0  0  0  0  0
   19.3384   -7.4382    6.5575 C   0  0  0  0  0  0  0  0  0  0  0  0
   18.5074   -8.4682    6.1051 C   0  0  0  0  0  0  0  0  0  0  0  0
   17.7383   -9.1975    7.0176 C   0  0  0  0  0  0  0  0  0  0  0  0
   15.0713   -7.8137   18.8158 C   0  0  0  0  0  0  0  0  0  0  0  0
   14.7368   -7.2848   17.6807 N   0  0  0  0  0  0  0  0  0  0  0  0
   14.8572   -7.0192   22.4909 C   0  0  0  0  0  0  0  0  0  0  0  0
   15.3011   -7.5066   21.2512 C   0  0  0  0  0  0  0  0  0  0  0  0
   14.5686   -7.2838   20.0867 C   0  0  0  0  0  0  0  0  0  0  0  0
   13.3743   -6.5622   20.1531 C   0  0  0  0  0  0  0  0  0  0  0  0
   12.9075   -6.0634   21.3778 C   0  0  0  0  0  0  0  0  0  0  0  0
   13.6420   -6.2885   22.5559 C   0  0  0  0  0  0  0  0  0  0  0  0
   16.9428   -6.7858   23.8157 C   0  0  0  0  0  0  0  0  0  0  0  0
   15.6112   -7.2564   23.6466 O   0  0  0  0  0  0  0  0  0  0  0  0
   11.7115   -5.3388   21.4492 O   0  0  0  0  0  0  0  0  0  0  0  0
   10.8781   -5.1109   20.3191 C   0  0  0  0  0  0  0  0  0  0  0  0
   13.1182   -5.7665   23.7515 O   0  0  0  0  0  0  0  0  0  0  0  0
   13.5270   -4.5484   24.3581 C   0  0  0  0  0  0  0  0  0  0  0  0
 30 31  1  0  0  0
 31 24  1  0  0  0
 24 25  2  0  0  0
 25 26  1  0  0  0
 26 22  1  0  0  0
 26 27  2  0  0  0
 22 23  2  0  0  0
 23  1  1  0  0  0
  1  2  1  0  0  0
  2  3  2  0  0  0
  2  5  1  0  0  0
  5  6  2  0  0  0
  6  7  1  0  0  0
  7  8  2  0  0  0
  8  9  1  0  0  0
  8 11  1  0  0  0
  9 10  2  0  0  0
 10  5  1  0  0  0
 11 12  1  0  0  0
 11 13  1  0  0  0
 13 14  2  0  0  0
 13 15  2  0  0  0
 13 16  1  0  0  0
 16 17  2  0  0  0
 17 18  1  0  0  0
 18 19  2  0  0  0
 19 20  1  0  0  0
 20 21  2  0  0  0
 21 16  1  0  0  0
 27 28  1  0  0  0
 28 32  1  0  0  0
 28 29  2  0  0  0
 32 33  1  0  0  0
 29 34  1  0  0  0
 29 24  1  0  0  0
 34 35  1  0  0  0
  1  4  1  0  0  0
M  END
>  <minimizedAffinity>
-7.98097

>  <minimizedRMSD>
1.57758

$$$$
CHEMBL1875161 ChemDiv-D305-1255 MCULE-2782655516 MolPort-007-695-330 PubChem-16015268 ZINC000008606708


 34 37  0  0  0  0  0  0  0  0999 V2000
   17.6008  -10.3052   12.9019 N   0  0  0  0  0  0  0  0  0  0  0  0
   16.4537   -9.9849   12.2493 C   0  0  0  0  0  0  0  0  0  0  0  0
   15.5387   -9.3627   13.0384 N   0  0  0  0  0  0  0  0  0  0  0  0
   16.1603   -9.3103   14.2317 C   0  0  0  0  0  0  0  0  0  0  0  0
   15.6753   -8.7643   15.4162 C   0  0  0  0  0  0  0  0  0  0  0  0
   16.5117   -8.8067   16.5543 C   0  0  0  0  0  0  0  0  0  0  0  0
   17.7975   -9.3884   16.4594 C   0  0  0  0  0  0  0  0  0  0  0  0
   18.2614   -9.9307   15.2468 C   0  0  0  0  0  0  0  0  0  0  0  0
   17.4014   -9.8706   14.1527 C   0  0  0  0  0  0  0  0  0  0  0  0
   16.0951   -8.2711   17.8177 N   0  0  0  0  0  0  0  0  0  0  0  0
   14.8493   -7.6190   18.1092 C   0  0  0  0  0  0  0  0  0  0  0  0
   13.9794   -7.4649   17.2092 O   0  0  0  0  0  0  0  0  0  0  0  0
   16.7305   -8.3599   18.5644 H   0  0  0  0  0  0  0  0  0  0  0  0
   14.5847   -7.1263   19.4725 C   0  0  0  0  0  0  0  0  0  0  0  0
   15.5699   -7.2103   20.4583 C   0  0  0  0  0  0  0  0  0  0  0  0
   15.3286   -6.7449   21.7589 C   0  0  0  0  0  0  0  0  0  0  0  0
   14.0819   -6.1845   22.0861 C   0  0  0  0  0  0  0  0  0  0  0  0
   13.0759   -6.0951   21.0901 C   0  0  0  0  0  0  0  0  0  0  0  0
   13.3450   -6.5691   19.7964 C   0  0  0  0  0  0  0  0  0  0  0  0
   16.3167   -6.8291   22.7466 O   0  0  0  0  0  0  0  0  0  0  0  0
   17.6350   -6.3308   22.5626 C   0  0  0  0  0  0  0  0  0  0  0  0
   13.9027   -5.7378   23.4065 O   0  0  0  0  0  0  0  0  0  0  0  0
   14.0792   -4.3987   23.8461 C   0  0  0  0  0  0  0  0  0  0  0  0
   11.8247   -5.5411   21.3857 O   0  0  0  0  0  0  0  0  0  0  0  0
   10.9128   -5.1070   20.3852 C   0  0  0  0  0  0  0  0  0  0  0  0
   19.2524  -12.0694   13.2513 C   0  0  0  0  0  0  0  0  0  0  0  0
   18.8068  -10.9227   12.3632 C   0  0  0  0  0  0  0  0  0  0  0  0
   16.2325  -10.2159   10.7905 C   0  0  0  0  0  0  0  0  0  0  0  0
   17.3488   -9.6797   10.0302 N   0  0  0  0  0  0  0  0  0  0  0  0
   17.4455   -8.2555   10.3482 C   0  0  0  0  0  0  0  0  0  0  0  0
   18.6599   -7.6239    9.6560 C   0  0  0  0  0  0  0  0  0  0  0  0
   19.1279   -8.4396    8.4472 C   0  0  0  0  0  0  0  0  0  0  0  0
   17.9387   -9.0260    7.6879 C   0  0  0  0  0  0  0  0  0  0  0  0
   17.0001   -9.8209    8.6129 C   0  0  0  0  0  0  0  0  0  0  0  0
 26 27  1  0  0  0
 27  1  1  0  0  0
  1  2  1  0  0  0
  2 28  1  0  0  0
 28 29  1  0  0  0
 29 30  1  0  0  0
 30 31  1  0  0  0
 31 32  1  0  0  0
 32 33  1  0  0  0
 33 34  1  0  0  0
  2  3  2  0  0  0
  3  4  1  0  0  0
  4  5  2  0  0  0
  5  6  1  0  0  0
  6 10  1  0  0  0
 10 11  1  0  0  0
 11 12  2  0  0  0
 11 14  1  0  0  0
 14 15  2  0  0  0
 15 16  1  0  0  0
 16 20  1  0  0  0
 20 21  1  0  0  0
 16 17  2  0  0  0
 17 22  1  0  0  0
 22 23  1  0  0  0
 17 18  1  0  0  0
 18 24  1  0  0  0
 24 25  1  0  0  0
 18 19  2  0  0  0
  6  7  2  0  0  0
  7  8  1  0  0  0
  8  9  2  0  0  0
  9  1  1  0  0  0
 34 29  1  0  0  0
  9  4  1  0  0  0
 19 14  1  0  0  0
 10 13  1  0  0  0
M  END
>  <minimizedAffinity>
-7.98020

>  <minimizedRMSD>
1.20630

$$$$
CHEMBL4483497 PubChem-135334884


 32 36  0  0  0  0  0  0  0  0999 V2000
   14.6877   -7.4960   18.6412 C   0  0  0  0  0  0  0  0  0  0  0  0
   15.8574   -8.2180   18.8727 C   0  0  0  0  0  0  0  0  0  0  0  0
   16.2413   -8.6818   17.6759 N   0  0  0  0  0  0  0  0  0  0  0  0
   17.3176   -9.4401   17.3587 C   0  0  0  0  0  0  0  0  0  0  0  0
   17.4976   -9.7968   16.0150 C   0  0  0  0  0  0  0  0  0  0  0  0
   16.5707   -9.3676   15.0350 C   0  0  0  0  0  0  0  0  0  0  0  0
   15.4690   -8.5780   15.4289 C   0  0  0  0  0  0  0  0  0  0  0  0
   15.3438   -8.2563   16.7774 C   0  0  0  0  0  0  0  0  0  0  0  0
   14.3621   -7.5184   17.3229 N   0  0  0  0  0  0  0  0  0  0  0  0
   14.3718   -6.4601   20.9445 C   0  0  0  0  0  0  0  0  0  0  0  0
   13.5378   -5.7855   21.8513 C   0  0  0  0  0  0  0  0  0  0  0  0
   12.2266   -5.4298   21.5061 C   0  0  0  0  0  0  0  0  0  0  0  0
   11.7443   -5.7553   20.2331 C   0  0  0  0  0  0  0  0  0  0  0  0
   12.5647   -6.4255   19.3248 C   0  0  0  0  0  0  0  0  0  0  0  0
   13.8776   -6.7858   19.6598 C   0  0  0  0  0  0  0  0  0  0  0  0
   10.1107   -5.3321   19.7531 Cl  0  0  0  0  0  0  0  0  0  0  0  0
   16.2600   -6.4275   22.5514 C   0  0  0  0  0  0  0  0  0  0  0  0
   15.6784   -6.8056   21.3108 O   0  0  0  0  0  0  0  0  0  0  0  0
   11.3956   -4.7577   22.4094 O   0  0  0  0  0  0  0  0  0  0  0  0
   11.7892   -4.4606   23.7422 C   0  0  0  0  0  0  0  0  0  0  0  0
   16.7522   -9.7285   13.6518 N   0  0  0  0  0  0  0  0  0  0  0  0
   18.0850  -10.0990   13.1547 C   0  0  0  0  0  0  0  0  0  0  0  0
   18.0394  -10.4916   11.6800 C   0  0  0  0  0  0  0  0  0  0  0  0
   17.2622   -9.5019   10.9315 N   0  0  0  0  0  0  0  0  0  0  0  0
   15.9410   -9.0943   11.4227 C   0  0  0  0  0  0  0  0  0  0  0  0
   15.6000   -9.7792   12.7462 C   0  0  0  0  0  0  0  0  0  0  0  0
   17.8074   -8.8795    9.7553 C   0  0  0  0  0  0  0  0  0  0  0  0
   18.9996   -8.1419    9.8204 C   0  0  0  0  0  0  0  0  0  0  0  0
   19.5079   -7.5483    8.6643 C   0  0  0  0  0  0  0  0  0  0  0  0
   18.8297   -7.6919    7.4540 C   0  0  0  0  0  0  0  0  0  0  0  0
   17.6468   -8.4317    7.4201 C   0  0  0  0  0  0  0  0  0  0  0  0
   17.1666   -9.0031    8.5573 N   0  0  0  0  0  0  0  0  0  0  0  0
 17 18  1  0  0  0
 18 10  1  0  0  0
 10 11  2  0  0  0
 11 12  1  0  0  0
 12 13  2  0  0  0
 13 14  1  0  0  0
 14 15  2  0  0  0
 15  1  1  0  0  0
  1  2  2  0  0  0
  2  3  1  0  0  0
  3  4  1  0  0  0
  4  5  2  0  0  0
  5  6  1  0  0  0
  6  7  2  0  0  0
  7  8  1  0  0  0
  8  9  2  0  0  0
  6 21  1  0  0  0
 21 22  1  0  0  0
 22 23  1  0  0  0
 23 24  1  0  0  0
 24 25  1  0  0  0
 25 26  1  0  0  0
 24 27  1  0  0  0
 27 28  2  0  0  0
 28 29  1  0  0  0
 29 30  2  0  0  0
 30 31  1  0  0  0
 31 32  2  0  0  0
 13 16  1  0  0  0
 12 19  1  0  0  0
 19 20  1  0  0  0
 15 10  1  0  0  0
  9  1  1  0  0  0
  8  3  1  0  0  0
 26 21  1  0  0  0
 32 27  1  0  0  0
M  END
>  <minimizedAffinity>
-7.95159

>  <minimizedRMSD>
1.31683

$$$$
CHEMBL5011084 9588131 CSC026638804 MCULE-2351575249 MolPort-004-116-633 PubChem-16252076 Z52674686 ZINC000009588131


 36 38  0  0  0  0  0  0  0  0999 V2000
   17.4317  -10.6011   14.3554 C   0  0  0  0  0  0  0  0  0  0  0  0
   18.2339  -11.7517   14.2880 C   0  0  0  0  0  0  0  0  0  0  0  0
   18.4837  -12.5237   15.4228 C   0  0  0  0  0  0  0  0  0  0  0  0
   17.9345  -12.1546   16.6487 C   0  0  0  0  0  0  0  0  0  0  0  0
   17.1359  -11.0147   16.7372 C   0  0  0  0  0  0  0  0  0  0  0  0
   16.8719  -10.2268   15.6047 C   0  0  0  0  0  0  0  0  0  0  0  0
   18.0042  -10.1327   11.9451 N   0  0  0  0  0  0  0  0  0  0  0  0
   17.2132   -9.8296   13.1057 C   0  0  0  0  0  0  0  0  0  0  0  0
   16.3490   -8.9133   13.0602 O   0  0  0  0  0  0  0  0  0  0  0  0
   18.6787  -10.8426   12.0464 H   0  0  0  0  0  0  0  0  0  0  0  0
   17.8127   -8.2620    8.1370 C   0  0  0  0  0  0  0  0  0  0  0  0
   16.8117   -9.1605    8.5193 C   0  0  0  0  0  0  0  0  0  0  0  0
   16.8628   -9.7829    9.7697 C   0  0  0  0  0  0  0  0  0  0  0  0
   17.9168   -9.5124   10.6550 C   0  0  0  0  0  0  0  0  0  0  0  0
   18.9203   -8.6177   10.2699 C   0  0  0  0  0  0  0  0  0  0  0  0
   18.8709   -7.9944    9.0199 C   0  0  0  0  0  0  0  0  0  0  0  0
   18.6344   -7.9539    5.8243 C   0  0  0  0  0  0  0  0  0  0  0  0
   17.7332   -7.6534    6.8815 O   0  0  0  0  0  0  0  0  0  0  0  0
   16.0499   -9.0526   15.7111 N   0  0  0  0  0  0  0  0  0  0  0  0
   15.6844   -8.3551   16.9094 C   0  0  0  0  0  0  0  0  0  0  0  0
   16.0826   -8.7437   18.0395 O   0  0  0  0  0  0  0  0  0  0  0  0
   15.6987   -8.6864   14.8674 H   0  0  0  0  0  0  0  0  0  0  0  0
   14.7989   -7.1440   16.8180 C   0  0  0  0  0  0  0  0  0  0  0  0
   13.8758   -6.9873   17.9530 N   0  0  0  0  0  0  0  0  0  0  0  0
   12.5188   -7.2970   17.5277 C   0  0  0  0  0  0  0  0  0  0  0  0
   14.2269   -7.8931   19.0437 C   0  0  0  0  0  0  0  0  0  0  0  0
   14.4419   -7.1325   20.3140 C   0  0  0  0  0  0  0  0  0  0  0  0
   15.7240   -7.1057   20.8714 C   0  0  0  0  0  0  0  0  0  0  0  0
   15.9625   -6.4139   22.0608 C   0  0  0  0  0  0  0  0  0  0  0  0
   14.9211   -5.7454   22.7091 C   0  0  0  0  0  0  0  0  0  0  0  0
   13.6320   -5.7774   22.1548 C   0  0  0  0  0  0  0  0  0  0  0  0
   13.3818   -6.4689   20.9582 C   0  0  0  0  0  0  0  0  0  0  0  0
   15.1916   -5.0604   23.8967 O   0  0  0  0  0  0  0  0  0  0  0  0
   14.2112   -4.2910   24.5794 C   0  0  0  0  0  0  0  0  0  0  0  0
   12.0974   -6.5097   20.4023 O   0  0  0  0  0  0  0  0  0  0  0  0
   11.2444   -5.3742   20.3511 C   0  0  0  0  0  0  0  0  0  0  0  0
 17 18  1  0  0  0
 18 11  1  0  0  0
 11 12  2  0  0  0
 12 13  1  0  0  0
 13 14  2  0  0  0
 14  7  1  0  0  0
 14 15  1  0  0  0
  7  8  1  0  0  0
  8  9  2  0  0  0
  8  1  1  0  0  0
  1  2  2  0  0  0
  2  3  1  0  0  0
  3  4  2  0  0  0
  4  5  1  0  0  0
  5  6  2  0  0  0
  6 19  1  0  0  0
  6  1  1  0  0  0
 19 20  1  0  0  0
 20 21  2  0  0  0
 20 23  1  0  0  0
 23 24  1  0  0  0
 24 25  1  0  0  0
 24 26  1  0  0  0
 26 27  1  0  0  0
 27 28  2  0  0  0
 28 29  1  0  0  0
 29 30  2  0  0  0
 30 33  1  0  0  0
 30 31  1  0  0  0
 33 34  1  0  0  0
 31 32  2  0  0  0
 32 35  1  0  0  0
 32 27  1  0  0  0
 35 36  1  0  0  0
 15 16  2  0  0  0
 16 11  1  0  0  0
  7 10  1  0  0  0
 19 22  1  0  0  0
M  END
>  <minimizedAffinity>
-7.94049

>  <minimizedRMSD>
1.94238

$$$$
CHEMBL4160360 PubChem-117935827


 30 32  0  0  0  0  0  0  0  0999 V2000
   14.9289   -7.6210   18.5682 C   0  0  0  0  0  0  0  0  0  0  0  0
   14.1551   -7.3305   17.5042 N   0  0  0  0  0  0  0  0  0  0  0  0
   14.7021   -7.8814   16.4351 N   0  0  0  0  0  0  0  0  0  0  0  0
   15.8214   -8.5196   16.8253 C   0  0  0  0  0  0  0  0  0  0  0  0
   16.0186   -8.3869   18.1853 C   0  0  0  0  0  0  0  0  0  0  0  0
   14.3529   -7.8337   15.5158 H   0  0  0  0  0  0  0  0  0  0  0  0
   13.0824   -6.2003   21.5511 C   0  0  0  0  0  0  0  0  0  0  0  0
   13.3851   -6.6334   20.2502 C   0  0  0  0  0  0  0  0  0  0  0  0
   14.6348   -7.1734   19.9402 C   0  0  0  0  0  0  0  0  0  0  0  0
   15.5975   -7.2825   20.9459 C   0  0  0  0  0  0  0  0  0  0  0  0
   15.3226   -6.8579   22.2537 C   0  0  0  0  0  0  0  0  0  0  0  0
   14.0652   -6.3141   22.5675 C   0  0  0  0  0  0  0  0  0  0  0  0
   11.1885   -4.6940   21.0077 C   0  0  0  0  0  0  0  0  0  0  0  0
   11.8212   -5.6629   21.8335 O   0  0  0  0  0  0  0  0  0  0  0  0
   13.8525   -5.9075   23.8958 O   0  0  0  0  0  0  0  0  0  0  0  0
   13.9755   -4.5747   24.3712 C   0  0  0  0  0  0  0  0  0  0  0  0
   16.2873   -6.9669   23.2619 O   0  0  0  0  0  0  0  0  0  0  0  0
   17.6168   -6.4876   23.1118 C   0  0  0  0  0  0  0  0  0  0  0  0
   16.7119   -9.2569   15.9258 C   0  0  0  0  0  0  0  0  0  0  0  0
   16.5511   -9.2228   14.6068 C   0  0  0  0  0  0  0  0  0  0  0  0
   17.4389   -9.9591   13.6924 C   0  0  0  0  0  0  0  0  0  0  0  0
   18.3510  -10.6949   14.1617 O   0  0  0  0  0  0  0  0  0  0  0  0
   17.2706   -9.8434   12.2298 C   0  0  0  0  0  0  0  0  0  0  0  0
   16.0179  -10.0528   11.6320 C   0  0  0  0  0  0  0  0  0  0  0  0
   15.8649   -9.9418   10.2470 C   0  0  0  0  0  0  0  0  0  0  0  0
   16.9661   -9.6198    9.4462 C   0  0  0  0  0  0  0  0  0  0  0  0
   18.2168   -9.4096   10.0326 C   0  0  0  0  0  0  0  0  0  0  0  0
   18.3683   -9.5210   11.4176 C   0  0  0  0  0  0  0  0  0  0  0  0
   16.8256   -9.5104    8.1027 F   0  0  0  0  0  0  0  0  0  0  0  0
   14.6485  -10.1471    9.6858 F   0  0  0  0  0  0  0  0  0  0  0  0
 13 14  1  0  0  0
 14  7  1  0  0  0
  7  8  2  0  0  0
  8  9  1  0  0  0
  9 10  2  0  0  0
 10 11  1  0  0  0
 11 12  2  0  0  0
 12 15  1  0  0  0
 15 16  1  0  0  0
 11 17  1  0  0  0
 17 18  1  0  0  0
  9  1  1  0  0  0
  1  2  2  0  0  0
  2  3  1  0  0  0
  3  4  1  0  0  0
  4  5  2  0  0  0
  4 19  1  0  0  0
 19 20  2  0  0  0
 20 21  1  0  0  0
 21 22  2  0  0  0
 21 23  1  0  0  0
 23 24  2  0  0  0
 24 25  1  0  0  0
 25 26  2  0  0  0
 26 27  1  0  0  0
 27 28  2  0  0  0
 26 29  1  0  0  0
 25 30  1  0  0  0
 12  7  1  0  0  0
  5  1  1  0  0  0
 28 23  1  0  0  0
  3  6  1  0  0  0
M  END
>  <minimizedAffinity>
-7.93937

>  <minimizedRMSD>
1.86978

$$$$
CHEMBL4561136 PubChem-155558310


 27 29  0  0  0  0  0  0  0  0999 V2000
   15.4849   -8.2639   16.1912 N   0  0  0  0  0  0  0  0  0  0  0  0
   16.4883   -9.0433   15.7409 C   0  0  0  0  0  0  0  0  0  0  0  0
   17.1551   -9.5884   16.7292 O   0  0  0  0  0  0  0  0  0  0  0  0
   16.6452   -9.2115   17.8616 N   0  0  0  0  0  0  0  0  0  0  0  0
   15.6217   -8.3998   17.5278 C   0  0  0  0  0  0  0  0  0  0  0  0
   14.7508   -7.7358   18.5098 C   0  0  0  0  0  0  0  0  0  0  0  0
   13.4242   -7.4406   18.1903 C   0  0  0  0  0  0  0  0  0  0  0  0
   12.5782   -6.8073   19.1148 C   0  0  0  0  0  0  0  0  0  0  0  0
   13.0824   -6.4624   20.3950 C   0  0  0  0  0  0  0  0  0  0  0  0
   14.4183   -6.7609   20.7139 C   0  0  0  0  0  0  0  0  0  0  0  0
   15.2409   -7.3941   19.7711 C   0  0  0  0  0  0  0  0  0  0  0  0
   14.9085   -6.4175   21.9793 O   0  0  0  0  0  0  0  0  0  0  0  0
   16.2858   -6.4986   22.3205 C   0  0  0  0  0  0  0  0  0  0  0  0
   12.3105   -5.8276   21.3830 O   0  0  0  0  0  0  0  0  0  0  0  0
   12.0603   -4.4312   21.4514 C   0  0  0  0  0  0  0  0  0  0  0  0
   11.2521   -6.5227   18.7684 O   0  0  0  0  0  0  0  0  0  0  0  0
   10.3401   -7.5134   18.3125 C   0  0  0  0  0  0  0  0  0  0  0  0
   16.7959   -9.2549   14.3200 C   0  0  0  0  0  0  0  0  0  0  0  0
   17.9609   -9.9386   13.9478 C   0  0  0  0  0  0  0  0  0  0  0  0
   18.2572  -10.1424   12.5970 C   0  0  0  0  0  0  0  0  0  0  0  0
   17.3878   -9.6666   11.6097 C   0  0  0  0  0  0  0  0  0  0  0  0
   16.2265   -8.9783   11.9763 C   0  0  0  0  0  0  0  0  0  0  0  0
   15.9306   -8.7748   13.3273 C   0  0  0  0  0  0  0  0  0  0  0  0
   17.7123   -9.8680   10.1707 C   0  0  0  0  0  0  0  0  0  0  0  0
   18.5515   -8.7097    9.6566 C   0  0  0  0  0  0  0  0  0  0  0  0
   18.1595   -8.3627    8.2315 C   0  0  0  0  0  0  0  0  0  0  0  0
   17.2528   -9.4344    7.6560 C   0  0  0  0  0  0  0  0  0  0  0  0
  1  2  2  0  0  0
  2  3  1  0  0  0
  3  4  1  0  0  0
  4  5  2  0  0  0
  5  6  1  0  0  0
  6  7  2  0  0  0
  7  8  1  0  0  0
  8  9  2  0  0  0
  9 10  1  0  0  0
 10 11  2  0  0  0
 10 12  1  0  0  0
 12 13  1  0  0  0
  9 14  1  0  0  0
 14 15  1  0  0  0
  8 16  1  0  0  0
 16 17  1  0  0  0
  2 18  1  0  0  0
 18 19  2  0  0  0
 19 20  1  0  0  0
 20 21  2  0  0  0
 21 22  1  0  0  0
 22 23  2  0  0  0
 21 24  1  0  0  0
 24 25  1  0  0  0
 25 26  1  0  0  0
 26 27  1  0  0  0
  5  1  1  0  0  0
 11  6  1  0  0  0
 23 18  1  0  0  0
M  END
>  <minimizedAffinity>
-7.93925

>  <minimizedRMSD>
1.32810

$$$$
CHEMBL4584062 PubChem-155566281


 33 36  0  0  0  0  0  0  0  0999 V2000
   16.8238   -9.1554   14.3434 C   0  0  0  0  0  0  0  0  0  0  0  0
   17.4842  -10.0857   15.1721 C   0  0  0  0  0  0  0  0  0  0  0  0
   17.2670  -10.0981   16.5600 C   0  0  0  0  0  0  0  0  0  0  0  0
   16.3781   -9.1575   17.0699 C   0  0  0  0  0  0  0  0  0  0  0  0
   16.0299   -8.9976   18.3585 N   0  0  0  0  0  0  0  0  0  0  0  0
   15.1549   -7.9586   18.2703 C   0  0  0  0  0  0  0  0  0  0  0  0
   14.9810   -7.5122   17.0012 N   0  0  0  0  0  0  0  0  0  0  0  0
   15.7603   -8.2826   16.2712 N   0  0  0  0  0  0  0  0  0  0  0  0
   15.9371   -8.2320   14.9290 C   0  0  0  0  0  0  0  0  0  0  0  0
   14.4671   -7.3782   19.4340 C   0  0  0  0  0  0  0  0  0  0  0  0
   14.9043   -7.6657   20.7277 C   0  0  0  0  0  0  0  0  0  0  0  0
   14.2556   -7.1177   21.8436 C   0  0  0  0  0  0  0  0  0  0  0  0
   13.1505   -6.2670   21.6680 C   0  0  0  0  0  0  0  0  0  0  0  0
   12.7012   -5.9709   20.3556 C   0  0  0  0  0  0  0  0  0  0  0  0
   13.3696   -6.5337   19.2566 C   0  0  0  0  0  0  0  0  0  0  0  0
   14.6931   -7.4052   23.1417 O   0  0  0  0  0  0  0  0  0  0  0  0
   15.9595   -6.9924   23.6375 C   0  0  0  0  0  0  0  0  0  0  0  0
   12.5447   -5.7505   22.8261 O   0  0  0  0  0  0  0  0  0  0  0  0
   12.8254   -4.4807   23.3972 C   0  0  0  0  0  0  0  0  0  0  0  0
   11.6035   -5.1272   20.1494 O   0  0  0  0  0  0  0  0  0  0  0  0
   11.2933   -4.5530   18.8863 C   0  0  0  0  0  0  0  0  0  0  0  0
   16.1865   -9.6457   11.9062 C   0  0  0  0  0  0  0  0  0  0  0  0
   15.0446  -10.0925   12.2013 O   0  0  0  0  0  0  0  0  0  0  0  0
   17.0771   -9.1809   12.9322 N   0  0  0  0  0  0  0  0  0  0  0  0
   17.9536   -8.8445   12.6358 H   0  0  0  0  0  0  0  0  0  0  0  0
   18.1228   -8.7726    8.7707 C   0  0  0  0  0  0  0  0  0  0  0  0
   17.4223   -9.5106    7.8116 C   0  0  0  0  0  0  0  0  0  0  0  0
   16.3239  -10.2894    8.1846 C   0  0  0  0  0  0  0  0  0  0  0  0
   15.9198  -10.3340    9.5214 C   0  0  0  0  0  0  0  0  0  0  0  0
   16.6110   -9.6001   10.4959 C   0  0  0  0  0  0  0  0  0  0  0  0
   17.7121   -8.8213   10.1128 C   0  0  0  0  0  0  0  0  0  0  0  0
   20.3319   -7.7515    9.2111 C   0  0  0  0  0  0  0  0  0  0  0  0
   19.2171   -8.0034    8.3665 O   0  0  0  0  0  0  0  0  0  0  0  0
 32 33  1  0  0  0
 33 26  1  0  0  0
 26 27  2  0  0  0
 27 28  1  0  0  0
 28 29  2  0  0  0
 29 30  1  0  0  0
 30 31  2  0  0  0
 30 22  1  0  0  0
 22 23  2  0  0  0
 22 24  1  0  0  0
 24  1  1  0  0  0
  1  2  1  0  0  0
  2  3  2  0  0  0
  3  4  1  0  0  0
  4  5  2  0  0  0
  5  6  1  0  0  0
  6  7  2  0  0  0
  7  8  1  0  0  0
  8  9  1  0  0  0
  6 10  1  0  0  0
 10 11  2  0  0  0
 11 12  1  0  0  0
 12 16  1  0  0  0
 16 17  1  0  0  0
 12 13  2  0  0  0
 13 18  1  0  0  0
 18 19  1  0  0  0
 13 14  1  0  0  0
 14 20  1  0  0  0
 20 21  1  0  0  0
 14 15  2  0  0  0
 31 26  1  0  0  0
  9  1  2  0  0  0
 15 10  1  0  0  0
  8  4  1  0  0  0
 24 25  1  0  0  0
M  END
>  <minimizedAffinity>
-7.92947

>  <minimizedRMSD>
1.99198

$$$$
CHEMBL1989709 CHEMBL2009600 PubChem-12793966 PubChem-434441


 29 32  0  0  0  0  0  0  0  0999 V2000
   12.1102   -7.1929   17.5598 O   0  0  0  0  0  0  0  0  0  0  0  0
   12.9934   -7.0727   18.5223 C   0  0  0  0  0  0  0  0  0  0  0  0
   12.4333   -6.4664   19.6133 C   0  0  0  0  0  0  0  0  0  0  0  0
   13.1658   -6.2170   20.7747 C   0  0  0  0  0  0  0  0  0  0  0  0
   12.6146   -5.6256   21.8305 O   0  0  0  0  0  0  0  0  0  0  0  0
   13.3002   -5.3788   22.9438 C   0  0  0  0  0  0  0  0  0  0  0  0
   12.7332   -4.8142   23.9142 O   0  0  0  0  0  0  0  0  0  0  0  0
   14.6463   -5.7411   23.0448 C   0  0  0  0  0  0  0  0  0  0  0  0
   15.2694   -6.3636   21.9630 C   0  0  0  0  0  0  0  0  0  0  0  0
   14.5284   -6.6142   20.7982 C   0  0  0  0  0  0  0  0  0  0  0  0
   15.0981   -7.2434   19.6658 C   0  0  0  0  0  0  0  0  0  0  0  0
   14.3277   -7.4791   18.5068 C   0  0  0  0  0  0  0  0  0  0  0  0
   16.7073   -6.7444   22.0809 C   0  0  0  0  0  0  0  0  0  0  0  0
   11.1259   -6.2102   19.2709 C   0  0  0  0  0  0  0  0  0  0  0  0
   10.9623   -6.6821   17.9737 C   0  0  0  0  0  0  0  0  0  0  0  0
   10.0769   -5.5670   20.1093 C   0  0  0  0  0  0  0  0  0  0  0  0
   14.8584   -8.0987   17.3724 O   0  0  0  0  0  0  0  0  0  0  0  0
   16.2232   -8.4825   17.2804 C   0  0  0  0  0  0  0  0  0  0  0  0
   16.4026   -9.4011   16.1256 C   0  0  0  0  0  0  0  0  0  0  0  0
   16.7387  -10.5984   16.3297 O   0  0  0  0  0  0  0  0  0  0  0  0
   16.1655   -8.9325   14.8322 O   0  0  0  0  0  0  0  0  0  0  0  0
   16.8302   -9.4667   13.6949 C   0  0  0  0  0  0  0  0  0  0  0  0
   15.8154   -9.8899   12.6463 C   0  0  0  0  0  0  0  0  0  0  0  0
   16.4836  -10.1185   11.3769 N   0  0  0  0  0  0  0  0  0  0  0  0
   17.4965   -9.0740   11.2287 C   0  0  0  0  0  0  0  0  0  0  0  0
   18.3020   -9.2668    9.9376 C   0  0  0  0  0  0  0  0  0  0  0  0
   17.5865  -10.1750    8.9363 C   0  0  0  0  0  0  0  0  0  0  0  0
   16.0859   -9.8942    8.9191 C   0  0  0  0  0  0  0  0  0  0  0  0
   15.4733   -9.9345   10.3302 C   0  0  0  0  0  0  0  0  0  0  0  0
  1  2  1  0  0  0
  2  3  2  0  0  0
  3  4  1  0  0  0
  4  5  1  0  0  0
  5  6  1  0  0  0
  6  7  2  0  0  0
  6  8  1  0  0  0
  8  9  2  0  0  0
  9 10  1  0  0  0
 10 11  1  0  0  0
 11 12  2  0  0  0
 12 17  1  0  0  0
 17 18  1  0  0  0
 18 19  1  0  0  0
 19 20  2  0  0  0
 19 21  1  0  0  0
 21 22  1  0  0  0
 22 23  1  0  0  0
 23 24  1  0  0  0
 24 25  1  0  0  0
 25 26  1  0  0  0
 26 27  1  0  0  0
 27 28  1  0  0  0
 28 29  1  0  0  0
  9 13  1  0  0  0
  3 14  1  0  0  0
 14 15  2  0  0  0
 14 16  1  0  0  0
 15  1  1  0  0  0
 12  2  1  0  0  0
 29 24  1  0  0  0
 10  4  2  0  0  0
M  END
>  <minimizedAffinity>
-7.90862

>  <minimizedRMSD>
1.97160

$$$$
CHEMBL4873073


 29 31  0  0  0  0  0  0  0  0999 V2000
   15.3102   -7.9751   16.6812 O   0  0  0  0  0  0  0  0  0  0  0  0
   14.8650   -7.6754   17.9784 C   0  0  0  0  0  0  0  0  0  0  0  0
   15.6910   -7.7494   19.1190 C   0  0  0  0  0  0  0  0  0  0  0  0
   15.1853   -7.4374   20.3953 C   0  0  0  0  0  0  0  0  0  0  0  0
   13.8427   -7.0534   20.5286 C   0  0  0  0  0  0  0  0  0  0  0  0
   13.0832   -6.9906   19.4033 N   0  0  0  0  0  0  0  0  0  0  0  0
   13.5424   -7.2821   18.1834 C   0  0  0  0  0  0  0  0  0  0  0  0
   12.5898   -7.1416   17.2453 N   0  0  0  0  0  0  0  0  0  0  0  0
   11.5199   -6.7442   17.9845 C   0  0  0  0  0  0  0  0  0  0  0  0
   11.8137   -6.6500   19.3046 N   0  0  0  0  0  0  0  0  0  0  0  0
   13.2868   -6.6920   21.8668 C   0  0  0  0  0  0  0  0  0  0  0  0
   13.3447   -5.2173   22.0713 C   0  0  0  0  0  0  0  0  0  0  0  0
   14.3546   -4.6958   22.6113 O   0  0  0  0  0  0  0  0  0  0  0  0
   12.3008   -4.4134   21.6337 O   0  0  0  0  0  0  0  0  0  0  0  0
   11.5482   -4.8005   21.2314 H   0  0  0  0  0  0  0  0  0  0  0  0
   16.2536   -8.9555   16.3348 C   0  0  0  0  0  0  0  0  0  0  0  0
   16.8914   -9.5880   17.2209 O   0  0  0  0  0  0  0  0  0  0  0  0
   15.8827   -8.9897   12.5788 C   0  0  0  0  0  0  0  0  0  0  0  0
   16.9626   -9.7889   12.1900 C   0  0  0  0  0  0  0  0  0  0  0  0
   17.8128  -10.3160   13.1733 C   0  0  0  0  0  0  0  0  0  0  0  0
   17.5840  -10.0459   14.5251 C   0  0  0  0  0  0  0  0  0  0  0  0
   16.5012   -9.2446   14.9128 C   0  0  0  0  0  0  0  0  0  0  0  0
   15.6524   -8.7184   13.9306 C   0  0  0  0  0  0  0  0  0  0  0  0
   17.1630  -10.0426   10.7918 N   0  0  0  0  0  0  0  0  0  0  0  0
   16.8489  -10.9140   10.4584 H   0  0  0  0  0  0  0  0  0  0  0  0
   17.7681   -9.1741    9.8236 C   0  0  0  0  0  0  0  0  0  0  0  0
   18.8972   -8.5892   10.0519 N   0  0  0  0  0  0  0  0  0  0  0  0
   17.0787   -8.9426    8.5279 C   0  0  0  0  0  0  0  0  0  0  0  0
   19.3631   -8.7350   10.9069 H   0  0  0  0  0  0  0  0  0  0  0  0
 18 19  2  0  0  0
 19 20  1  0  0  0
 20 21  2  0  0  0
 21 22  1  0  0  0
 22 23  2  0  0  0
 22 16  1  0  0  0
 16 17  2  0  0  0
 16  1  1  0  0  0
  1  2  1  0  0  0
  2  3  2  0  0  0
  3  4  1  0  0  0
  4  5  2  0  0  0
  5  6  1  0  0  0
  6  7  1  0  0  0
  7  8  2  0  0  0
  8  9  1  0  0  0
  9 10  2  0  0  0
  5 11  1  0  0  0
 11 12  1  0  0  0
 12 13  2  0  0  0
 12 14  1  0  0  0
 19 24  1  0  0  0
 24 26  1  0  0  0
 26 27  2  0  0  0
 26 28  1  0  0  0
 23 18  1  0  0  0
  7  2  1  0  0  0
 10  6  1  0  0  0
 14 15  1  0  0  0
 24 25  1  0  0  0
 27 29  1  0  0  0
M  END
>  <minimizedAffinity>
-7.89939

>  <minimizedRMSD>
1.44198

$$$$
CHEMBL1213453 PubChem-44193712


 28 30  0  0  0  0  0  0  0  0999 V2000
   16.9896   -9.1864   15.3233 N   0  0  0  0  0  0  0  0  0  0  0  0
   16.0804   -8.8598   14.2163 C   0  0  0  0  0  0  0  0  0  0  0  0
   16.7095   -9.1280   12.9202 N   0  0  0  0  0  0  0  0  0  0  0  0
   17.6448  -10.0178   12.7808 C   0  0  0  0  0  0  0  0  0  0  0  0
   18.1075  -10.7523   13.9157 N   0  0  0  0  0  0  0  0  0  0  0  0
   17.4345  -10.5753   15.1949 C   0  0  0  0  0  0  0  0  0  0  0  0
   18.8704  -11.3692   13.8340 H   0  0  0  0  0  0  0  0  0  0  0  0
   16.2967   -9.0046   16.6024 C   0  0  0  0  0  0  0  0  0  0  0  0
   15.2868   -7.8529   16.5882 C   0  0  0  0  0  0  0  0  0  0  0  0
   13.4996   -7.3744   20.4647 C   0  0  0  0  0  0  0  0  0  0  0  0
   14.8589   -7.7085   20.3434 C   0  0  0  0  0  0  0  0  0  0  0  0
   15.4390   -7.8690   19.0833 C   0  0  0  0  0  0  0  0  0  0  0  0
   14.6659   -7.7010   17.9321 C   0  0  0  0  0  0  0  0  0  0  0  0
   13.3146   -7.3626   18.0444 C   0  0  0  0  0  0  0  0  0  0  0  0
   12.7230   -7.1994   19.3082 C   0  0  0  0  0  0  0  0  0  0  0  0
   12.9534   -5.9882   22.4422 C   0  0  0  0  0  0  0  0  0  0  0  0
   12.9027   -7.2108   21.7196 O   0  0  0  0  0  0  0  0  0  0  0  0
   11.3708   -6.8639   19.4372 O   0  0  0  0  0  0  0  0  0  0  0  0
   10.3685   -7.3575   18.5588 C   0  0  0  0  0  0  0  0  0  0  0  0
   18.3841  -10.2920   11.1783 S   0  0  0  0  0  0  0  0  0  0  0  0
   17.7952   -8.6898   10.5505 C   0  0  0  0  0  0  0  0  0  0  0  0
   18.1296   -8.5438    9.1029 C   0  0  0  0  0  0  0  0  0  0  0  0
   19.1099   -7.6161    8.7339 C   0  0  0  0  0  0  0  0  0  0  0  0
   19.4462   -7.4419    7.3888 C   0  0  0  0  0  0  0  0  0  0  0  0
   18.7984   -8.1915    6.4043 C   0  0  0  0  0  0  0  0  0  0  0  0
   17.8109   -9.1123    6.7639 C   0  0  0  0  0  0  0  0  0  0  0  0
   17.4691   -9.2921    8.1082 C   0  0  0  0  0  0  0  0  0  0  0  0
   16.1989  -10.4405    8.5038 Cl  0  0  0  0  0  0  0  0  0  0  0  0
 16 17  1  0  0  0
 17 10  1  0  0  0
 10 11  2  0  0  0
 11 12  1  0  0  0
 12 13  2  0  0  0
 13  9  1  0  0  0
 13 14  1  0  0  0
  9  8  1  0  0  0
  8  1  1  0  0  0
  1  2  1  0  0  0
  2  3  1  0  0  0
  3  4  2  0  0  0
  4 20  1  0  0  0
  4  5  1  0  0  0
 20 21  1  0  0  0
 21 22  1  0  0  0
 22 23  2  0  0  0
 23 24  1  0  0  0
 24 25  2  0  0  0
 25 26  1  0  0  0
 26 27  2  0  0  0
 27 28  1  0  0  0
 27 22  1  0  0  0
  5  6  1  0  0  0
  6  1  1  0  0  0
 14 15  2  0  0  0
 15 18  1  0  0  0
 15 10  1  0  0  0
 18 19  1  0  0  0
  5  7  1  0  0  0
M  END
>  <minimizedAffinity>
-7.88013

>  <minimizedRMSD>
1.70588

$$$$
CHEMBL4553086 PubChem-135335149


 35 37  0  0  0  0  0  0  0  0999 V2000
   15.3459   -8.0716   17.6908 C   0  0  0  0  0  0  0  0  0  0  0  0
   16.1675   -9.1975   17.6456 C   0  0  0  0  0  0  0  0  0  0  0  0
   16.4370   -9.3966   16.3484 N   0  0  0  0  0  0  0  0  0  0  0  0
   17.1931  -10.3610   15.7708 C   0  0  0  0  0  0  0  0  0  0  0  0
   17.3190  -10.3489   14.3747 C   0  0  0  0  0  0  0  0  0  0  0  0
   16.6665   -9.3498   13.6169 C   0  0  0  0  0  0  0  0  0  0  0  0
   15.8948   -8.3733   14.2700 C   0  0  0  0  0  0  0  0  0  0  0  0
   15.8066   -8.4364   15.6582 C   0  0  0  0  0  0  0  0  0  0  0  0
   15.1171   -7.5906   16.4423 N   0  0  0  0  0  0  0  0  0  0  0  0
   13.4735   -6.9741   19.0036 C   0  0  0  0  0  0  0  0  0  0  0  0
   13.0134   -6.4213   20.2100 C   0  0  0  0  0  0  0  0  0  0  0  0
   13.8391   -6.3573   21.3410 C   0  0  0  0  0  0  0  0  0  0  0  0
   15.1451   -6.8549   21.2613 C   0  0  0  0  0  0  0  0  0  0  0  0
   15.6117   -7.4062   20.0672 C   0  0  0  0  0  0  0  0  0  0  0  0
   14.7932   -7.4747   18.9299 C   0  0  0  0  0  0  0  0  0  0  0  0
   16.2173   -6.7979   22.6487 Cl  0  0  0  0  0  0  0  0  0  0  0  0
   11.2411   -7.3016   17.9759 C   0  0  0  0  0  0  0  0  0  0  0  0
   12.6330   -7.0287   17.8850 O   0  0  0  0  0  0  0  0  0  0  0  0
   13.3812   -5.8066   22.5431 O   0  0  0  0  0  0  0  0  0  0  0  0
   12.0214   -5.4551   22.7598 C   0  0  0  0  0  0  0  0  0  0  0  0
   16.7687   -9.2983   12.1877 N   0  0  0  0  0  0  0  0  0  0  0  0
   17.9007   -9.6812   11.3925 C   0  0  0  0  0  0  0  0  0  0  0  0
   18.9503  -10.1280   11.9262 O   0  0  0  0  0  0  0  0  0  0  0  0
   15.9802   -8.9657   11.7009 H   0  0  0  0  0  0  0  0  0  0  0  0
   17.8444   -9.5472    9.9056 C   0  0  0  0  0  0  0  0  0  0  0  0
   16.5710  -10.0432    9.4146 N   0  0  0  0  0  0  0  0  0  0  0  0
   15.8134   -9.4896    9.8147 H   0  0  0  0  0  0  0  0  0  0  0  0
   16.4588  -11.0198    9.6867 H   0  0  0  0  0  0  0  0  0  0  0  0
   18.0264   -8.0965    9.4772 C   0  0  0  0  0  0  0  0  0  0  0  0
   19.4553   -7.8125    9.0283 C   0  0  0  0  0  0  0  0  0  0  0  0
   19.5230   -7.5481    7.5324 C   0  0  0  0  0  0  0  0  0  0  0  0
   18.1721   -7.7888    6.8865 C   0  0  0  0  0  0  0  0  0  0  0  0
   18.3572   -8.4641    5.6158 N   0  0  0  0  0  0  0  0  0  0  0  0
   18.9288   -7.8834    5.0022 H   0  0  0  0  0  0  0  0  0  0  0  0
   17.4486   -8.6261    5.1813 H   0  0  0  0  0  0  0  0  0  0  0  0
 17 18  1  0  0  0
 18 10  1  0  0  0
 10 11  2  0  0  0
 11 12  1  0  0  0
 12 13  2  0  0  0
 13 14  1  0  0  0
 14 15  2  0  0  0
 15  1  1  0  0  0
  1  2  2  0  0  0
  2  3  1  0  0  0
  3  4  1  0  0  0
  4  5  2  0  0  0
  5  6  1  0  0  0
  6  7  2  0  0  0
  7  8  1  0  0  0
  8  9  2  0  0  0
  6 21  1  0  0  0
 21 22  1  0  0  0
 22 23  2  0  0  0
 22 25  1  0  0  0
 25 29  1  0  0  0
 29 30  1  0  0  0
 30 31  1  0  0  0
 31 32  1  0  0  0
 32 33  1  0  0  0
 25 26  1  0  0  0
 13 16  1  0  0  0
 12 19  1  0  0  0
 19 20  1  0  0  0
 15 10  1  0  0  0
  9  1  1  0  0  0
  8  3  1  0  0  0
 21 24  1  0  0  0
 33 34  1  0  0  0
 33 35  1  0  0  0
 26 27  1  0  0  0
 26 28  1  0  0  0
M  END
>  <minimizedAffinity>
-7.87944

>  <minimizedRMSD>
1.10321

$$$$
CHEMBL1473356 ChemDiv-E848-0562 MCULE-4702457388 MolPort-007-765-221 PubChem-16022833 ZINC000008593887 ZINC08593887


 34 37  0  0  0  0  0  0  0  0999 V2000
   18.1224   -9.9590   15.2463 N   0  0  0  0  0  0  0  0  0  0  0  0
   18.9628  -11.0202   15.2528 C   0  0  0  0  0  0  0  0  0  0  0  0
   19.0427  -11.5853   13.9757 C   0  0  0  0  0  0  0  0  0  0  0  0
   18.1984  -10.8114   13.2021 C   0  0  0  0  0  0  0  0  0  0  0  0
   17.8791  -10.9206   11.8514 C   0  0  0  0  0  0  0  0  0  0  0  0
   16.9663   -9.9924   11.3161 C   0  0  0  0  0  0  0  0  0  0  0  0
   16.4033   -8.9900   12.1405 C   0  0  0  0  0  0  0  0  0  0  0  0
   16.7459   -8.9048   13.5016 C   0  0  0  0  0  0  0  0  0  0  0  0
   17.6548   -9.8407   13.9957 C   0  0  0  0  0  0  0  0  0  0  0  0
   16.5297  -10.0707    9.6133 S   0  0  0  0  0  0  0  0  0  0  0  0
   15.1756   -9.4452    9.4228 O   0  0  0  0  0  0  0  0  0  0  0  0
   16.4506  -11.5094    9.1856 O   0  0  0  0  0  0  0  0  0  0  0  0
   17.6967   -9.2436    8.6301 N   0  0  0  0  0  0  0  0  0  0  0  0
   18.3425   -8.2242    9.4573 C   0  0  0  0  0  0  0  0  0  0  0  0
   19.4785   -7.5381    8.6874 C   0  0  0  0  0  0  0  0  0  0  0  0
   19.3004   -7.6482    7.1709 C   0  0  0  0  0  0  0  0  0  0  0  0
   17.8266   -7.5464    6.7889 C   0  0  0  0  0  0  0  0  0  0  0  0
   16.9748   -8.5926    7.5290 C   0  0  0  0  0  0  0  0  0  0  0  0
   17.7610   -9.1543   16.4045 C   0  0  0  0  0  0  0  0  0  0  0  0
   15.6593   -7.9321   17.0853 N   0  0  0  0  0  0  0  0  0  0  0  0
   16.2790   -9.1051   16.5525 C   0  0  0  0  0  0  0  0  0  0  0  0
   15.5891  -10.1110   16.2371 O   0  0  0  0  0  0  0  0  0  0  0  0
   16.2305   -7.1681   17.3289 H   0  0  0  0  0  0  0  0  0  0  0  0
   14.2196   -7.8162   17.2841 C   0  0  0  0  0  0  0  0  0  0  0  0
   13.3760   -6.6227   21.3329 C   0  0  0  0  0  0  0  0  0  0  0  0
   12.3904   -6.5026   20.3490 C   0  0  0  0  0  0  0  0  0  0  0  0
   12.6471   -6.8864   19.0224 C   0  0  0  0  0  0  0  0  0  0  0  0
   13.9128   -7.3964   18.6870 C   0  0  0  0  0  0  0  0  0  0  0  0
   14.8990   -7.5209   19.6711 C   0  0  0  0  0  0  0  0  0  0  0  0
   14.6340   -7.1361   20.9865 C   0  0  0  0  0  0  0  0  0  0  0  0
   14.0120   -5.5402   23.4627 C   0  0  0  0  0  0  0  0  0  0  0  0
   13.0795   -6.2284   22.6401 O   0  0  0  0  0  0  0  0  0  0  0  0
   11.6632   -6.7716   18.0337 O   0  0  0  0  0  0  0  0  0  0  0  0
   10.6072   -7.7128   17.8843 C   0  0  0  0  0  0  0  0  0  0  0  0
 31 32  1  0  0  0
 32 25  1  0  0  0
 25 26  2  0  0  0
 26 27  1  0  0  0
 27 33  1  0  0  0
 27 28  2  0  0  0
 33 34  1  0  0  0
 28 24  1  0  0  0
 28 29  1  0  0  0
 24 20  1  0  0  0
 20 21  1  0  0  0
 21 22  2  0  0  0
 21 19  1  0  0  0
 19  1  1  0  0  0
  1  2  1  0  0  0
  2  3  2  0  0  0
  3  4  1  0  0  0
  4  5  2  0  0  0
  5  6  1  0  0  0
  6  7  2  0  0  0
  6 10  1  0  0  0
  7  8  1  0  0  0
  8  9  2  0  0  0
  9  1  1  0  0  0
  9  4  1  0  0  0
 10 11  2  0  0  0
 10 12  2  0  0  0
 10 13  1  0  0  0
 13 14  1  0  0  0
 14 15  1  0  0  0
 15 16  1  0  0  0
 16 17  1  0  0  0
 17 18  1  0  0  0
 18 13  1  0  0  0
 29 30  2  0  0  0
 30 25  1  0  0  0
 20 23  1  0  0  0
M  END
>  <minimizedAffinity>
-7.87768

>  <minimizedRMSD>
1.39063

$$$$
CHEMBL528854 PubChem-44530281


 36 38  0  0  0  0  0  0  0  0999 V2000
   16.2048   -8.9444   16.5677 C   0  0  0  0  0  0  0  0  0  0  0  0
   15.0793   -9.6171   16.2027 N   0  0  0  0  0  0  0  0  0  0  0  0
   15.0029  -10.2594   15.0088 C   0  0  0  0  0  0  0  0  0  0  0  0
   16.0871  -10.2345   14.1349 C   0  0  0  0  0  0  0  0  0  0  0  0
   17.2377   -9.5379   14.5186 C   0  0  0  0  0  0  0  0  0  0  0  0
   17.2714   -8.9138   15.7252 N   0  0  0  0  0  0  0  0  0  0  0  0
   16.2924   -8.2681   17.8291 N   0  0  0  0  0  0  0  0  0  0  0  0
   17.1933   -8.1828   18.2169 H   0  0  0  0  0  0  0  0  0  0  0  0
   12.9524   -6.8211   18.7772 C   0  0  0  0  0  0  0  0  0  0  0  0
   13.9782   -7.3980   18.0150 C   0  0  0  0  0  0  0  0  0  0  0  0
   15.2162   -7.7017   18.5901 C   0  0  0  0  0  0  0  0  0  0  0  0
   15.4119   -7.4577   19.9500 C   0  0  0  0  0  0  0  0  0  0  0  0
   14.3965   -6.9092   20.7391 C   0  0  0  0  0  0  0  0  0  0  0  0
   13.1697   -6.5347   20.1342 C   0  0  0  0  0  0  0  0  0  0  0  0
   10.7731   -7.4814   17.8050 C   0  0  0  0  0  0  0  0  0  0  0  0
   11.7194   -6.4975   18.1997 O   0  0  0  0  0  0  0  0  0  0  0  0
   14.6405   -6.7822   22.1099 O   0  0  0  0  0  0  0  0  0  0  0  0
   14.8714   -7.9018   22.9534 C   0  0  0  0  0  0  0  0  0  0  0  0
   12.1659   -5.8560   20.8331 O   0  0  0  0  0  0  0  0  0  0  0  0
   12.2002   -4.4493   21.0301 C   0  0  0  0  0  0  0  0  0  0  0  0
   18.3866   -9.4804   13.6679 N   0  0  0  0  0  0  0  0  0  0  0  0
   19.1887   -9.0163   14.0001 H   0  0  0  0  0  0  0  0  0  0  0  0
   18.4344  -10.0711   12.3370 C   0  0  0  0  0  0  0  0  0  0  0  0
   17.2982   -9.5342   11.4756 C   0  0  0  0  0  0  0  0  0  0  0  0
   16.3279  -10.5183   11.2754 O   0  0  0  0  0  0  0  0  0  0  0  0
   16.7225  -11.2712   10.8082 H   0  0  0  0  0  0  0  0  0  0  0  0
   17.8155   -9.0509   10.1595 C   0  0  0  0  0  0  0  0  0  0  0  0
   18.9645   -8.2548   10.1270 C   0  0  0  0  0  0  0  0  0  0  0  0
   19.4623   -7.7887    8.9069 C   0  0  0  0  0  0  0  0  0  0  0  0
   18.8216   -8.1232    7.7052 C   0  0  0  0  0  0  0  0  0  0  0  0
   17.6564   -8.9024    7.7428 C   0  0  0  0  0  0  0  0  0  0  0  0
   17.1580   -9.3687    8.9624 C   0  0  0  0  0  0  0  0  0  0  0  0
   19.3264   -7.5795    6.4002 C   0  0  0  0  0  0  0  0  0  0  0  0
   18.7756   -8.2795    5.3407 F   0  0  0  0  0  0  0  0  0  0  0  0
   18.9736   -6.2474    6.2934 F   0  0  0  0  0  0  0  0  0  0  0  0
   20.7045   -7.6891    6.3316 F   0  0  0  0  0  0  0  0  0  0  0  0
 15 16  1  0  0  0
 16  9  1  0  0  0
  9 10  2  0  0  0
 10 11  1  0  0  0
 11  7  1  0  0  0
 11 12  2  0  0  0
  7  1  1  0  0  0
  1  2  2  0  0  0
  2  3  1  0  0  0
  3  4  2  0  0  0
  4  5  1  0  0  0
  5 21  1  0  0  0
  5  6  2  0  0  0
 21 23  1  0  0  0
 24 23  1  0  0  0
 24 25  1  0  0  0
 24 27  1  0  0  0
 27 28  2  0  0  0
 28 29  1  0  0  0
 29 30  2  0  0  0
 30 33  1  0  0  0
 30 31  1  0  0  0
 33 34  1  0  0  0
 33 35  1  0  0  0
 33 36  1  0  0  0
 31 32  2  0  0  0
 32 27  1  0  0  0
  6  1  1  0  0  0
 12 13  1  0  0  0
 13 17  1  0  0  0
 13 14  2  0  0  0
 17 18  1  0  0  0
 14 19  1  0  0  0
 14  9  1  0  0  0
 19 20  1  0  0  0
  7  8  1  0  0  0
 21 22  1  0  0  0
 25 26  1  0  0  0
M  END
>  <minimizedAffinity>
-7.87279

>  <minimizedRMSD>
1.65773

$$$$
CHEMBL3940033 PubChem-134149433


 38 40  0  0  0  0  0  0  0  0999 V2000
   18.2642  -10.2506   13.8538 C   0  0  0  0  0  0  0  0  0  0  0  0
   17.2982  -10.9172   12.8857 C   0  0  0  0  0  0  0  0  0  0  0  0
   16.3821   -9.8971   12.2262 C   0  0  0  0  0  0  0  0  0  0  0  0
   17.9386   -8.7812   10.5858 N   0  0  0  0  0  0  0  0  0  0  0  0
   16.8089   -9.6293   10.8238 C   0  0  0  0  0  0  0  0  0  0  0  0
   16.1907  -10.1767    9.8731 O   0  0  0  0  0  0  0  0  0  0  0  0
   18.3702   -8.3890   11.3790 H   0  0  0  0  0  0  0  0  0  0  0  0
   19.7523   -7.8044    9.2796 C   0  0  0  0  0  0  0  0  0  0  0  0
   18.5069   -8.4436    9.3129 C   0  0  0  0  0  0  0  0  0  0  0  0
   17.8502   -8.7360    8.1083 C   0  0  0  0  0  0  0  0  0  0  0  0
   18.4324   -8.3982    6.8841 C   0  0  0  0  0  0  0  0  0  0  0  0
   19.6939   -7.7583    6.8560 C   0  0  0  0  0  0  0  0  0  0  0  0
   20.3452   -7.4630    8.0608 C   0  0  0  0  0  0  0  0  0  0  0  0
   20.2552   -7.4422    5.6091 C   0  0  0  0  0  0  0  0  0  0  0  0
   19.5529   -7.7659    4.4485 C   0  0  0  0  0  0  0  0  0  0  0  0
   18.3079   -8.3947    4.5566 C   0  0  0  0  0  0  0  0  0  0  0  0
   17.6659   -8.6907    3.5165 O   0  0  0  0  0  0  0  0  0  0  0  0
   17.7983   -8.6851    5.7508 O   0  0  0  0  0  0  0  0  0  0  0  0
   21.5824   -6.7707    5.4855 C   0  0  0  0  0  0  0  0  0  0  0  0
   18.6143  -11.1894   14.9943 C   0  0  0  0  0  0  0  0  0  0  0  0
   17.9765  -10.7081   16.2881 C   0  0  0  0  0  0  0  0  0  0  0  0
   17.6673   -9.2216   16.2220 C   0  0  0  0  0  0  0  0  0  0  0  0
   16.8290   -8.8406   17.3478 N   0  0  0  0  0  0  0  0  0  0  0  0
   15.6494   -8.0481   17.1868 C   0  0  0  0  0  0  0  0  0  0  0  0
   15.3287   -7.6239   16.0431 O   0  0  0  0  0  0  0  0  0  0  0  0
   17.0822   -9.1383   18.2514 H   0  0  0  0  0  0  0  0  0  0  0  0
   14.8150   -7.7206   18.3575 C   0  0  0  0  0  0  0  0  0  0  0  0
   15.3807   -7.6593   19.6332 C   0  0  0  0  0  0  0  0  0  0  0  0
   14.6043   -7.3436   20.7602 C   0  0  0  0  0  0  0  0  0  0  0  0
   13.2192   -7.0875   20.5990 C   0  0  0  0  0  0  0  0  0  0  0  0
   12.6513   -7.1447   19.3136 C   0  0  0  0  0  0  0  0  0  0  0  0
   13.4506   -7.4593   18.2052 C   0  0  0  0  0  0  0  0  0  0  0  0
   11.2834   -6.8814   19.1607 O   0  0  0  0  0  0  0  0  0  0  0  0
   10.4331   -7.6747   18.3446 C   0  0  0  0  0  0  0  0  0  0  0  0
   12.3650   -6.7674   21.6676 O   0  0  0  0  0  0  0  0  0  0  0  0
   12.2256   -5.4785   22.2453 C   0  0  0  0  0  0  0  0  0  0  0  0
   15.2016   -7.2786   22.0250 O   0  0  0  0  0  0  0  0  0  0  0  0
   16.3558   -6.4952   22.2960 C   0  0  0  0  0  0  0  0  0  0  0  0
  8  9  2  0  0  0
  9 10  1  0  0  0
 10 11  2  0  0  0
 11 12  1  0  0  0
 12 13  2  0  0  0
 12 14  1  0  0  0
 14 15  2  0  0  0
 15 16  1  0  0  0
 16 17  2  0  0  0
 16 18  1  0  0  0
 14 19  1  0  0  0
  9  4  1  0  0  0
  4  5  1  0  0  0
  5  6  2  0  0  0
  5  3  1  0  0  0
  3  2  1  0  0  0
  2  1  1  0  0  0
  1 20  1  0  0  0
 20 21  1  0  0  0
 21 22  1  0  0  0
 22 23  1  0  0  0
 23 24  1  0  0  0
 24 25  2  0  0  0
 24 27  1  0  0  0
 27 28  2  0  0  0
 28 29  1  0  0  0
 29 30  2  0  0  0
 30 31  1  0  0  0
 31 32  2  0  0  0
 31 33  1  0  0  0
 33 34  1  0  0  0
 30 35  1  0  0  0
 35 36  1  0  0  0
 29 37  1  0  0  0
 37 38  1  0  0  0
 13  8  1  0  0  0
 32 27  1  0  0  0
 18 11  1  0  0  0
  4  7  1  0  0  0
 23 26  1  0  0  0
M  END
>  <minimizedAffinity>
-7.87108

>  <minimizedRMSD>
1.99106

$$$$
CHEMBL4539299 PubChem-78320917


 36 39  0  0  0  0  0  0  0  0999 V2000
   14.8873   -7.6782   18.0715 C   0  0  0  0  0  0  0  0  0  0  0  0
   14.0604   -7.3336   17.0647 N   0  0  0  0  0  0  0  0  0  0  0  0
   14.6171   -7.7893   15.9535 N   0  0  0  0  0  0  0  0  0  0  0  0
   15.7626   -8.3947   16.3245 C   0  0  0  0  0  0  0  0  0  0  0  0
   15.9342   -8.3300   17.6236 O   0  0  0  0  0  0  0  0  0  0  0  0
   13.4579   -6.0996   21.1943 C   0  0  0  0  0  0  0  0  0  0  0  0
   14.1843   -6.7786   22.2057 C   0  0  0  0  0  0  0  0  0  0  0  0
   15.1448   -7.7276   21.8278 C   0  0  0  0  0  0  0  0  0  0  0  0
   15.3766   -8.0181   20.4827 C   0  0  0  0  0  0  0  0  0  0  0  0
   14.6471   -7.3652   19.4865 C   0  0  0  0  0  0  0  0  0  0  0  0
   13.6950   -6.4076   19.8481 C   0  0  0  0  0  0  0  0  0  0  0  0
   14.0419   -3.5801   22.8257 C   0  0  0  0  0  0  0  0  0  0  0  0
   12.7375   -3.9399   22.1996 C   0  0  0  0  0  0  0  0  0  0  0  0
   11.6099   -3.1414   22.2304 C   0  0  0  0  0  0  0  0  0  0  0  0
   10.6403   -3.8191   21.5011 C   0  0  0  0  0  0  0  0  0  0  0  0
   11.2372   -4.9876   21.0666 C   0  0  0  0  0  0  0  0  0  0  0  0
   12.5077   -5.0683   21.5022 N   0  0  0  0  0  0  0  0  0  0  0  0
   10.5580   -6.0236   20.2374 C   0  0  0  0  0  0  0  0  0  0  0  0
   13.9557   -6.5648   23.6528 C   0  0  0  0  0  0  0  0  0  0  0  0
   12.7999   -6.3597   24.1079 O   0  0  0  0  0  0  0  0  0  0  0  0
   15.0251   -6.6253   24.5392 O   0  0  0  0  0  0  0  0  0  0  0  0
   15.8920   -6.7771   24.2178 H   0  0  0  0  0  0  0  0  0  0  0  0
   16.6972   -9.0430   15.3950 C   0  0  0  0  0  0  0  0  0  0  0  0
   16.3919   -9.1339   14.0305 C   0  0  0  0  0  0  0  0  0  0  0  0
   17.2811   -9.7519   13.1392 C   0  0  0  0  0  0  0  0  0  0  0  0
   18.4839  -10.2807   13.6278 C   0  0  0  0  0  0  0  0  0  0  0  0
   18.7934  -10.1930   14.9876 C   0  0  0  0  0  0  0  0  0  0  0  0
   17.9022   -9.5758   15.8689 C   0  0  0  0  0  0  0  0  0  0  0  0
   16.9545   -9.8451   11.7057 C   0  0  0  0  0  0  0  0  0  0  0  0
   15.9350  -10.4870   11.3316 O   0  0  0  0  0  0  0  0  0  0  0  0
   17.7929   -9.2079   10.7377 N   0  0  0  0  0  0  0  0  0  0  0  0
   18.5836   -8.7115   11.0503 H   0  0  0  0  0  0  0  0  0  0  0  0
   17.4716   -9.2755    9.0381 S   0  0  0  0  0  0  0  0  0  0  0  0
   17.8735  -10.6251    8.5153 O   0  0  0  0  0  0  0  0  0  0  0  0
   16.0040   -9.0689    8.7913 O   0  0  0  0  0  0  0  0  0  0  0  0
   18.4120   -8.0240    8.1958 C   0  0  0  0  0  0  0  0  0  0  0  0
 12 13  1  0  0  0
 13 14  2  0  0  0
 14 15  1  0  0  0
 15 16  2  0  0  0
 16 17  1  0  0  0
 16 18  1  0  0  0
 17  6  1  0  0  0
 17 13  1  0  0  0
  6  7  2  0  0  0
  7  8  1  0  0  0
  7 19  1  0  0  0
  8  9  2  0  0  0
  9 10  1  0  0  0
 10 11  2  0  0  0
 10  1  1  0  0  0
 11  6  1  0  0  0
  1  2  2  0  0  0
  2  3  1  0  0  0
  3  4  2  0  0  0
  4  5  1  0  0  0
  4 23  1  0  0  0
  5  1  1  0  0  0
 23 24  2  0  0  0
 24 25  1  0  0  0
 25 26  2  0  0  0
 25 29  1  0  0  0
 26 27  1  0  0  0
 27 28  2  0  0  0
 28 23  1  0  0  0
 29 30  2  0  0  0
 29 31  1  0  0  0
 31 33  1  0  0  0
 33 34  2  0  0  0
 33 35  2  0  0  0
 33 36  1  0  0  0
 19 20  2  0  0  0
 19 21  1  0  0  0
 31 32  1  0  0  0
 21 22  1  0  0  0
M  END
>  <minimizedAffinity>
-7.86065

>  <minimizedRMSD>
1.21627

$$$$
CHEMBL2426108 PubChem-21577371


 33 34  0  0  0  0  0  0  0  0999 V2000
   16.8601   -9.8154   16.1487 C   0  0  0  0  0  0  0  0  0  0  0  0
   17.1747  -11.0618   16.6920 O   0  0  0  0  0  0  0  0  0  0  0  0
   16.3927  -11.4288   17.1332 H   0  0  0  0  0  0  0  0  0  0  0  0
   15.7614   -9.9708   15.0974 C   0  0  0  0  0  0  0  0  0  0  0  0
   16.1855   -9.4917   13.7069 C   0  0  0  0  0  0  0  0  0  0  0  0
   15.6957   -8.2099   13.4546 O   0  0  0  0  0  0  0  0  0  0  0  0
   16.0769   -7.5867   14.0927 H   0  0  0  0  0  0  0  0  0  0  0  0
   17.6995   -9.5163   13.5251 C   0  0  0  0  0  0  0  0  0  0  0  0
   18.1142  -10.4736   12.4138 C   0  0  0  0  0  0  0  0  0  0  0  0
   18.1229   -8.5065    9.1659 C   0  0  0  0  0  0  0  0  0  0  0  0
   18.4978   -9.0126   10.4161 C   0  0  0  0  0  0  0  0  0  0  0  0
   17.7043   -9.9555   11.0761 C   0  0  0  0  0  0  0  0  0  0  0  0
   16.5169  -10.3973   10.4896 C   0  0  0  0  0  0  0  0  0  0  0  0
   16.1280   -9.9026    9.2439 C   0  0  0  0  0  0  0  0  0  0  0  0
   16.9191   -8.9626    8.5755 C   0  0  0  0  0  0  0  0  0  0  0  0
   16.4920   -8.5005    7.3369 O   0  0  0  0  0  0  0  0  0  0  0  0
   15.6913   -8.8188    6.9688 H   0  0  0  0  0  0  0  0  0  0  0  0
   19.3844   -7.5952    7.2090 C   0  0  0  0  0  0  0  0  0  0  0  0
   18.9763   -7.5668    8.5693 O   0  0  0  0  0  0  0  0  0  0  0  0
   16.4639   -8.8413   17.2553 C   0  0  0  0  0  0  0  0  0  0  0  0
   15.1788   -8.0919   16.9235 C   0  0  0  0  0  0  0  0  0  0  0  0
   14.5334   -7.5860   18.1674 C   0  0  0  0  0  0  0  0  0  0  0  0
   15.1796   -7.7019   19.4008 C   0  0  0  0  0  0  0  0  0  0  0  0
   14.5745   -7.2435   20.5753 C   0  0  0  0  0  0  0  0  0  0  0  0
   13.2856   -6.6599   20.5027 C   0  0  0  0  0  0  0  0  0  0  0  0
   12.6425   -6.1879   21.6417 O   0  0  0  0  0  0  0  0  0  0  0  0
   12.6320   -6.5496   19.2649 C   0  0  0  0  0  0  0  0  0  0  0  0
   13.2625   -7.0172   18.1023 C   0  0  0  0  0  0  0  0  0  0  0  0
   13.0618   -6.2524   22.4771 H   0  0  0  0  0  0  0  0  0  0  0  0
   15.2963   -7.3944   21.7686 O   0  0  0  0  0  0  0  0  0  0  0  0
   16.3448   -6.5366   22.1952 C   0  0  0  0  0  0  0  0  0  0  0  0
   11.3580   -5.9730   19.2141 O   0  0  0  0  0  0  0  0  0  0  0  0
   11.1454   -4.6011   18.9098 C   0  0  0  0  0  0  0  0  0  0  0  0
 18 19  1  0  0  0
 19 10  1  0  0  0
 10 11  2  0  0  0
 11 12  1  0  0  0
 12  9  1  0  0  0
 12 13  2  0  0  0
  9  8  1  0  0  0
  5  8  1  0  0  0
  5  6  1  0  0  0
  5  4  1  0  0  0
  1  4  1  0  0  0
  1  2  1  0  0  0
  1 20  1  0  0  0
 20 21  1  0  0  0
 21 22  1  0  0  0
 22 23  2  0  0  0
 23 24  1  0  0  0
 24 30  1  0  0  0
 24 25  2  0  0  0
 30 31  1  0  0  0
 25 26  1  0  0  0
 25 27  1  0  0  0
 27 32  1  0  0  0
 27 28  2  0  0  0
 32 33  1  0  0  0
 28 22  1  0  0  0
 13 14  1  0  0  0
 14 15  2  0  0  0
 15 16  1  0  0  0
 15 10  1  0  0  0
  6  7  1  0  0  0
  2  3  1  0  0  0
 26 29  1  0  0  0
 16 17  1  0  0  0
M  END
>  <minimizedAffinity>
-7.85659

>  <minimizedRMSD>
1.73794

$$$$
CHEMBL435029 PubChem-10812216


 32 35  0  0  0  0  0  0  0  0999 V2000
   16.7757   -9.6797   16.3152 C   0  0  0  0  0  0  0  0  0  0  0  0
   15.9428   -8.4892   16.6386 C   0  0  0  0  0  0  0  0  0  0  0  0
   15.7306   -7.6110   15.7591 O   0  0  0  0  0  0  0  0  0  0  0  0
   15.3981   -8.3493   17.9516 N   0  0  0  0  0  0  0  0  0  0  0  0
   15.5604   -9.0631   18.6099 H   0  0  0  0  0  0  0  0  0  0  0  0
   14.6113   -7.1904   18.3544 C   0  0  0  0  0  0  0  0  0  0  0  0
   13.1979   -7.3390   17.7970 C   0  0  0  0  0  0  0  0  0  0  0  0
   12.2854   -6.2810   18.3896 C   0  0  0  0  0  0  0  0  0  0  0  0
   12.1326   -6.5249   19.8854 C   0  0  0  0  0  0  0  0  0  0  0  0
   13.4606   -6.6742   20.5824 C   0  0  0  0  0  0  0  0  0  0  0  0
   13.5227   -6.4923   21.9763 C   0  0  0  0  0  0  0  0  0  0  0  0
   14.7554   -6.6126   22.6360 C   0  0  0  0  0  0  0  0  0  0  0  0
   15.9149   -6.9109   21.9224 C   0  0  0  0  0  0  0  0  0  0  0  0
   15.8535   -7.1031   20.5432 C   0  0  0  0  0  0  0  0  0  0  0  0
   14.6329   -7.0117   19.8606 C   0  0  0  0  0  0  0  0  0  0  0  0
   12.3547   -6.1871   22.6863 O   0  0  0  0  0  0  0  0  0  0  0  0
   12.2124   -5.0074   23.4661 C   0  0  0  0  0  0  0  0  0  0  0  0
   17.4280   -9.5085   14.9545 C   0  0  0  0  0  0  0  0  0  0  0  0
   17.5623   -9.3310   11.4839 N   0  0  0  0  0  0  0  0  0  0  0  0
   18.5811  -10.0399   12.2514 C   0  0  0  0  0  0  0  0  0  0  0  0
   17.9114  -11.0586   13.1776 C   0  0  0  0  0  0  0  0  0  0  0  0
   16.8539  -10.4571   14.0044 N   0  0  0  0  0  0  0  0  0  0  0  0
   15.8498   -9.7837   13.1690 C   0  0  0  0  0  0  0  0  0  0  0  0
   16.4679   -8.7340   12.2411 C   0  0  0  0  0  0  0  0  0  0  0  0
   16.9570   -9.3149    9.0670 C   0  0  0  0  0  0  0  0  0  0  0  0
   17.2438   -8.8982    7.7557 C   0  0  0  0  0  0  0  0  0  0  0  0
   18.3742   -8.1270    7.4839 C   0  0  0  0  0  0  0  0  0  0  0  0
   19.2351   -7.7659    8.5190 C   0  0  0  0  0  0  0  0  0  0  0  0
   18.9603   -8.1690    9.8266 C   0  0  0  0  0  0  0  0  0  0  0  0
   17.8196   -8.9350   10.1221 C   0  0  0  0  0  0  0  0  0  0  0  0
   15.9327  -11.5090    9.5981 C   0  0  0  0  0  0  0  0  0  0  0  0
   15.8394  -10.1165    9.3285 O   0  0  0  0  0  0  0  0  0  0  0  0
 31 32  1  0  0  0
 32 25  1  0  0  0
 25 26  2  0  0  0
 26 27  1  0  0  0
 27 28  2  0  0  0
 28 29  1  0  0  0
 29 30  2  0  0  0
 30 19  1  0  0  0
 30 25  1  0  0  0
 19 20  1  0  0  0
 20 21  1  0  0  0
 21 22  1  0  0  0
 22 18  1  0  0  0
 22 23  1  0  0  0
 18  1  1  0  0  0
  1  2  1  0  0  0
  2  3  2  0  0  0
  2  4  1  0  0  0
  6  4  1  0  0  0
  6  7  1  0  0  0
  7  8  1  0  0  0
  8  9  1  0  0  0
  9 10  1  0  0  0
 10 11  2  0  0  0
 11 16  1  0  0  0
 11 12  1  0  0  0
 16 17  1  0  0  0
 12 13  2  0  0  0
 13 14  1  0  0  0
 14 15  2  0  0  0
 15  6  1  0  0  0
 15 10  1  0  0  0
 23 24  1  0  0  0
 24 19  1  0  0  0
  4  5  1  0  0  0
M  END
>  <minimizedAffinity>
-7.85609

>  <minimizedRMSD>
1.58165

$$$$
CHEMBL1522344 2849556 ChemDiv-K907-0187 MCULE-9144995162 MolPort-002-267-503 PubChem-2203454 ZINC000002849556 ZINC02849556


 36 40  0  0  0  0  0  0  0  0999 V2000
   16.7713   -9.1559   13.9304 C   0  0  0  0  0  0  0  0  0  0  0  0
   15.9683   -8.4727   13.0079 C   0  0  0  0  0  0  0  0  0  0  0  0
   16.3017   -8.4670   11.6504 C   0  0  0  0  0  0  0  0  0  0  0  0
   17.4395   -9.1427   11.1978 C   0  0  0  0  0  0  0  0  0  0  0  0
   18.2435   -9.8267   12.1216 C   0  0  0  0  0  0  0  0  0  0  0  0
   17.9115   -9.8332   13.4790 C   0  0  0  0  0  0  0  0  0  0  0  0
   15.6365   -8.6489   17.2246 C   0  0  0  0  0  0  0  0  0  0  0  0
   15.6752   -8.2048   15.9525 N   0  0  0  0  0  0  0  0  0  0  0  0
   16.4204   -9.1620   15.3591 C   0  0  0  0  0  0  0  0  0  0  0  0
   16.8066  -10.1235   16.2216 N   0  0  0  0  0  0  0  0  0  0  0  0
   16.3020   -9.7697   17.3638 O   0  0  0  0  0  0  0  0  0  0  0  0
   13.0123   -6.7063   19.1346 C   0  0  0  0  0  0  0  0  0  0  0  0
   13.6932   -7.3656   18.0987 C   0  0  0  0  0  0  0  0  0  0  0  0
   14.9359   -7.9623   18.3183 C   0  0  0  0  0  0  0  0  0  0  0  0
   15.5089   -7.9013   19.5884 C   0  0  0  0  0  0  0  0  0  0  0  0
   14.8511   -7.2495   20.6415 C   0  0  0  0  0  0  0  0  0  0  0  0
   13.5995   -6.6474   20.4247 C   0  0  0  0  0  0  0  0  0  0  0  0
   11.6188   -4.7633   18.4759 C   0  0  0  0  0  0  0  0  0  0  0  0
   11.7674   -6.1156   18.8883 O   0  0  0  0  0  0  0  0  0  0  0  0
   15.4239   -7.1870   21.9171 O   0  0  0  0  0  0  0  0  0  0  0  0
   16.6308   -6.4865   22.1868 C   0  0  0  0  0  0  0  0  0  0  0  0
   12.9926   -6.0103   21.5205 O   0  0  0  0  0  0  0  0  0  0  0  0
   13.1435   -4.6377   21.8530 C   0  0  0  0  0  0  0  0  0  0  0  0
   17.7475   -9.1131    9.7975 N   0  0  0  0  0  0  0  0  0  0  0  0
   18.5170   -8.1178    9.1050 C   0  0  0  0  0  0  0  0  0  0  0  0
   19.0075   -7.1371    9.7281 O   0  0  0  0  0  0  0  0  0  0  0  0
   17.3939   -9.8534    9.2533 H   0  0  0  0  0  0  0  0  0  0  0  0
   18.7350   -8.2437    7.6532 C   0  0  0  0  0  0  0  0  0  0  0  0
   19.8007   -7.5571    7.0324 C   0  0  0  0  0  0  0  0  0  0  0  0
   19.9613   -7.7105    5.6581 C   0  0  0  0  0  0  0  0  0  0  0  0
   19.1329   -8.4896    4.9182 C   0  0  0  0  0  0  0  0  0  0  0  0
   19.5277   -8.4542    3.5957 O   0  0  0  0  0  0  0  0  0  0  0  0
   20.6759   -7.5996    3.4977 C   0  0  0  0  0  0  0  0  0  0  0  0
   20.9177   -7.1470    4.8374 O   0  0  0  0  0  0  0  0  0  0  0  0
   18.0696   -9.1854    5.4855 C   0  0  0  0  0  0  0  0  0  0  0  0
   17.8754   -9.0548    6.8724 C   0  0  0  0  0  0  0  0  0  0  0  0
 18 19  1  0  0  0
 19 12  1  0  0  0
 12 13  2  0  0  0
 13 14  1  0  0  0
 14 15  2  0  0  0
 14  7  1  0  0  0
 15 16  1  0  0  0
 16 20  1  0  0  0
 16 17  2  0  0  0
 20 21  1  0  0  0
 17 22  1  0  0  0
 17 12  1  0  0  0
 22 23  1  0  0  0
  7  8  2  0  0  0
  8  9  1  0  0  0
  9 10  2  0  0  0
  9  1  1  0  0  0
 10 11  1  0  0  0
 11  7  1  0  0  0
  1  2  2  0  0  0
  2  3  1  0  0  0
  3  4  2  0  0  0
  4 24  1  0  0  0
  4  5  1  0  0  0
 24 25  1  0  0  0
 25 26  2  0  0  0
 25 28  1  0  0  0
 28 29  2  0  0  0
 29 30  1  0  0  0
 30 31  2  0  0  0
 31 32  1  0  0  0
 31 35  1  0  0  0
 32 33  1  0  0  0
 33 34  1  0  0  0
 34 30  1  0  0  0
 35 36  2  0  0  0
 36 28  1  0  0  0
  5  6  2  0  0  0
  6  1  1  0  0  0
 24 27  1  0  0  0
M  END
>  <minimizedAffinity>
-7.84851

>  <minimizedRMSD>
1.71521

$$$$
CHEMBL1360019 2364922 ChemDiv-D134-0552 LN00718842 MCULE-2602690709 MolPort-002-647-216 PubChem-667406 ZINC000002364922 ZINC02364922


 30 32  0  0  0  0  0  0  0  0999 V2000
   14.7615   -7.4281   18.8963 C   0  0  0  0  0  0  0  0  0  0  0  0
   14.1049   -7.0326   17.7865 N   0  0  0  0  0  0  0  0  0  0  0  0
   14.6712   -7.6810   16.8154 O   0  0  0  0  0  0  0  0  0  0  0  0
   15.6253   -8.4400   17.2926 C   0  0  0  0  0  0  0  0  0  0  0  0
   15.7388   -8.3213   18.6285 N   0  0  0  0  0  0  0  0  0  0  0  0
   12.8832   -5.9490   21.8251 C   0  0  0  0  0  0  0  0  0  0  0  0
   13.1809   -6.4390   20.5448 C   0  0  0  0  0  0  0  0  0  0  0  0
   14.4525   -6.9362   20.2479 C   0  0  0  0  0  0  0  0  0  0  0  0
   15.4222   -6.9798   21.2535 C   0  0  0  0  0  0  0  0  0  0  0  0
   15.1416   -6.5232   22.5443 C   0  0  0  0  0  0  0  0  0  0  0  0
   13.8744   -5.9485   22.8201 C   0  0  0  0  0  0  0  0  0  0  0  0
   10.8230   -4.7406   21.1689 C   0  0  0  0  0  0  0  0  0  0  0  0
   11.6171   -5.4324   22.1235 O   0  0  0  0  0  0  0  0  0  0  0  0
   16.1323   -6.6856   23.5172 O   0  0  0  0  0  0  0  0  0  0  0  0
   15.9252   -7.4493   24.6970 C   0  0  0  0  0  0  0  0  0  0  0  0
   13.5727   -5.3494   24.0480 O   0  0  0  0  0  0  0  0  0  0  0  0
   13.9453   -4.0129   24.3534 C   0  0  0  0  0  0  0  0  0  0  0  0
   16.5036   -9.3069   16.4564 C   0  0  0  0  0  0  0  0  0  0  0  0
   17.0664   -8.5251   15.2765 C   0  0  0  0  0  0  0  0  0  0  0  0
   16.0029   -8.2709   14.2152 C   0  0  0  0  0  0  0  0  0  0  0  0
   16.1526   -9.2133   13.0693 C   0  0  0  0  0  0  0  0  0  0  0  0
   15.2262  -10.0269   12.8106 O   0  0  0  0  0  0  0  0  0  0  0  0
   17.3384   -9.1810   12.2705 N   0  0  0  0  0  0  0  0  0  0  0  0
   18.0483   -8.5412   12.5070 H   0  0  0  0  0  0  0  0  0  0  0  0
   17.5411  -10.0538   11.1224 C   0  0  0  0  0  0  0  0  0  0  0  0
   17.9072   -9.2512    9.9204 C   0  0  0  0  0  0  0  0  0  0  0  0
   18.9652   -8.3731    9.8446 C   0  0  0  0  0  0  0  0  0  0  0  0
   18.8979   -7.8545    8.5628 C   0  0  0  0  0  0  0  0  0  0  0  0
   17.8060   -8.4480    7.9511 C   0  0  0  0  0  0  0  0  0  0  0  0
   17.2396   -9.2749    8.7963 O   0  0  0  0  0  0  0  0  0  0  0  0
 12 13  1  0  0  0
 13  6  1  0  0  0
  6  7  2  0  0  0
  7  8  1  0  0  0
  8  9  2  0  0  0
  8  1  1  0  0  0
  9 10  1  0  0  0
 10 14  1  0  0  0
 10 11  2  0  0  0
 14 15  1  0  0  0
 11 16  1  0  0  0
 11  6  1  0  0  0
 16 17  1  0  0  0
  1  2  2  0  0  0
  2  3  1  0  0  0
  3  4  1  0  0  0
  4 18  1  0  0  0
  4  5  2  0  0  0
 18 19  1  0  0  0
 19 20  1  0  0  0
 20 21  1  0  0  0
 21 22  2  0  0  0
 21 23  1  0  0  0
 23 25  1  0  0  0
 25 26  1  0  0  0
 26 27  2  0  0  0
 27 28  1  0  0  0
 28 29  2  0  0  0
 29 30  1  0  0  0
 30 26  1  0  0  0
  5  1  1  0  0  0
 23 24  1  0  0  0
M  END
>  <minimizedAffinity>
-7.84418

>  <minimizedRMSD>
1.59397

$$$$
CHEMBL4645840 PubChem-16589809


 33 35  0  0  0  0  0  0  0  0999 V2000
   17.3574   -9.6255   16.7530 C   0  0  0  0  0  0  0  0  0  0  0  0
   16.7605  -10.9184   16.1991 C   0  0  0  0  0  0  0  0  0  0  0  0
   15.8728  -10.6682   14.9753 C   0  0  0  0  0  0  0  0  0  0  0  0
   16.5376   -9.8642   13.9423 N   0  0  0  0  0  0  0  0  0  0  0  0
   16.9523   -8.5626   14.4830 C   0  0  0  0  0  0  0  0  0  0  0  0
   17.9047   -8.6900   15.6762 C   0  0  0  0  0  0  0  0  0  0  0  0
   15.4253   -8.0392   17.4595 C   0  0  0  0  0  0  0  0  0  0  0  0
   15.1298   -7.7274   16.2752 O   0  0  0  0  0  0  0  0  0  0  0  0
   16.4969   -8.9547   17.7282 N   0  0  0  0  0  0  0  0  0  0  0  0
   16.6732   -9.1543   18.6760 H   0  0  0  0  0  0  0  0  0  0  0  0
   12.5890   -6.5255   19.4638 C   0  0  0  0  0  0  0  0  0  0  0  0
   13.3292   -7.0803   18.4079 C   0  0  0  0  0  0  0  0  0  0  0  0
   14.6634   -7.4584   18.5790 C   0  0  0  0  0  0  0  0  0  0  0  0
   15.2656   -7.2784   19.8256 C   0  0  0  0  0  0  0  0  0  0  0  0
   14.5502   -6.7267   20.8979 C   0  0  0  0  0  0  0  0  0  0  0  0
   13.2081   -6.3460   20.7272 C   0  0  0  0  0  0  0  0  0  0  0  0
   10.2933   -7.0146   18.6628 C   0  0  0  0  0  0  0  0  0  0  0  0
   11.2538   -6.1558   19.2635 O   0  0  0  0  0  0  0  0  0  0  0  0
   12.5469   -5.7995   21.8402 O   0  0  0  0  0  0  0  0  0  0  0  0
   12.3819   -4.4112   22.0912 C   0  0  0  0  0  0  0  0  0  0  0  0
   15.1545   -6.5465   22.1475 O   0  0  0  0  0  0  0  0  0  0  0  0
   16.5640   -6.4847   22.3205 C   0  0  0  0  0  0  0  0  0  0  0  0
   17.6851  -10.5860   13.3966 C   0  0  0  0  0  0  0  0  0  0  0  0
   18.1829   -9.9064   12.1677 C   0  0  0  0  0  0  0  0  0  0  0  0
   19.3323   -9.3901   12.1632 O   0  0  0  0  0  0  0  0  0  0  0  0
   17.3445   -9.8650   11.0062 N   0  0  0  0  0  0  0  0  0  0  0  0
   16.4657  -10.3026   11.0806 H   0  0  0  0  0  0  0  0  0  0  0  0
   17.6529   -9.2523    9.7468 C   0  0  0  0  0  0  0  0  0  0  0  0
   17.0103   -9.7203    8.5951 C   0  0  0  0  0  0  0  0  0  0  0  0
   17.2838   -9.1474    7.3493 C   0  0  0  0  0  0  0  0  0  0  0  0
   18.2039   -8.1003    7.2484 C   0  0  0  0  0  0  0  0  0  0  0  0
   18.8501   -7.6263    8.3931 C   0  0  0  0  0  0  0  0  0  0  0  0
   18.5756   -8.2000    9.6380 C   0  0  0  0  0  0  0  0  0  0  0  0
 17 18  1  0  0  0
 18 11  1  0  0  0
 11 12  2  0  0  0
 12 13  1  0  0  0
 13 14  2  0  0  0
 14 15  1  0  0  0
 15 16  2  0  0  0
 16 19  1  0  0  0
 19 20  1  0  0  0
 15 21  1  0  0  0
 21 22  1  0  0  0
 13  7  1  0  0  0
  7  8  2  0  0  0
  7  9  1  0  0  0
  9  1  1  0  0  0
  1  2  1  0  0  0
  2  3  1  0  0  0
  3  4  1  0  0  0
  4  5  1  0  0  0
  5  6  1  0  0  0
  4 23  1  0  0  0
 23 24  1  0  0  0
 24 25  2  0  0  0
 24 26  1  0  0  0
 26 28  1  0  0  0
 28 29  2  0  0  0
 29 30  1  0  0  0
 30 31  2  0  0  0
 31 32  1  0  0  0
 32 33  2  0  0  0
 16 11  1  0  0  0
  6  1  1  0  0  0
 33 28  1  0  0  0
  9 10  1  0  0  0
 26 27  1  0  0  0
M  END
>  <minimizedAffinity>
-7.83075

>  <minimizedRMSD>
1.47610

$$$$
CHEMBL1536155 MCULE-9001871578


 28 29  0  0  0  0  0  0  0  0999 V2000
   14.5846   -7.4516   17.4445 N   0  0  0  0  0  0  0  0  0  0  0  0
   15.5371   -8.2679   17.2313 N   0  0  0  0  0  0  0  0  0  0  0  0
   14.1838   -7.0370   18.7618 C   0  0  0  0  0  0  0  0  0  0  0  0
   12.8727   -6.5658   18.9587 C   0  0  0  0  0  0  0  0  0  0  0  0
   11.9250   -6.5053   17.7995 C   0  0  0  0  0  0  0  0  0  0  0  0
   12.4588   -6.1548   20.2397 C   0  0  0  0  0  0  0  0  0  0  0  0
   13.3678   -6.2231   21.3035 C   0  0  0  0  0  0  0  0  0  0  0  0
   14.6278   -6.6807   21.0925 N   0  0  0  0  0  0  0  0  0  0  0  0
   15.0584   -7.0847   19.8693 C   0  0  0  0  0  0  0  0  0  0  0  0
   16.3648   -7.5401   19.7388 O   0  0  0  0  0  0  0  0  0  0  0  0
   12.9931   -5.8254   22.5824 O   0  0  0  0  0  0  0  0  0  0  0  0
   16.9295   -7.5639   20.4862 H   0  0  0  0  0  0  0  0  0  0  0  0
   12.1255   -5.5079   22.7390 H   0  0  0  0  0  0  0  0  0  0  0  0
   11.1184   -5.6667   20.4711 C   0  0  0  0  0  0  0  0  0  0  0  0
   10.0449   -5.2759   20.6566 N   0  0  0  0  0  0  0  0  0  0  0  0
   15.9090   -8.6587   15.9076 C   0  0  0  0  0  0  0  0  0  0  0  0
   16.4802   -9.9182   15.7028 C   0  0  0  0  0  0  0  0  0  0  0  0
   16.8520  -10.3226   14.4175 C   0  0  0  0  0  0  0  0  0  0  0  0
   16.6563   -9.4707   13.3222 C   0  0  0  0  0  0  0  0  0  0  0  0
   16.0835   -8.2077   13.5285 C   0  0  0  0  0  0  0  0  0  0  0  0
   15.7115   -7.8030   14.8134 C   0  0  0  0  0  0  0  0  0  0  0  0
   17.0500   -9.9025   11.9713 C   0  0  0  0  0  0  0  0  0  0  0  0
   16.2877  -10.6523   11.3004 O   0  0  0  0  0  0  0  0  0  0  0  0
   18.2691   -9.4789   11.4367 O   0  0  0  0  0  0  0  0  0  0  0  0
   18.5461   -9.5557   10.0467 C   0  0  0  0  0  0  0  0  0  0  0  0
   18.5801   -8.1598    9.4620 C   0  0  0  0  0  0  0  0  0  0  0  0
   18.2016   -8.2176    7.9974 C   0  0  0  0  0  0  0  0  0  0  0  0
   19.1953   -7.4120    7.1875 C   0  0  0  0  0  0  0  0  0  0  0  0
  3  1  1  0  0  0
  1  2  2  0  0  0
  2 16  1  0  0  0
 16 17  2  0  0  0
 17 18  1  0  0  0
 18 19  2  0  0  0
 19 20  1  0  0  0
 20 21  2  0  0  0
 19 22  1  0  0  0
 22 24  1  0  0  0
 24 25  1  0  0  0
 25 26  1  0  0  0
 26 27  1  0  0  0
 27 28  1  0  0  0
 22 23  2  0  0  0
  3  4  2  0  0  0
  4  5  1  0  0  0
  4  6  1  0  0  0
  6 14  1  0  0  0
 14 15  3  0  0  0
  6  7  2  0  0  0
  7  8  1  0  0  0
  8  9  2  0  0  0
  9 10  1  0  0  0
  7 11  1  0  0  0
  9  3  1  0  0  0
 21 16  1  0  0  0
 10 12  1  0  0  0
 11 13  1  0  0  0
M  END
>  <minimizedAffinity>
-7.82664

>  <minimizedRMSD>
1.76170

$$$$
CHEMBL4064583 PubChem-137637873


 37 41  0  0  0  0  0  0  0  0999 V2000
   15.3722   -8.1244   17.8830 C   0  0  0  0  0  0  0  0  0  0  0  0
   15.8443   -9.4583   17.9345 C   0  0  0  0  0  0  0  0  0  0  0  0
   16.4952   -9.9344   16.8044 C   0  0  0  0  0  0  0  0  0  0  0  0
   16.6739   -9.1673   15.7032 C   0  0  0  0  0  0  0  0  0  0  0  0
   16.2151   -7.8594   15.6433 C   0  0  0  0  0  0  0  0  0  0  0  0
   15.5713   -7.3721   16.7466 N   0  0  0  0  0  0  0  0  0  0  0  0
   17.3272   -9.9063   14.7993 N   0  0  0  0  0  0  0  0  0  0  0  0
   17.5379  -11.0989   15.3500 N   0  0  0  0  0  0  0  0  0  0  0  0
   17.0367  -11.1471   16.5849 N   0  0  0  0  0  0  0  0  0  0  0  0
   13.3036   -6.3907   21.2442 C   0  0  0  0  0  0  0  0  0  0  0  0
   14.3487   -7.3261   21.4445 C   0  0  0  0  0  0  0  0  0  0  0  0
   15.0114   -7.8850   20.3497 C   0  0  0  0  0  0  0  0  0  0  0  0
   14.6670   -7.5328   19.0402 C   0  0  0  0  0  0  0  0  0  0  0  0
   13.6404   -6.6059   18.8381 C   0  0  0  0  0  0  0  0  0  0  0  0
   12.9588   -6.0372   19.9163 C   0  0  0  0  0  0  0  0  0  0  0  0
   11.9103   -5.0223   19.6043 C   0  0  0  0  0  0  0  0  0  0  0  0
   14.7569   -7.7893   22.8034 C   0  0  0  0  0  0  0  0  0  0  0  0
   12.5881   -5.7943   22.4023 C   0  0  0  0  0  0  0  0  0  0  0  0
   13.2314   -5.4388   23.4274 O   0  0  0  0  0  0  0  0  0  0  0  0
   11.1683   -5.6301   22.3648 N   0  0  0  0  0  0  0  0  0  0  0  0
   10.6764   -5.9174   21.5619 H   0  0  0  0  0  0  0  0  0  0  0  0
   10.4283   -5.0527   23.4739 C   0  0  0  0  0  0  0  0  0  0  0  0
   10.3954   -3.5463   23.3276 C   0  0  0  0  0  0  0  0  0  0  0  0
   17.7432   -9.5067   13.4619 C   0  0  0  0  0  0  0  0  0  0  0  0
   18.6022  -10.5982   12.8229 C   0  0  0  0  0  0  0  0  0  0  0  0
   19.0091  -10.1776   11.4126 C   0  0  0  0  0  0  0  0  0  0  0  0
   17.8530   -9.7156   10.6367 N   0  0  0  0  0  0  0  0  0  0  0  0
   16.5130   -9.7527   11.2241 C   0  0  0  0  0  0  0  0  0  0  0  0
   16.5189   -9.1167   12.6161 C   0  0  0  0  0  0  0  0  0  0  0  0
   18.0281   -9.2856    9.2785 C   0  0  0  0  0  0  0  0  0  0  0  0
   18.7922   -8.1931    8.9976 N   0  0  0  0  0  0  0  0  0  0  0  0
   18.9677   -7.7688    7.7191 C   0  0  0  0  0  0  0  0  0  0  0  0
   18.3566   -8.4532    6.6699 C   0  0  0  0  0  0  0  0  0  0  0  0
   17.5815   -9.5725    6.9691 C   0  0  0  0  0  0  0  0  0  0  0  0
   17.4300   -9.9655    8.2605 N   0  0  0  0  0  0  0  0  0  0  0  0
   18.5503   -8.0158    5.2598 C   0  0  0  0  0  0  0  0  0  0  0  0
   19.9848   -7.5737    5.0415 C   0  0  0  0  0  0  0  0  0  0  0  0
 18 19  2  0  0  0
 18 10  1  0  0  0
 10 11  2  0  0  0
 11 12  1  0  0  0
 12 13  2  0  0  0
 13 14  1  0  0  0
 14 15  2  0  0  0
 15 16  1  0  0  0
 13  1  1  0  0  0
  1  2  2  0  0  0
  2  3  1  0  0  0
  3  4  2  0  0  0
  4  5  1  0  0  0
  5  6  2  0  0  0
  4  7  1  0  0  0
  7  8  1  0  0  0
  8  9  2  0  0  0
  7 24  1  0  0  0
 24 25  1  0  0  0
 25 26  1  0  0  0
 26 27  1  0  0  0
 27 28  1  0  0  0
 28 29  1  0  0  0
 27 30  1  0  0  0
 30 31  2  0  0  0
 31 32  1  0  0  0
 32 33  2  0  0  0
 33 34  1  0  0  0
 34 35  2  0  0  0
 33 36  1  0  0  0
 36 37  1  0  0  0
 11 17  1  0  0  0
 18 20  1  0  0  0
 20 22  1  0  0  0
 22 23  1  0  0  0
 15 10  1  0  0  0
  6  1  1  0  0  0
 29 24  1  0  0  0
 35 30  1  0  0  0
  9  3  1  0  0  0
 20 21  1  0  0  0
M  END
>  <minimizedAffinity>
-7.81347

>  <minimizedRMSD>
1.73288

$$$$
CHEMBL1598621 3373114 CSC027920872 MCULE-2138841866 MolPort-004-058-042 PubChem-2490885 Z18774642 ZINC000003373114 ZINC03373114


 30 31  0  0  0  0  0  0  0  0999 V2000
   17.3505   -9.1266   16.4811 C   0  0  0  0  0  0  0  0  0  0  0  0
   16.7068   -8.9575   14.0471 N   0  0  0  0  0  0  0  0  0  0  0  0
   17.0751   -9.7680   15.1650 C   0  0  0  0  0  0  0  0  0  0  0  0
   17.1410  -11.0213   15.0562 O   0  0  0  0  0  0  0  0  0  0  0  0
   16.6280   -7.9849   14.1774 H   0  0  0  0  0  0  0  0  0  0  0  0
   16.4423   -9.5057   12.7226 C   0  0  0  0  0  0  0  0  0  0  0  0
   17.7376   -9.9315   12.0409 C   0  0  0  0  0  0  0  0  0  0  0  0
   17.9324   -8.3860    8.0354 C   0  0  0  0  0  0  0  0  0  0  0  0
   18.9438   -8.0919    8.9562 C   0  0  0  0  0  0  0  0  0  0  0  0
   18.8827   -8.5982   10.2579 C   0  0  0  0  0  0  0  0  0  0  0  0
   17.8091   -9.4061   10.6464 C   0  0  0  0  0  0  0  0  0  0  0  0
   16.7926   -9.7010    9.7319 C   0  0  0  0  0  0  0  0  0  0  0  0
   16.8537   -9.1944    8.4306 C   0  0  0  0  0  0  0  0  0  0  0  0
   19.2626   -7.6890    6.0699 C   0  0  0  0  0  0  0  0  0  0  0  0
   18.0229   -7.8648    6.7419 O   0  0  0  0  0  0  0  0  0  0  0  0
   16.1728   -9.1135   17.2796 O   0  0  0  0  0  0  0  0  0  0  0  0
   15.3056   -8.0159   17.3255 C   0  0  0  0  0  0  0  0  0  0  0  0
   15.0653   -7.3598   16.2748 O   0  0  0  0  0  0  0  0  0  0  0  0
   14.6841   -7.6352   18.6141 C   0  0  0  0  0  0  0  0  0  0  0  0
   15.5093   -7.5299   19.7414 C   0  0  0  0  0  0  0  0  0  0  0  0
   14.9914   -7.1750   20.9953 C   0  0  0  0  0  0  0  0  0  0  0  0
   13.6216   -6.9193   21.1285 C   0  0  0  0  0  0  0  0  0  0  0  0
   12.7880   -7.0229   20.0062 C   0  0  0  0  0  0  0  0  0  0  0  0
   13.3011   -7.3785   18.7488 C   0  0  0  0  0  0  0  0  0  0  0  0
   15.8192   -7.0712   22.1186 O   0  0  0  0  0  0  0  0  0  0  0  0
   17.0837   -6.4236   22.0852 C   0  0  0  0  0  0  0  0  0  0  0  0
   13.1101   -6.5652   22.3817 O   0  0  0  0  0  0  0  0  0  0  0  0
   12.4310   -5.3392   22.6170 C   0  0  0  0  0  0  0  0  0  0  0  0
   12.4513   -7.4775   17.6400 O   0  0  0  0  0  0  0  0  0  0  0  0
   11.0347   -7.4289   17.7445 C   0  0  0  0  0  0  0  0  0  0  0  0
 14 15  1  0  0  0
 15  8  1  0  0  0
  8  9  2  0  0  0
  9 10  1  0  0  0
 10 11  2  0  0  0
 11  7  1  0  0  0
 11 12  1  0  0  0
  7  6  1  0  0  0
  6  2  1  0  0  0
  2  3  1  0  0  0
  3  4  2  0  0  0
  3  1  1  0  0  0
  1 16  1  0  0  0
 16 17  1  0  0  0
 17 18  2  0  0  0
 17 19  1  0  0  0
 19 20  2  0  0  0
 20 21  1  0  0  0
 21 25  1  0  0  0
 21 22  2  0  0  0
 25 26  1  0  0  0
 22 27  1  0  0  0
 22 23  1  0  0  0
 27 28  1  0  0  0
 23 24  2  0  0  0
 24 29  1  0  0  0
 24 19  1  0  0  0
 29 30  1  0  0  0
 12 13  2  0  0  0
 13  8  1  0  0  0
  2  5  1  0  0  0
M  END
>  <minimizedAffinity>
-7.80043

>  <minimizedRMSD>
1.89342

$$$$
CHEMBL4574473 PubChem-135335375


 33 37  0  0  0  0  0  0  0  0999 V2000
   15.1810   -7.9255   18.0241 C   0  0  0  0  0  0  0  0  0  0  0  0
   16.2030   -8.8537   18.2197 C   0  0  0  0  0  0  0  0  0  0  0  0
   16.5868   -9.2327   16.9931 N   0  0  0  0  0  0  0  0  0  0  0  0
   17.5473  -10.1170   16.6337 C   0  0  0  0  0  0  0  0  0  0  0  0
   17.7571  -10.3404   15.2659 C   0  0  0  0  0  0  0  0  0  0  0  0
   16.9777   -9.6526   14.3052 C   0  0  0  0  0  0  0  0  0  0  0  0
   15.9920   -8.7420   14.7432 C   0  0  0  0  0  0  0  0  0  0  0  0
   15.8301   -8.5625   16.1138 C   0  0  0  0  0  0  0  0  0  0  0  0
   14.9440   -7.7401   16.7006 N   0  0  0  0  0  0  0  0  0  0  0  0
   13.1213   -6.7697   18.9492 C   0  0  0  0  0  0  0  0  0  0  0  0
   12.4852   -6.1189   20.0189 C   0  0  0  0  0  0  0  0  0  0  0  0
   13.1420   -5.9186   21.2410 C   0  0  0  0  0  0  0  0  0  0  0  0
   14.4558   -6.3776   21.3927 C   0  0  0  0  0  0  0  0  0  0  0  0
   15.0964   -7.0255   20.3358 C   0  0  0  0  0  0  0  0  0  0  0  0
   14.4478   -7.2307   19.1090 C   0  0  0  0  0  0  0  0  0  0  0  0
   15.3206   -6.1512   22.9022 Cl  0  0  0  0  0  0  0  0  0  0  0  0
   11.0927   -7.3822   17.6619 C   0  0  0  0  0  0  0  0  0  0  0  0
   12.4478   -6.9600   17.7363 O   0  0  0  0  0  0  0  0  0  0  0  0
   12.5088   -5.2701   22.3072 O   0  0  0  0  0  0  0  0  0  0  0  0
   11.3639   -4.4458   22.1356 C   0  0  0  0  0  0  0  0  0  0  0  0
   17.1910   -9.8756   12.8978 N   0  0  0  0  0  0  0  0  0  0  0  0
   16.0490   -9.9690   11.9849 C   0  0  0  0  0  0  0  0  0  0  0  0
   16.3152   -9.1461   10.7251 C   0  0  0  0  0  0  0  0  0  0  0  0
   17.6672   -9.3786   10.1980 N   0  0  0  0  0  0  0  0  0  0  0  0
   18.5462  -10.3344   10.8751 C   0  0  0  0  0  0  0  0  0  0  0  0
   18.5520  -10.0648   12.3785 C   0  0  0  0  0  0  0  0  0  0  0  0
   18.0682   -8.7501    8.9617 C   0  0  0  0  0  0  0  0  0  0  0  0
   19.1594   -7.8570    8.8969 C   0  0  0  0  0  0  0  0  0  0  0  0
   19.5044   -7.2779    7.6733 C   0  0  0  0  0  0  0  0  0  0  0  0
   18.7955   -7.5685    6.5513 N   0  0  0  0  0  0  0  0  0  0  0  0
   17.7360   -8.4180    6.5819 C   0  0  0  0  0  0  0  0  0  0  0  0
   17.3554   -9.0182    7.7824 C   0  0  0  0  0  0  0  0  0  0  0  0
   19.8697   -7.5156   10.0000 F   0  0  0  0  0  0  0  0  0  0  0  0
 17 18  1  0  0  0
 18 10  1  0  0  0
 10 11  2  0  0  0
 11 12  1  0  0  0
 12 13  2  0  0  0
 13 14  1  0  0  0
 14 15  2  0  0  0
 15  1  1  0  0  0
  1  2  2  0  0  0
  2  3  1  0  0  0
  3  4  1  0  0  0
  4  5  2  0  0  0
  5  6  1  0  0  0
  6  7  2  0  0  0
  7  8  1  0  0  0
  8  9  2  0  0  0
  6 21  1  0  0  0
 21 22  1  0  0  0
 22 23  1  0  0  0
 23 24  1  0  0  0
 24 25  1  0  0  0
 25 26  1  0  0  0
 24 27  1  0  0  0
 27 28  2  0  0  0
 28 29  1  0  0  0
 29 30  2  0  0  0
 30 31  1  0  0  0
 31 32  2  0  0  0
 28 33  1  0  0  0
 13 16  1  0  0  0
 12 19  1  0  0  0
 19 20  1  0  0  0
 15 10  1  0  0  0
  9  1  1  0  0  0
  8  3  1  0  0  0
 26 21  1  0  0  0
 32 27  1  0  0  0
M  END
>  <minimizedAffinity>
-7.79612

>  <minimizedRMSD>
1.80711

$$$$
CHEMBL3673570 PubChem-68322664


 32 36  0  0  0  0  0  0  0  0999 V2000
   16.8464   -8.8268   17.1263 N   0  0  0  0  0  0  0  0  0  0  0  0
   15.6354   -8.0660   17.2550 C   0  0  0  0  0  0  0  0  0  0  0  0
   14.9427   -7.7847   16.2392 O   0  0  0  0  0  0  0  0  0  0  0  0
   17.3404   -9.0124   17.9574 H   0  0  0  0  0  0  0  0  0  0  0  0
   15.1981   -7.6099   18.5861 C   0  0  0  0  0  0  0  0  0  0  0  0
   16.0599   -7.7449   19.7028 C   0  0  0  0  0  0  0  0  0  0  0  0
   15.6592   -7.3186   20.9820 C   0  0  0  0  0  0  0  0  0  0  0  0
   14.3912   -6.7587   21.1024 C   0  0  0  0  0  0  0  0  0  0  0  0
   13.7998   -6.3070   22.2196 N   0  0  0  0  0  0  0  0  0  0  0  0
   12.5762   -5.8920   21.7895 C   0  0  0  0  0  0  0  0  0  0  0  0
   12.4078   -6.0600   20.4421 N   0  0  0  0  0  0  0  0  0  0  0  0
   13.5579   -6.6194   20.0364 C   0  0  0  0  0  0  0  0  0  0  0  0
   13.9190   -7.0374   18.7553 C   0  0  0  0  0  0  0  0  0  0  0  0
   11.2332   -5.8947   19.5913 C   0  0  0  0  0  0  0  0  0  0  0  0
   10.4421   -4.6619   19.9510 C   0  0  0  0  0  0  0  0  0  0  0  0
    9.6047   -5.0026   21.1554 C   0  0  0  0  0  0  0  0  0  0  0  0
   10.3423   -4.7370   22.3763 N   0  0  0  0  0  0  0  0  0  0  0  0
   11.6168   -5.2776   22.7433 C   0  0  0  0  0  0  0  0  0  0  0  0
   11.9684   -5.1780   23.9484 O   0  0  0  0  0  0  0  0  0  0  0  0
    9.9230   -4.1209   23.0196 H   0  0  0  0  0  0  0  0  0  0  0  0
   17.2806   -9.8544   13.5323 C   0  0  0  0  0  0  0  0  0  0  0  0
   18.5814  -10.3742   13.5836 C   0  0  0  0  0  0  0  0  0  0  0  0
   19.2926  -10.3807   14.7860 C   0  0  0  0  0  0  0  0  0  0  0  0
   18.7085   -9.8674   15.9466 C   0  0  0  0  0  0  0  0  0  0  0  0
   17.4120   -9.3446   15.9146 C   0  0  0  0  0  0  0  0  0  0  0  0
   16.7038   -9.3414   14.7038 C   0  0  0  0  0  0  0  0  0  0  0  0
   16.7122   -9.6901    8.6021 C   0  0  0  0  0  0  0  0  0  0  0  0
   16.3015   -9.7737   10.0278 C   0  0  0  0  0  0  0  0  0  0  0  0
   17.1696   -9.7610   11.0574 N   0  0  0  0  0  0  0  0  0  0  0  0
   16.5333   -9.8496   12.2598 C   0  0  0  0  0  0  0  0  0  0  0  0
   15.1377   -9.9347   12.1984 C   0  0  0  0  0  0  0  0  0  0  0  0
   14.7218   -9.8946   10.5664 S   0  0  0  0  0  0  0  0  0  0  0  0
 27 28  1  0  0  0
 28 29  2  0  0  0
 29 30  1  0  0  0
 30 21  1  0  0  0
 21 22  2  0  0  0
 22 23  1  0  0  0
 23 24  2  0  0  0
 24 25  1  0  0  0
 25  1  1  0  0  0
  1  2  1  0  0  0
  2  3  2  0  0  0
  2  5  1  0  0  0
  5  6  2  0  0  0
  6  7  1  0  0  0
  7  8  2  0  0  0
  8  9  1  0  0  0
  9 10  2  0  0  0
 10 11  1  0  0  0
 11 12  1  0  0  0
 12 13  2  0  0  0
 11 14  1  0  0  0
 14 15  1  0  0  0
 15 16  1  0  0  0
 16 17  1  0  0  0
 17 18  1  0  0  0
 18 19  2  0  0  0
 25 26  2  0  0  0
 30 31  2  0  0  0
 31 32  1  0  0  0
 32 28  1  0  0  0
 26 21  1  0  0  0
 13  5  1  0  0  0
 12  8  1  0  0  0
 18 10  1  0  0  0
  1  4  1  0  0  0
 17 20  1  0  0  0
M  END
>  <minimizedAffinity>
-7.78640

>  <minimizedRMSD>
1.66086

$$$$
CHEMBL4585430 PubChem-135334896


 32 34  0  0  0  0  0  0  0  0999 V2000
   17.0386   -9.8982   13.8112 C   0  0  0  0  0  0  0  0  0  0  0  0
   16.0850   -8.9976   14.3274 C   0  0  0  0  0  0  0  0  0  0  0  0
   16.0381   -8.8233   15.7076 C   0  0  0  0  0  0  0  0  0  0  0  0
   15.1983   -8.0104   16.3706 N   0  0  0  0  0  0  0  0  0  0  0  0
   15.5484   -8.1980   17.6685 C   0  0  0  0  0  0  0  0  0  0  0  0
   16.5912   -9.1180   17.7731 C   0  0  0  0  0  0  0  0  0  0  0  0
   16.8726   -9.4898   16.5170 N   0  0  0  0  0  0  0  0  0  0  0  0
   17.8067  -10.3651   16.0736 C   0  0  0  0  0  0  0  0  0  0  0  0
   17.9011  -10.5821   14.6914 C   0  0  0  0  0  0  0  0  0  0  0  0
   14.9041   -7.5130   18.8145 C   0  0  0  0  0  0  0  0  0  0  0  0
   15.6422   -7.3356   19.9942 C   0  0  0  0  0  0  0  0  0  0  0  0
   15.0876   -6.6980   21.1047 C   0  0  0  0  0  0  0  0  0  0  0  0
   13.7722   -6.2217   21.0556 C   0  0  0  0  0  0  0  0  0  0  0  0
   13.0264   -6.3941   19.8812 C   0  0  0  0  0  0  0  0  0  0  0  0
   13.5755   -7.0343   18.7582 C   0  0  0  0  0  0  0  0  0  0  0  0
   16.0619   -6.5067   22.5510 Cl  0  0  0  0  0  0  0  0  0  0  0  0
   12.8140   -7.1968   17.5943 O   0  0  0  0  0  0  0  0  0  0  0  0
   11.4011   -7.3506   17.6095 C   0  0  0  0  0  0  0  0  0  0  0  0
   13.2256   -5.5838   22.1749 O   0  0  0  0  0  0  0  0  0  0  0  0
   11.8716   -5.1561   22.2318 C   0  0  0  0  0  0  0  0  0  0  0  0
   16.1017  -10.1833   11.4398 C   0  0  0  0  0  0  0  0  0  0  0  0
   14.9017  -10.0197   11.7923 O   0  0  0  0  0  0  0  0  0  0  0  0
   17.1634  -10.1418   12.4035 N   0  0  0  0  0  0  0  0  0  0  0  0
   18.0738  -10.2969   12.0625 H   0  0  0  0  0  0  0  0  0  0  0  0
   16.4407  -10.4339    9.9997 C   0  0  0  0  0  0  0  0  0  0  0  0
   15.3030  -10.1556    9.1315 N   0  0  0  0  0  0  0  0  0  0  0  0
   15.0499   -9.1705    9.2080 H   0  0  0  0  0  0  0  0  0  0  0  0
   14.5110  -10.7332    9.4134 H   0  0  0  0  0  0  0  0  0  0  0  0
   17.6765   -9.6278    9.5799 C   0  0  0  0  0  0  0  0  0  0  0  0
   17.7110   -8.2194   10.1628 C   0  0  0  0  0  0  0  0  0  0  0  0
   18.0084   -8.2412    7.4765 C   0  0  0  0  0  0  0  0  0  0  0  0
   17.9113   -9.6387    8.0696 C   0  0  0  0  0  0  0  0  0  0  0  0
 31 32  1  0  0  0
 32 29  1  0  0  0
 29 30  1  0  0  0
 29 25  1  0  0  0
 25 21  1  0  0  0
 21 22  2  0  0  0
 21 23  1  0  0  0
 23  1  1  0  0  0
  1  2  2  0  0  0
  2  3  1  0  0  0
  3  4  2  0  0  0
  4  5  1  0  0  0
  5  6  2  0  0  0
  6  7  1  0  0  0
  7  8  1  0  0  0
  8  9  2  0  0  0
  5 10  1  0  0  0
 10 11  2  0  0  0
 11 12  1  0  0  0
 12 13  2  0  0  0
 13 14  1  0  0  0
 14 15  2  0  0  0
 15 17  1  0  0  0
 17 18  1  0  0  0
 13 19  1  0  0  0
 19 20  1  0  0  0
 12 16  1  0  0  0
 25 26  1  0  0  0
  9  1  1  0  0  0
  7  3  1  0  0  0
 15 10  1  0  0  0
 23 24  1  0  0  0
 26 27  1  0  0  0
 26 28  1  0  0  0
M  END
>  <minimizedAffinity>
-7.77673

>  <minimizedRMSD>
1.42105

$$$$
CHEMBL3954429 PubChem-134144635 Z8547023147


 36 40  0  0  0  0  0  0  0  0999 V2000
   12.2909   -5.2207   21.6762 C   0  0  0  0  0  0  0  0  0  0  0  0
   13.4112   -5.6916   22.4006 C   0  0  0  0  0  0  0  0  0  0  0  0
   13.5207   -5.4014   23.6255 O   0  0  0  0  0  0  0  0  0  0  0  0
   14.3702   -6.4667   21.7904 N   0  0  0  0  0  0  0  0  0  0  0  0
   14.2546   -6.8019   20.4672 C   0  0  0  0  0  0  0  0  0  0  0  0
   15.1923   -7.5944   19.8732 N   0  0  0  0  0  0  0  0  0  0  0  0
   15.1208   -7.9196   18.5579 C   0  0  0  0  0  0  0  0  0  0  0  0
   14.0820   -7.4660   17.8069 N   0  0  0  0  0  0  0  0  0  0  0  0
   13.1132   -6.6867   18.3511 C   0  0  0  0  0  0  0  0  0  0  0  0
   13.1678   -6.3371   19.7048 C   0  0  0  0  0  0  0  0  0  0  0  0
   12.1815   -5.5406   20.3052 C   0  0  0  0  0  0  0  0  0  0  0  0
   11.0566   -5.0004   19.4713 C   0  0  0  0  0  0  0  0  0  0  0  0
   15.5500   -6.9500   22.5269 C   0  0  0  0  0  0  0  0  0  0  0  0
   15.1956   -7.5175   23.8850 C   0  0  0  0  0  0  0  0  0  0  0  0
   16.4303   -7.2875   24.7234 C   0  0  0  0  0  0  0  0  0  0  0  0
   17.0781   -6.0282   24.1759 C   0  0  0  0  0  0  0  0  0  0  0  0
   16.5838   -5.8591   22.7501 C   0  0  0  0  0  0  0  0  0  0  0  0
   11.2913   -3.1308   22.2282 O   0  0  0  0  0  0  0  0  0  0  0  0
   11.2710   -4.3831   22.3601 C   0  0  0  0  0  0  0  0  0  0  0  0
   10.2323   -4.9923   23.2387 C   0  0  0  0  0  0  0  0  0  0  0  0
   16.0842   -8.8184   18.0012 N   0  0  0  0  0  0  0  0  0  0  0  0
   16.6112   -9.3694   18.6241 H   0  0  0  0  0  0  0  0  0  0  0  0
   16.3340   -8.9712   16.6014 C   0  0  0  0  0  0  0  0  0  0  0  0
   15.9822   -7.9636   15.6960 C   0  0  0  0  0  0  0  0  0  0  0  0
   16.2671   -8.1290   14.3412 C   0  0  0  0  0  0  0  0  0  0  0  0
   16.8933   -9.2973   13.8875 C   0  0  0  0  0  0  0  0  0  0  0  0
   17.2385  -10.2751   14.8325 C   0  0  0  0  0  0  0  0  0  0  0  0
   16.9625  -10.0888   16.1511 N   0  0  0  0  0  0  0  0  0  0  0  0
   17.1752   -9.4907   12.4900 N   0  0  0  0  0  0  0  0  0  0  0  0
   18.0297  -10.5887   12.0485 C   0  0  0  0  0  0  0  0  0  0  0  0
   18.8934  -10.1394   10.8661 C   0  0  0  0  0  0  0  0  0  0  0  0
   18.1091   -9.5030    9.7979 N   0  0  0  0  0  0  0  0  0  0  0  0
   17.3327   -8.3713   10.3249 C   0  0  0  0  0  0  0  0  0  0  0  0
   16.4047   -8.7884   11.4707 C   0  0  0  0  0  0  0  0  0  0  0  0
   17.2223  -10.4815    9.1775 C   0  0  0  0  0  0  0  0  0  0  0  0
   16.6851   -9.9346    7.8693 C   0  0  0  0  0  0  0  0  0  0  0  0
 18 19  2  0  0  0
 19 20  1  0  0  0
 19  1  1  0  0  0
  1  2  1  0  0  0
  2  3  2  0  0  0
  2  4  1  0  0  0
  4 13  1  0  0  0
 13 14  1  0  0  0
 14 15  1  0  0  0
 15 16  1  0  0  0
 16 17  1  0  0  0
  4  5  1  0  0  0
  5  6  2  0  0  0
  6  7  1  0  0  0
  7 21  1  0  0  0
 21 23  1  0  0  0
 23 24  2  0  0  0
 24 25  1  0  0  0
 25 26  2  0  0  0
 26 29  1  0  0  0
 29 30  1  0  0  0
 30 31  1  0  0  0
 31 32  1  0  0  0
 32 35  1  0  0  0
 35 36  1  0  0  0
 32 33  1  0  0  0
 33 34  1  0  0  0
 26 27  1  0  0  0
 27 28  2  0  0  0
  7  8  2  0  0  0
  8  9  1  0  0  0
  9 10  2  0  0  0
 10 11  1  0  0  0
 11 12  1  0  0  0
 11  1  2  0  0  0
 17 13  1  0  0  0
 10  5  1  0  0  0
 28 23  1  0  0  0
 34 29  1  0  0  0
 21 22  1  0  0  0
M  END
>  <minimizedAffinity>
-7.76498

>  <minimizedRMSD>
1.77777

$$$$
CHEMBL4079321 PubChem-68021765


 35 38  0  0  0  0  0  0  0  0999 V2000
   15.4568   -8.2781   17.3089 C   0  0  0  0  0  0  0  0  0  0  0  0
   14.8816   -8.2750   16.0567 N   0  0  0  0  0  0  0  0  0  0  0  0
   15.4566   -8.8820   14.9751 C   0  0  0  0  0  0  0  0  0  0  0  0
   16.6715   -9.5206   15.1774 C   0  0  0  0  0  0  0  0  0  0  0  0
   17.2657   -9.5441   16.3927 C   0  0  0  0  0  0  0  0  0  0  0  0
   16.6967   -8.9335   17.5017 C   0  0  0  0  0  0  0  0  0  0  0  0
   18.4224  -10.2257   16.3003 N   0  0  0  0  0  0  0  0  0  0  0  0
   18.5147  -10.6077   15.0259 N   0  0  0  0  0  0  0  0  0  0  0  0
   17.4636  -10.1909   14.3271 N   0  0  0  0  0  0  0  0  0  0  0  0
   13.3283   -6.2921   20.5008 C   0  0  0  0  0  0  0  0  0  0  0  0
   12.6719   -6.6965   19.3221 C   0  0  0  0  0  0  0  0  0  0  0  0
   13.3871   -7.3363   18.3075 C   0  0  0  0  0  0  0  0  0  0  0  0
   14.7606   -7.5922   18.4301 C   0  0  0  0  0  0  0  0  0  0  0  0
   15.4166   -7.1862   19.6133 C   0  0  0  0  0  0  0  0  0  0  0  0
   14.7006   -6.5458   20.6275 C   0  0  0  0  0  0  0  0  0  0  0  0
   16.7419   -7.3989   19.8050 F   0  0  0  0  0  0  0  0  0  0  0  0
   11.3461   -6.4802   19.1379 F   0  0  0  0  0  0  0  0  0  0  0  0
   11.9104   -4.3876   21.3837 N   0  0  0  0  0  0  0  0  0  0  0  0
   12.6206   -5.6102   21.6093 C   0  0  0  0  0  0  0  0  0  0  0  0
   12.6472   -6.1102   22.7678 O   0  0  0  0  0  0  0  0  0  0  0  0
   11.9262   -3.9957   20.4807 H   0  0  0  0  0  0  0  0  0  0  0  0
   10.2134   -4.6560   23.1154 C   0  0  0  0  0  0  0  0  0  0  0  0
   11.1662   -3.6966   22.4270 C   0  0  0  0  0  0  0  0  0  0  0  0
   17.2682  -10.4468   12.9050 C   0  0  0  0  0  0  0  0  0  0  0  0
   15.9636   -9.8127   12.4151 C   0  0  0  0  0  0  0  0  0  0  0  0
   15.8041  -10.0301   10.9121 C   0  0  0  0  0  0  0  0  0  0  0  0
   17.0196   -9.6495   10.1855 N   0  0  0  0  0  0  0  0  0  0  0  0
   18.1776   -9.1243   10.9069 C   0  0  0  0  0  0  0  0  0  0  0  0
   18.5098  -10.0201   12.1012 C   0  0  0  0  0  0  0  0  0  0  0  0
   17.0600   -9.7429    8.7565 C   0  0  0  0  0  0  0  0  0  0  0  0
   16.0559  -10.1710    8.1225 O   0  0  0  0  0  0  0  0  0  0  0  0
   18.2144   -9.3558    8.0671 O   0  0  0  0  0  0  0  0  0  0  0  0
   18.2707   -8.1797    7.2696 C   0  0  0  0  0  0  0  0  0  0  0  0
   18.8101   -8.5113    5.8908 C   0  0  0  0  0  0  0  0  0  0  0  0
   19.1859   -7.1704    7.9298 C   0  0  0  0  0  0  0  0  0  0  0  0
 22 23  1  0  0  0
 23 18  1  0  0  0
 18 19  1  0  0  0
 19 20  2  0  0  0
 19 10  1  0  0  0
 10 11  2  0  0  0
 11 12  1  0  0  0
 11 17  1  0  0  0
 12 13  2  0  0  0
 13 14  1  0  0  0
 13  1  1  0  0  0
 14 15  2  0  0  0
 14 16  1  0  0  0
 15 10  1  0  0  0
  1  2  2  0  0  0
  2  3  1  0  0  0
  3  4  2  0  0  0
  4  5  1  0  0  0
  5  6  2  0  0  0
  5  7  1  0  0  0
  6  1  1  0  0  0
  7  8  2  0  0  0
  8  9  1  0  0  0
  9 24  1  0  0  0
  9  4  1  0  0  0
 24 25  1  0  0  0
 25 26  1  0  0  0
 26 27  1  0  0  0
 27 28  1  0  0  0
 27 30  1  0  0  0
 28 29  1  0  0  0
 29 24  1  0  0  0
 30 31  2  0  0  0
 30 32  1  0  0  0
 32 33  1  0  0  0
 33 34  1  0  0  0
 33 35  1  0  0  0
 18 21  1  0  0  0
M  END
>  <minimizedAffinity>
-7.76079

>  <minimizedRMSD>
1.49448

$$$$
CHEMBL3410032 PubChem-68518851


 31 34  0  0  0  0  0  0  0  0999 V2000
   14.3335   -7.5049   22.2615 C   0  0  0  0  0  0  0  0  0  0  0  0
   13.6906   -6.2996   21.9514 C   0  0  0  0  0  0  0  0  0  0  0  0
   13.8553   -5.7450   20.6754 C   0  0  0  0  0  0  0  0  0  0  0  0
   14.6188   -6.4076   19.7109 C   0  0  0  0  0  0  0  0  0  0  0  0
   15.2408   -7.6275   20.0141 C   0  0  0  0  0  0  0  0  0  0  0  0
   15.0973   -8.1671   21.2963 C   0  0  0  0  0  0  0  0  0  0  0  0
   12.9368   -5.5850   22.9970 C   0  0  0  0  0  0  0  0  0  0  0  0
   13.2760   -5.7793   24.3068 N   0  0  0  0  0  0  0  0  0  0  0  0
   12.6452   -5.1154   25.3229 C   0  0  0  0  0  0  0  0  0  0  0  0
   11.6424   -4.2312   25.0535 N   0  0  0  0  0  0  0  0  0  0  0  0
   11.2841   -4.0305   23.7631 C   0  0  0  0  0  0  0  0  0  0  0  0
   11.8926   -4.6850   22.7305 C   0  0  0  0  0  0  0  0  0  0  0  0
   11.2151   -4.2893   21.5935 C   0  0  0  0  0  0  0  0  0  0  0  0
   10.2337   -3.3970   22.0084 C   0  0  0  0  0  0  0  0  0  0  0  0
   10.2808   -3.2357   23.3533 N   0  0  0  0  0  0  0  0  0  0  0  0
   11.3794   -4.7786   20.1977 C   0  0  0  0  0  0  0  0  0  0  0  0
    9.7055   -2.6615   23.9088 H   0  0  0  0  0  0  0  0  0  0  0  0
   16.0308   -8.3384   19.0508 N   0  0  0  0  0  0  0  0  0  0  0  0
   15.8656   -8.3284   17.6272 C   0  0  0  0  0  0  0  0  0  0  0  0
   14.9485   -7.6499   17.0911 O   0  0  0  0  0  0  0  0  0  0  0  0
   16.7636   -9.1061   16.8255 N   0  0  0  0  0  0  0  0  0  0  0  0
   16.7640   -8.8917   19.4050 H   0  0  0  0  0  0  0  0  0  0  0  0
   17.4569   -9.6129   17.3069 H   0  0  0  0  0  0  0  0  0  0  0  0
   16.7594   -9.2243   15.3960 C   0  0  0  0  0  0  0  0  0  0  0  0
   17.6947  -10.0680   14.7882 C   0  0  0  0  0  0  0  0  0  0  0  0
   17.7218  -10.2093   13.3980 C   0  0  0  0  0  0  0  0  0  0  0  0
   16.8090   -9.5046   12.5971 C   0  0  0  0  0  0  0  0  0  0  0  0
   15.8737   -8.6610   13.2039 C   0  0  0  0  0  0  0  0  0  0  0  0
   15.8480   -8.5208   14.5943 C   0  0  0  0  0  0  0  0  0  0  0  0
   16.8099   -9.6240   11.2046 O   0  0  0  0  0  0  0  0  0  0  0  0
   17.9340   -9.2817   10.4055 C   0  0  0  0  0  0  0  0  0  0  0  0
  1  2  2  0  0  0
  2  3  1  0  0  0
  3  4  2  0  0  0
  4  5  1  0  0  0
  5  6  2  0  0  0
  5 18  1  0  0  0
 18 19  1  0  0  0
 19 20  2  0  0  0
 19 21  1  0  0  0
 21 24  1  0  0  0
 24 25  2  0  0  0
 25 26  1  0  0  0
 26 27  2  0  0  0
 27 28  1  0  0  0
 28 29  2  0  0  0
 27 30  1  0  0  0
 30 31  1  0  0  0
  2  7  1  0  0  0
  7  8  2  0  0  0
  8  9  1  0  0  0
  9 10  2  0  0  0
 10 11  1  0  0  0
 11 12  2  0  0  0
 12 13  1  0  0  0
 13 14  2  0  0  0
 14 15  1  0  0  0
 13 16  1  0  0  0
  6  1  1  0  0  0
 29 24  1  0  0  0
 12  7  1  0  0  0
 15 11  1  0  0  0
 18 22  1  0  0  0
 21 23  1  0  0  0
 15 17  1  0  0  0
M  END
>  <minimizedAffinity>
-7.75788

>  <minimizedRMSD>
1.63205

$$$$
CHEMBL4104561 PubChem-137658427


 34 37  0  0  0  0  0  0  0  0999 V2000
   16.6571   -9.5533   17.8285 N   0  0  0  0  0  0  0  0  0  0  0  0
   15.7780   -8.4851   17.4400 C   0  0  0  0  0  0  0  0  0  0  0  0
   15.6383   -8.1787   16.2255 O   0  0  0  0  0  0  0  0  0  0  0  0
   16.7165   -9.7368   18.7939 H   0  0  0  0  0  0  0  0  0  0  0  0
   15.0371   -7.7465   18.4765 C   0  0  0  0  0  0  0  0  0  0  0  0
   15.6486   -7.3966   20.0174 S   0  0  0  0  0  0  0  0  0  0  0  0
   14.2721   -6.5900   20.5304 C   0  0  0  0  0  0  0  0  0  0  0  0
   14.0698   -6.0179   21.7388 N   0  0  0  0  0  0  0  0  0  0  0  0
   12.9087   -5.4085   21.9947 N   0  0  0  0  0  0  0  0  0  0  0  0
   11.9072   -5.3423   21.0677 C   0  0  0  0  0  0  0  0  0  0  0  0
   12.0856   -5.9294   19.7958 C   0  0  0  0  0  0  0  0  0  0  0  0
   13.3106   -6.5670   19.5394 C   0  0  0  0  0  0  0  0  0  0  0  0
   13.7404   -7.2229   18.3700 C   0  0  0  0  0  0  0  0  0  0  0  0
   12.9443   -7.3463   17.1936 N   0  0  0  0  0  0  0  0  0  0  0  0
   11.0011   -5.8677   18.7672 C   0  0  0  0  0  0  0  0  0  0  0  0
   10.6396   -4.6440   21.4291 C   0  0  0  0  0  0  0  0  0  0  0  0
   12.0388   -6.9606   17.1694 H   0  0  0  0  0  0  0  0  0  0  0  0
   13.3000   -7.8171   16.4056 H   0  0  0  0  0  0  0  0  0  0  0  0
   17.4581  -10.0836   14.7817 N   0  0  0  0  0  0  0  0  0  0  0  0
   16.7137  -10.8790   15.7715 C   0  0  0  0  0  0  0  0  0  0  0  0
   17.4761  -10.4023   16.9580 C   0  0  0  0  0  0  0  0  0  0  0  0
   18.2206   -9.6040   15.9458 C   0  0  0  0  0  0  0  0  0  0  0  0
   17.3816   -9.4357   10.6054 C   0  0  0  0  0  0  0  0  0  0  0  0
   16.2727   -9.0968   11.3886 C   0  0  0  0  0  0  0  0  0  0  0  0
   16.2980   -9.3108   12.7698 C   0  0  0  0  0  0  0  0  0  0  0  0
   17.4336   -9.8622   13.3738 C   0  0  0  0  0  0  0  0  0  0  0  0
   18.5439  -10.1981   12.5910 C   0  0  0  0  0  0  0  0  0  0  0  0
   18.5185   -9.9839   11.2100 C   0  0  0  0  0  0  0  0  0  0  0  0
   17.8595  -10.3723    8.1542 O   0  0  0  0  0  0  0  0  0  0  0  0
   17.3531   -9.1535    8.8741 S   0  0  0  0  0  0  0  0  0  0  0  0
   15.9424   -8.8809    8.4331 O   0  0  0  0  0  0  0  0  0  0  0  0
   18.3823   -7.7566    8.4801 C   0  0  0  0  0  0  0  0  0  0  0  0
   19.0761   -8.0050    7.3112 F   0  0  0  0  0  0  0  0  0  0  0  0
   19.2777   -7.5333    9.5087 F   0  0  0  0  0  0  0  0  0  0  0  0
 29 30  2  0  0  0
 30 31  2  0  0  0
 30 23  1  0  0  0
 23 24  2  0  0  0
 24 25  1  0  0  0
 25 26  2  0  0  0
 26 19  1  0  0  0
 19 20  1  0  0  0
 20 21  1  0  0  0
 21  1  1  0  0  0
  1  2  1  0  0  0
  2  3  2  0  0  0
  2  5  1  0  0  0
  5  6  1  0  0  0
  6  7  1  0  0  0
  7  8  2  0  0  0
  8  9  1  0  0  0
  9 10  2  0  0  0
 10 11  1  0  0  0
 11 12  2  0  0  0
 12 13  1  0  0  0
 13 14  1  0  0  0
 11 15  1  0  0  0
 10 16  1  0  0  0
 21 22  1  0  0  0
 26 27  1  0  0  0
 27 28  2  0  0  0
 30 32  1  0  0  0
 32 33  1  0  0  0
 32 34  1  0  0  0
 28 23  1  0  0  0
 22 19  1  0  0  0
 13  5  2  0  0  0
 12  7  1  0  0  0
  1  4  1  0  0  0
 14 17  1  0  0  0
 14 18  1  0  0  0
M  END
>  <minimizedAffinity>
-7.75748

>  <minimizedRMSD>
1.72639

$$$$
CHEMBL4567023 23983772 CSC027931248 MCULE-7750307416 MolPort-004-225-825 PubChem-16390581 Z19257685 ZINC000023983772 ZINC23983772


 35 39  0  0  0  0  0  0  0  0999 V2000
   13.6401   -7.5183   19.6877 N   0  0  0  0  0  0  0  0  0  0  0  0
   14.8601   -7.9577   19.3285 C   0  0  0  0  0  0  0  0  0  0  0  0
   15.8331   -7.3290   20.0130 N   0  0  0  0  0  0  0  0  0  0  0  0
   15.2374   -6.4675   20.8230 N   0  0  0  0  0  0  0  0  0  0  0  0
   13.9084   -6.5802   20.6255 C   0  0  0  0  0  0  0  0  0  0  0  0
   12.3023   -5.7861   17.7496 C   0  0  0  0  0  0  0  0  0  0  0  0
   11.7104   -7.0753   18.2058 C   0  0  0  0  0  0  0  0  0  0  0  0
   10.4629   -7.4561   17.7039 C   0  0  0  0  0  0  0  0  0  0  0  0
    9.8823   -8.6629   18.1035 C   0  0  0  0  0  0  0  0  0  0  0  0
   10.5531   -9.4987   18.9989 C   0  0  0  0  0  0  0  0  0  0  0  0
   11.7995   -9.1237   19.5068 C   0  0  0  0  0  0  0  0  0  0  0  0
   12.3810   -7.9083   19.1234 C   0  0  0  0  0  0  0  0  0  0  0  0
   12.9146   -5.7727   21.3723 C   0  0  0  0  0  0  0  0  0  0  0  0
   12.4596   -4.5607   20.8373 C   0  0  0  0  0  0  0  0  0  0  0  0
   11.5258   -3.7888   21.5305 C   0  0  0  0  0  0  0  0  0  0  0  0
   11.0532   -4.2407   22.7636 C   0  0  0  0  0  0  0  0  0  0  0  0
   11.5059   -5.4155   23.2785 N   0  0  0  0  0  0  0  0  0  0  0  0
   12.4176   -6.1779   22.6177 C   0  0  0  0  0  0  0  0  0  0  0  0
   15.1751   -9.2177   18.0933 S   0  0  0  0  0  0  0  0  0  0  0  0
   16.0539   -8.0725   16.9845 C   0  0  0  0  0  0  0  0  0  0  0  0
   17.1743   -8.7807   16.2842 C   0  0  0  0  0  0  0  0  0  0  0  0
   18.1864   -9.1299   16.9541 O   0  0  0  0  0  0  0  0  0  0  0  0
   17.1087   -9.0581   14.8746 N   0  0  0  0  0  0  0  0  0  0  0  0
   18.1967   -9.8146   14.2383 C   0  0  0  0  0  0  0  0  0  0  0  0
   17.7121  -10.4726   12.9465 C   0  0  0  0  0  0  0  0  0  0  0  0
   17.0704   -9.4680   12.1028 N   0  0  0  0  0  0  0  0  0  0  0  0
   15.8291   -9.0927   12.7625 C   0  0  0  0  0  0  0  0  0  0  0  0
   16.1394   -8.3257   14.0462 C   0  0  0  0  0  0  0  0  0  0  0  0
   16.6970  -10.1052   10.8449 C   0  0  0  0  0  0  0  0  0  0  0  0
   17.3585   -9.4149    9.6928 C   0  0  0  0  0  0  0  0  0  0  0  0
   16.9719   -9.7180    8.3819 C   0  0  0  0  0  0  0  0  0  0  0  0
   17.5727   -9.0571    7.2985 C   0  0  0  0  0  0  0  0  0  0  0  0
   18.5631   -8.0950    7.5231 C   0  0  0  0  0  0  0  0  0  0  0  0
   18.9491   -7.7911    8.8334 C   0  0  0  0  0  0  0  0  0  0  0  0
   18.3446   -8.4461    9.9161 C   0  0  0  0  0  0  0  0  0  0  0  0
  6  7  1  0  0  0
  7  8  2  0  0  0
  8  9  1  0  0  0
  9 10  2  0  0  0
 10 11  1  0  0  0
 11 12  2  0  0  0
 12  1  1  0  0  0
 12  7  1  0  0  0
  1  2  1  0  0  0
  2 19  1  0  0  0
  2  3  2  0  0  0
 19 20  1  0  0  0
 20 21  1  0  0  0
 21 22  2  0  0  0
 21 23  1  0  0  0
 23 24  1  0  0  0
 24 25  1  0  0  0
 25 26  1  0  0  0
 26 29  1  0  0  0
 26 27  1  0  0  0
 29 30  1  0  0  0
 30 31  2  0  0  0
 31 32  1  0  0  0
 32 33  2  0  0  0
 33 34  1  0  0  0
 34 35  2  0  0  0
 35 30  1  0  0  0
 27 28  1  0  0  0
 28 23  1  0  0  0
  3  4  1  0  0  0
  4  5  2  0  0  0
  5 13  1  0  0  0
  5  1  1  0  0  0
 13 14  2  0  0  0
 14 15  1  0  0  0
 15 16  2  0  0  0
 16 17  1  0  0  0
 17 18  2  0  0  0
 18 13  1  0  0  0
M  END
>  <minimizedAffinity>
-7.75561

>  <minimizedRMSD>
1.71800

$$$$
CHEMBL580989


 30 32  0  0  0  0  0  0  0  0999 V2000
   16.9794   -9.7098   11.8364 C   0  0  0  0  0  0  0  0  0  0  0  0
   15.9713   -8.7812   12.1398 C   0  0  0  0  0  0  0  0  0  0  0  0
   15.7024   -8.4377   13.4669 C   0  0  0  0  0  0  0  0  0  0  0  0
   16.4374   -9.0173   14.5130 C   0  0  0  0  0  0  0  0  0  0  0  0
   17.4530   -9.9532   14.2041 C   0  0  0  0  0  0  0  0  0  0  0  0
   17.7149  -10.2906   12.8735 C   0  0  0  0  0  0  0  0  0  0  0  0
   18.1772  -10.5271   15.1996 N   0  0  0  0  0  0  0  0  0  0  0  0
   17.9539  -10.2262   16.5048 C   0  0  0  0  0  0  0  0  0  0  0  0
   18.7673  -10.8753   17.5654 C   0  0  0  0  0  0  0  0  0  0  0  0
   16.9624   -9.3090   16.8532 C   0  0  0  0  0  0  0  0  0  0  0  0
   16.1869   -8.6888   15.8614 C   0  0  0  0  0  0  0  0  0  0  0  0
   15.2472   -7.8228   16.1491 N   0  0  0  0  0  0  0  0  0  0  0  0
   18.8806  -11.1764   14.9695 H   0  0  0  0  0  0  0  0  0  0  0  0
   14.8437   -7.3625   17.4230 N   0  0  0  0  0  0  0  0  0  0  0  0
   15.0148   -8.0048   18.5359 C   0  0  0  0  0  0  0  0  0  0  0  0
   14.5724   -7.4744   19.8368 C   0  0  0  0  0  0  0  0  0  0  0  0
   15.5510   -6.9034   20.6551 C   0  0  0  0  0  0  0  0  0  0  0  0
   15.2277   -6.3713   21.9120 C   0  0  0  0  0  0  0  0  0  0  0  0
   13.9007   -6.4113   22.3579 C   0  0  0  0  0  0  0  0  0  0  0  0
   12.9144   -6.9829   21.5412 C   0  0  0  0  0  0  0  0  0  0  0  0
   13.2330   -7.5168   20.2825 C   0  0  0  0  0  0  0  0  0  0  0  0
   12.2360   -8.0841   19.4793 O   0  0  0  0  0  0  0  0  0  0  0  0
   11.3044   -7.3067   18.7390 C   0  0  0  0  0  0  0  0  0  0  0  0
   13.5842   -5.8788   23.6125 O   0  0  0  0  0  0  0  0  0  0  0  0
   12.4783   -5.0114   23.8235 C   0  0  0  0  0  0  0  0  0  0  0  0
   16.2076   -5.7998   22.7311 O   0  0  0  0  0  0  0  0  0  0  0  0
   17.5084   -6.3537   22.8754 C   0  0  0  0  0  0  0  0  0  0  0  0
   17.2693  -10.0714   10.5180 O   0  0  0  0  0  0  0  0  0  0  0  0
   16.8166   -9.1507    8.3519 C   0  0  0  0  0  0  0  0  0  0  0  0
   16.3023  -10.0220    9.4779 C   0  0  0  0  0  0  0  0  0  0  0  0
 29 30  1  0  0  0
 30 28  1  0  0  0
 28  1  1  0  0  0
  1  2  2  0  0  0
  2  3  1  0  0  0
  3  4  2  0  0  0
  4  5  1  0  0  0
  5  6  2  0  0  0
  5  7  1  0  0  0
  7  8  1  0  0  0
  8  9  1  0  0  0
  8 10  2  0  0  0
 10 11  1  0  0  0
 11 12  2  0  0  0
 12 14  1  0  0  0
 14 15  2  0  0  0
 15 16  1  0  0  0
 16 17  2  0  0  0
 17 18  1  0  0  0
 18 19  2  0  0  0
 19 20  1  0  0  0
 20 21  2  0  0  0
 21 22  1  0  0  0
 22 23  1  0  0  0
 19 24  1  0  0  0
 24 25  1  0  0  0
 18 26  1  0  0  0
 26 27  1  0  0  0
  6  1  1  0  0  0
 21 16  1  0  0  0
 11  4  1  0  0  0
  7 13  1  0  0  0
M  END
>  <minimizedAffinity>
-7.75429

>  <minimizedRMSD>
1.66863

$$$$
CHEMBL292392 PubChem-44300784


 39 40  0  0  0  0  0  0  0  0999 V2000
   11.1804   -4.3043   20.6738 C   0  0  0  0  0  0  0  0  0  0  0  0
   12.3429   -5.1105   21.1442 C   0  0  0  0  0  0  0  0  0  0  0  0
   12.9340   -4.8123   22.3645 C   0  0  0  0  0  0  0  0  0  0  0  0
   13.9954   -5.5358   22.8160 N   0  0  0  0  0  0  0  0  0  0  0  0
   14.4978   -6.5639   22.0673 C   0  0  0  0  0  0  0  0  0  0  0  0
   15.4835   -7.2300   22.4945 O   0  0  0  0  0  0  0  0  0  0  0  0
   13.9381   -6.8719   20.8544 N   0  0  0  0  0  0  0  0  0  0  0  0
   12.8643   -6.1635   20.3878 C   0  0  0  0  0  0  0  0  0  0  0  0
   12.3390   -6.4568   19.2772 O   0  0  0  0  0  0  0  0  0  0  0  0
   14.6075   -5.1932   24.1011 C   0  0  0  0  0  0  0  0  0  0  0  0
   14.9543   -3.7160   24.1640 C   0  0  0  0  0  0  0  0  0  0  0  0
   14.5119   -3.3098   25.5358 C   0  0  0  0  0  0  0  0  0  0  0  0
   13.4258   -4.3327   25.8150 C   0  0  0  0  0  0  0  0  0  0  0  0
   13.7560   -5.5381   25.1715 O   0  0  0  0  0  0  0  0  0  0  0  0
   13.1640   -4.5540   27.2992 C   0  0  0  0  0  0  0  0  0  0  0  0
   12.2942   -5.6305   27.4720 O   0  0  0  0  0  0  0  0  0  0  0  0
   11.4538   -5.4420   27.0259 H   0  0  0  0  0  0  0  0  0  0  0  0
   15.6256   -3.4538   26.4675 N   0  0  0  0  0  0  0  0  0  0  0  0
   16.6649   -2.8136   26.3064 N   0  0  0  0  0  0  0  0  0  0  0  0
   17.7031   -2.1742   26.1458 N   0  0  0  0  0  0  0  0  0  0  0  0
   14.4947   -7.9611   20.0470 C   0  0  0  0  0  0  0  0  0  0  0  0
   15.5728   -7.4410   19.1020 C   0  0  0  0  0  0  0  0  0  0  0  0
   15.3894   -7.9833   17.7257 C   0  0  0  0  0  0  0  0  0  0  0  0
   14.3998   -7.6122   17.0388 O   0  0  0  0  0  0  0  0  0  0  0  0
   16.3377   -8.9126   17.1937 N   0  0  0  0  0  0  0  0  0  0  0  0
   17.1010   -9.1809   17.7546 H   0  0  0  0  0  0  0  0  0  0  0  0
   16.2210   -9.4782   15.8577 C   0  0  0  0  0  0  0  0  0  0  0  0
   16.7312   -8.4912   14.8255 C   0  0  0  0  0  0  0  0  0  0  0  0
   16.1872   -8.8644   13.4590 C   0  0  0  0  0  0  0  0  0  0  0  0
   17.2089   -9.6746   12.6802 C   0  0  0  0  0  0  0  0  0  0  0  0
   16.7783   -9.8211   11.2331 C   0  0  0  0  0  0  0  0  0  0  0  0
   17.7847   -9.1291   10.3333 C   0  0  0  0  0  0  0  0  0  0  0  0
   17.6591   -9.6396    8.9064 C   0  0  0  0  0  0  0  0  0  0  0  0
   17.4115   -8.5001    7.9252 C   0  0  0  0  0  0  0  0  0  0  0  0
   18.6963   -7.7414    7.6123 C   0  0  0  0  0  0  0  0  0  0  0  0
   19.1256   -7.9469    6.1670 C   0  0  0  0  0  0  0  0  0  0  0  0
   19.9759   -6.8496    5.7360 N   0  0  0  0  0  0  0  0  0  0  0  0
   19.4602   -5.9723    5.8052 H   0  0  0  0  0  0  0  0  0  0  0  0
   20.2616   -7.0006    4.7685 H   0  0  0  0  0  0  0  0  0  0  0  0
  1  2  1  0  0  0
  2  3  2  0  0  0
  3  4  1  0  0  0
  4  5  1  0  0  0
 10  4  1  0  0  0
 10 11  1  0  0  0
 11 12  1  0  0  0
 12 18  1  0  0  0
 12 13  1  0  0  0
 18 19  2  0  0  0
 19 20  2  0  0  0
 13 15  1  0  0  0
 13 14  1  0  0  0
 15 16  1  0  0  0
 14 10  1  0  0  0
  5  6  2  0  0  0
  5  7  1  0  0  0
  7 21  1  0  0  0
  7  8  1  0  0  0
 21 22  1  0  0  0
 22 23  1  0  0  0
 23 24  2  0  0  0
 23 25  1  0  0  0
 25 27  1  0  0  0
 27 28  1  0  0  0
 28 29  1  0  0  0
 29 30  1  0  0  0
 30 31  1  0  0  0
 31 32  1  0  0  0
 32 33  1  0  0  0
 33 34  1  0  0  0
 34 35  1  0  0  0
 35 36  1  0  0  0
 36 37  1  0  0  0
  8  9  2  0  0  0
  8  2  1  0  0  0
 16 17  1  0  0  0
 25 26  1  0  0  0
 37 38  1  0  0  0
 37 39  1  0  0  0
M  CHG 1  19   1
M  CHG 1  20  -1
M  END
>  <minimizedAffinity>
-7.74575

>  <minimizedRMSD>
1.99539

$$$$
CHEMBL1471561 2892025 LN00507821 MCULE-6476556725 MolPort-002-214-711 PubChem-2244181 ZINC000002892025 ZINC02892025


 24 25  0  0  0  0  0  0  0  0999 V2000
   13.6250   -6.3231   21.1385 C   0  0  0  0  0  0  0  0  0  0  0  0
   14.8927   -6.8932   20.9806 C   0  0  0  0  0  0  0  0  0  0  0  0
   15.2872   -7.4058   19.7445 C   0  0  0  0  0  0  0  0  0  0  0  0
   14.4294   -7.3621   18.6404 C   0  0  0  0  0  0  0  0  0  0  0  0
   13.1424   -6.7873   18.7875 C   0  0  0  0  0  0  0  0  0  0  0  0
   12.7599   -6.2753   20.0392 C   0  0  0  0  0  0  0  0  0  0  0  0
   13.1989   -5.7794   22.4429 C   0  0  0  0  0  0  0  0  0  0  0  0
   11.9818   -5.8086   22.7719 O   0  0  0  0  0  0  0  0  0  0  0  0
   14.3877   -6.0686   24.5908 C   0  0  0  0  0  0  0  0  0  0  0  0
   14.1908   -5.1728   23.3830 C   0  0  0  0  0  0  0  0  0  0  0  0
   12.2587   -6.7274   17.7038 O   0  0  0  0  0  0  0  0  0  0  0  0
   10.9845   -7.3577   17.7076 C   0  0  0  0  0  0  0  0  0  0  0  0
   14.9100   -7.9009   17.4379 O   0  0  0  0  0  0  0  0  0  0  0  0
   16.0746   -8.7061   17.3172 C   0  0  0  0  0  0  0  0  0  0  0  0
   16.3179   -9.0230   15.8850 C   0  0  0  0  0  0  0  0  0  0  0  0
   17.0550  -10.1582   15.5354 C   0  0  0  0  0  0  0  0  0  0  0  0
   17.3049  -10.4427   14.1897 C   0  0  0  0  0  0  0  0  0  0  0  0
   16.8240   -9.5908   13.1843 C   0  0  0  0  0  0  0  0  0  0  0  0
   16.0934   -8.4493   13.5430 C   0  0  0  0  0  0  0  0  0  0  0  0
   15.8435   -8.1647   14.8886 C   0  0  0  0  0  0  0  0  0  0  0  0
   17.0836   -9.8861   11.7659 C   0  0  0  0  0  0  0  0  0  0  0  0
   18.2292   -9.6802   11.2771 O   0  0  0  0  0  0  0  0  0  0  0  0
   16.0579  -10.3942   10.9649 O   0  0  0  0  0  0  0  0  0  0  0  0
   16.0116  -10.1586    9.5657 C   0  0  0  0  0  0  0  0  0  0  0  0
  9 10  1  0  0  0
 10  7  1  0  0  0
  7  8  2  0  0  0
  7  1  1  0  0  0
  1  2  2  0  0  0
  2  3  1  0  0  0
  3  4  2  0  0  0
  4 13  1  0  0  0
  4  5  1  0  0  0
 13 14  1  0  0  0
 14 15  1  0  0  0
 15 16  2  0  0  0
 16 17  1  0  0  0
 17 18  2  0  0  0
 18 19  1  0  0  0
 18 21  1  0  0  0
 19 20  2  0  0  0
 20 15  1  0  0  0
 21 22  2  0  0  0
 21 23  1  0  0  0
 23 24  1  0  0  0
  5 11  1  0  0  0
  5  6  2  0  0  0
 11 12  1  0  0  0
  6  1  1  0  0  0
M  END
>  <minimizedAffinity>
-7.74430

>  <minimizedRMSD>
1.86605

$$$$
CHEMBL106795 PubChem-11078726


 27 28  0  0  0  0  0  0  0  0999 V2000
   14.8422   -7.4035   19.3638 C   0  0  0  0  0  0  0  0  0  0  0  0
   15.9152   -8.0508   19.5052 O   0  0  0  0  0  0  0  0  0  0  0  0
   14.2760   -7.1981   18.0582 N   0  0  0  0  0  0  0  0  0  0  0  0
   13.4371   -6.6852   18.0088 H   0  0  0  0  0  0  0  0  0  0  0  0
   12.2567   -5.6979   21.5449 C   0  0  0  0  0  0  0  0  0  0  0  0
   12.9135   -6.2270   20.4216 C   0  0  0  0  0  0  0  0  0  0  0  0
   14.1616   -6.8516   20.5488 C   0  0  0  0  0  0  0  0  0  0  0  0
   14.7536   -6.9448   21.8158 C   0  0  0  0  0  0  0  0  0  0  0  0
   14.1070   -6.4212   22.9378 C   0  0  0  0  0  0  0  0  0  0  0  0
   12.8626   -5.7994   22.8050 C   0  0  0  0  0  0  0  0  0  0  0  0
   12.2312   -5.2833   23.9297 O   0  0  0  0  0  0  0  0  0  0  0  0
   12.6399   -5.3534   24.7699 H   0  0  0  0  0  0  0  0  0  0  0  0
   10.2850   -5.0205   20.2104 C   0  0  0  0  0  0  0  0  0  0  0  0
   11.0107   -5.0720   21.4313 O   0  0  0  0  0  0  0  0  0  0  0  0
   14.8145   -7.6654   16.8436 N   0  0  0  0  0  0  0  0  0  0  0  0
   15.8709   -8.4124   16.7707 C   0  0  0  0  0  0  0  0  0  0  0  0
   16.3946   -8.8748   15.4816 C   0  0  0  0  0  0  0  0  0  0  0  0
   17.6364   -9.5158   15.4431 C   0  0  0  0  0  0  0  0  0  0  0  0
   18.1591   -9.9665   14.2273 C   0  0  0  0  0  0  0  0  0  0  0  0
   17.4461   -9.7812   13.0383 C   0  0  0  0  0  0  0  0  0  0  0  0
   16.1987   -9.1372   13.0777 C   0  0  0  0  0  0  0  0  0  0  0  0
   15.6759   -8.6865   14.2927 C   0  0  0  0  0  0  0  0  0  0  0  0
   18.0012  -10.2461   11.8391 O   0  0  0  0  0  0  0  0  0  0  0  0
   17.7358   -9.6741   10.5601 C   0  0  0  0  0  0  0  0  0  0  0  0
   16.5274  -10.1395   10.0734 F   0  0  0  0  0  0  0  0  0  0  0  0
   18.7418  -10.0377    9.6858 F   0  0  0  0  0  0  0  0  0  0  0  0
   17.6998   -8.2945   10.6552 F   0  0  0  0  0  0  0  0  0  0  0  0
 13 14  1  0  0  0
 14  5  1  0  0  0
  5  6  2  0  0  0
  6  7  1  0  0  0
  7  1  1  0  0  0
  7  8  2  0  0  0
  1  2  2  0  0  0
  1  3  1  0  0  0
  3 15  1  0  0  0
 15 16  2  0  0  0
 16 17  1  0  0  0
 17 18  2  0  0  0
 18 19  1  0  0  0
 19 20  2  0  0  0
 20 23  1  0  0  0
 20 21  1  0  0  0
 23 24  1  0  0  0
 24 25  1  0  0  0
 24 26  1  0  0  0
 24 27  1  0  0  0
 21 22  2  0  0  0
 22 17  1  0  0  0
  8  9  1  0  0  0
  9 10  2  0  0  0
 10 11  1  0  0  0
 10  5  1  0  0  0
  3  4  1  0  0  0
 11 12  1  0  0  0
M  END
>  <minimizedAffinity>
-7.74261

>  <minimizedRMSD>
1.82422

$$$$
CHEMBL489705 PubChem-25232172


 25 26  0  0  0  0  0  0  0  0999 V2000
   15.5321   -8.1521   16.5038 O   0  0  0  0  0  0  0  0  0  0  0  0
   15.2596   -8.0025   17.8624 C   0  0  0  0  0  0  0  0  0  0  0  0
   13.8806   -7.3953   18.0377 C   0  0  0  0  0  0  0  0  0  0  0  0
   13.0136   -5.8392   19.7996 C   0  0  0  0  0  0  0  0  0  0  0  0
   13.0932   -5.6232   21.1287 N   0  0  0  0  0  0  0  0  0  0  0  0
   13.9002   -6.6215   21.5474 C   0  0  0  0  0  0  0  0  0  0  0  0
   14.3032   -7.4243   20.4957 C   0  0  0  0  0  0  0  0  0  0  0  0
   13.7208   -6.9116   19.3993 N   0  0  0  0  0  0  0  0  0  0  0  0
   14.2861   -6.8053   22.9112 N   0  0  0  0  0  0  0  0  0  0  0  0
   13.9826   -5.9524   23.7699 O   0  0  0  0  0  0  0  0  0  0  0  0
   14.9950   -7.9226   23.2869 O   0  0  0  0  0  0  0  0  0  0  0  0
   11.0009   -4.5327   19.2735 C   0  0  0  0  0  0  0  0  0  0  0  0
   12.2800   -5.0377   18.9242 O   0  0  0  0  0  0  0  0  0  0  0  0
   16.4991   -9.1566   16.4489 C   0  0  0  0  0  0  0  0  0  0  0  0
   16.8783   -9.4214   15.0333 C   0  0  0  0  0  0  0  0  0  0  0  0
   16.0420   -9.0124   13.9886 C   0  0  0  0  0  0  0  0  0  0  0  0
   16.4096   -9.2563   12.6624 C   0  0  0  0  0  0  0  0  0  0  0  0
   17.6187   -9.9097   12.3703 C   0  0  0  0  0  0  0  0  0  0  0  0
   18.4515  -10.3114   13.4205 C   0  0  0  0  0  0  0  0  0  0  0  0
   18.0843  -10.0675   14.7474 C   0  0  0  0  0  0  0  0  0  0  0  0
   18.0185  -10.1720   11.0537 O   0  0  0  0  0  0  0  0  0  0  0  0
   17.5072   -9.4891    9.9111 C   0  0  0  0  0  0  0  0  0  0  0  0
   16.1418   -9.6879    9.8109 F   0  0  0  0  0  0  0  0  0  0  0  0
   18.1178   -9.9877    8.7768 F   0  0  0  0  0  0  0  0  0  0  0  0
   17.7751   -8.1352   10.0077 F   0  0  0  0  0  0  0  0  0  0  0  0
 12 13  1  0  0  0
 13  4  1  0  0  0
  4  5  2  0  0  0
  5  6  1  0  0  0
  6  9  1  0  0  0
  6  7  2  0  0  0
  9 10  2  0  0  0
  9 11  1  0  0  0
  7  8  1  0  0  0
  8  3  1  0  0  0
  8  4  1  0  0  0
  3  2  1  0  0  0
  2  1  1  0  0  0
  1 14  1  0  0  0
 14 15  1  0  0  0
 15 16  2  0  0  0
 16 17  1  0  0  0
 17 18  2  0  0  0
 18 21  1  0  0  0
 18 19  1  0  0  0
 21 22  1  0  0  0
 22 23  1  0  0  0
 22 24  1  0  0  0
 22 25  1  0  0  0
 19 20  2  0  0  0
 20 15  1  0  0  0
M  CHG 1   9   1
M  CHG 1  11  -1
M  END
>  <minimizedAffinity>
-7.74065

>  <minimizedRMSD>
1.91699

$$$$
CHEMBL5194421


 34 36  0  0  0  0  0  0  0  0999 V2000
   16.7711   -7.4682   14.8719 N   0  0  0  0  0  0  0  0  0  0  0  0
   16.8315   -8.7584   15.4105 N   0  0  0  0  0  0  0  0  0  0  0  0
   16.3533   -9.1784   16.5871 C   0  0  0  0  0  0  0  0  0  0  0  0
   16.5925  -10.4941   16.7683 N   0  0  0  0  0  0  0  0  0  0  0  0
   17.2346  -10.9187   15.6845 N   0  0  0  0  0  0  0  0  0  0  0  0
   17.3723   -9.8561   14.8649 C   0  0  0  0  0  0  0  0  0  0  0  0
   16.3418   -6.7423   15.3798 H   0  0  0  0  0  0  0  0  0  0  0  0
   17.1580   -7.2864   13.9850 H   0  0  0  0  0  0  0  0  0  0  0  0
   18.1804   -9.9142   13.2677 S   0  0  0  0  0  0  0  0  0  0  0  0
   16.6982   -9.3388   12.3825 C   0  0  0  0  0  0  0  0  0  0  0  0
   16.6729   -9.8875   10.9921 C   0  0  0  0  0  0  0  0  0  0  0  0
   16.0464  -10.9593   10.7754 O   0  0  0  0  0  0  0  0  0  0  0  0
   17.3818   -9.2089    9.8888 C   0  0  0  0  0  0  0  0  0  0  0  0
   18.5415   -8.4594   10.1359 C   0  0  0  0  0  0  0  0  0  0  0  0
   19.2076   -7.8200    9.0871 C   0  0  0  0  0  0  0  0  0  0  0  0
   18.7218   -7.9214    7.7740 C   0  0  0  0  0  0  0  0  0  0  0  0
   17.5657   -8.6675    7.5264 C   0  0  0  0  0  0  0  0  0  0  0  0
   16.8996   -9.3069    8.5757 C   0  0  0  0  0  0  0  0  0  0  0  0
   19.3650   -7.2944    6.7034 O   0  0  0  0  0  0  0  0  0  0  0  0
   19.4666   -7.8867    5.4155 C   0  0  0  0  0  0  0  0  0  0  0  0
   15.6946   -8.3562   17.4997 O   0  0  0  0  0  0  0  0  0  0  0  0
   15.9310   -8.4597   18.8954 C   0  0  0  0  0  0  0  0  0  0  0  0
   15.0267   -7.5326   19.6259 C   0  0  0  0  0  0  0  0  0  0  0  0
   15.4311   -6.9715   20.8353 C   0  0  0  0  0  0  0  0  0  0  0  0
   14.6008   -6.0739   21.5259 C   0  0  0  0  0  0  0  0  0  0  0  0
   13.3373   -5.7327   20.9770 C   0  0  0  0  0  0  0  0  0  0  0  0
   12.9419   -6.2965   19.7506 C   0  0  0  0  0  0  0  0  0  0  0  0
   13.7912   -7.1903   19.0821 C   0  0  0  0  0  0  0  0  0  0  0  0
   11.6963   -5.9511   19.2137 O   0  0  0  0  0  0  0  0  0  0  0  0
   11.5062   -4.8223   18.3712 C   0  0  0  0  0  0  0  0  0  0  0  0
   12.4406   -4.8461   21.5971 O   0  0  0  0  0  0  0  0  0  0  0  0
   11.5612   -5.1850   22.6597 C   0  0  0  0  0  0  0  0  0  0  0  0
   15.0235   -5.5241   22.7419 O   0  0  0  0  0  0  0  0  0  0  0  0
   16.2160   -5.9275   23.4024 C   0  0  0  0  0  0  0  0  0  0  0  0
  1  2  1  0  0  0
  2  3  1  0  0  0
  3  4  2  0  0  0
  4  5  1  0  0  0
  5  6  2  0  0  0
  6  9  1  0  0  0
  9 10  1  0  0  0
 10 11  1  0  0  0
 11 12  2  0  0  0
 11 13  1  0  0  0
 13 14  2  0  0  0
 14 15  1  0  0  0
 15 16  2  0  0  0
 16 17  1  0  0  0
 17 18  2  0  0  0
 16 19  1  0  0  0
 19 20  1  0  0  0
  3 21  1  0  0  0
 21 22  1  0  0  0
 22 23  1  0  0  0
 23 24  2  0  0  0
 24 25  1  0  0  0
 25 26  2  0  0  0
 26 27  1  0  0  0
 27 28  2  0  0  0
 27 29  1  0  0  0
 29 30  1  0  0  0
 26 31  1  0  0  0
 31 32  1  0  0  0
 25 33  1  0  0  0
 33 34  1  0  0  0
  6  2  1  0  0  0
 18 13  1  0  0  0
 28 23  1  0  0  0
  1  7  1  0  0  0
  1  8  1  0  0  0
M  END
>  <minimizedAffinity>
-7.73260

>  <minimizedRMSD>
1.74230

$$$$
CHEMBL3103114 PubChem-76328240


 31 34  0  0  0  0  0  0  0  0999 V2000
   15.6154   -8.5403   16.7402 C   0  0  0  0  0  0  0  0  0  0  0  0
   14.6468   -8.3534   15.9558 O   0  0  0  0  0  0  0  0  0  0  0  0
   12.5930   -6.4545   20.5606 C   0  0  0  0  0  0  0  0  0  0  0  0
   13.9606   -6.5237   20.9094 C   0  0  0  0  0  0  0  0  0  0  0  0
   14.8501   -7.0586   19.9830 C   0  0  0  0  0  0  0  0  0  0  0  0
   16.1776   -7.2015   20.1378 N   0  0  0  0  0  0  0  0  0  0  0  0
   16.6137   -7.7603   18.9812 C   0  0  0  0  0  0  0  0  0  0  0  0
   15.5499   -7.9685   18.1043 C   0  0  0  0  0  0  0  0  0  0  0  0
   14.4312   -7.5095   18.7642 C   0  0  0  0  0  0  0  0  0  0  0  0
   13.0931   -7.4591   18.3815 C   0  0  0  0  0  0  0  0  0  0  0  0
   12.1589   -6.9226   19.2952 C   0  0  0  0  0  0  0  0  0  0  0  0
   16.7178   -6.9536   20.9226 H   0  0  0  0  0  0  0  0  0  0  0  0
   11.9911   -5.4569   22.7452 C   0  0  0  0  0  0  0  0  0  0  0  0
   11.6491   -5.9274   21.4486 O   0  0  0  0  0  0  0  0  0  0  0  0
   10.7999   -6.8434   18.9722 O   0  0  0  0  0  0  0  0  0  0  0  0
   10.1491   -7.7979   18.1446 C   0  0  0  0  0  0  0  0  0  0  0  0
   16.7770   -9.3421   16.2820 C   0  0  0  0  0  0  0  0  0  0  0  0
   17.5026   -9.9207   17.1362 O   0  0  0  0  0  0  0  0  0  0  0  0
   17.0747   -9.5041   14.8833 N   0  0  0  0  0  0  0  0  0  0  0  0
   16.6543   -8.5074   13.9006 C   0  0  0  0  0  0  0  0  0  0  0  0
   16.1828   -9.2004   12.6226 C   0  0  0  0  0  0  0  0  0  0  0  0
   17.2298  -10.1879   12.1020 C   0  0  0  0  0  0  0  0  0  0  0  0
   17.6164  -11.1913   13.1951 C   0  0  0  0  0  0  0  0  0  0  0  0
   18.0780  -10.4809   14.4664 C   0  0  0  0  0  0  0  0  0  0  0  0
   18.4448   -9.4494   11.5428 C   0  0  0  0  0  0  0  0  0  0  0  0
   18.2379   -9.0466   10.1197 C   0  0  0  0  0  0  0  0  0  0  0  0
   17.2482   -9.6571    9.3381 C   0  0  0  0  0  0  0  0  0  0  0  0
   17.0807   -9.2842    8.0011 C   0  0  0  0  0  0  0  0  0  0  0  0
   17.9061   -8.3052    7.4401 C   0  0  0  0  0  0  0  0  0  0  0  0
   18.9007   -7.7010    8.2153 C   0  0  0  0  0  0  0  0  0  0  0  0
   19.0680   -8.0738    9.5525 C   0  0  0  0  0  0  0  0  0  0  0  0
 13 14  1  0  0  0
 14  3  1  0  0  0
  3  4  2  0  0  0
  4  5  1  0  0  0
  5  6  1  0  0  0
  6  7  1  0  0  0
  7  8  2  0  0  0
  8  1  1  0  0  0
  8  9  1  0  0  0
  1  2  2  0  0  0
  1 17  1  0  0  0
 17 18  2  0  0  0
 17 19  1  0  0  0
 19 20  1  0  0  0
 20 21  1  0  0  0
 21 22  1  0  0  0
 22 25  1  0  0  0
 22 23  1  0  0  0
 25 26  1  0  0  0
 26 27  2  0  0  0
 27 28  1  0  0  0
 28 29  2  0  0  0
 29 30  1  0  0  0
 30 31  2  0  0  0
 31 26  1  0  0  0
 23 24  1  0  0  0
 24 19  1  0  0  0
  9 10  1  0  0  0
  9  5  2  0  0  0
 10 11  2  0  0  0
 11 15  1  0  0  0
 11  3  1  0  0  0
 15 16  1  0  0  0
  6 12  1  0  0  0
M  END
>  <minimizedAffinity>
-7.72789

>  <minimizedRMSD>
1.61589

$$$$
CHEMBL4513566 PubChem-136504128


 34 37  0  0  0  0  0  0  0  0999 V2000
   13.1760   -6.1983   20.5299 C   0  0  0  0  0  0  0  0  0  0  0  0
   13.6928   -6.7628   21.7235 C   0  0  0  0  0  0  0  0  0  0  0  0
   14.7265   -7.7054   21.6336 C   0  0  0  0  0  0  0  0  0  0  0  0
   15.2555   -8.0750   20.3964 C   0  0  0  0  0  0  0  0  0  0  0  0
   14.7626   -7.5053   19.2185 C   0  0  0  0  0  0  0  0  0  0  0  0
   13.7224   -6.5723   19.2950 C   0  0  0  0  0  0  0  0  0  0  0  0
   10.4308   -6.7044   19.2818 C   0  0  0  0  0  0  0  0  0  0  0  0
   10.8628   -5.4612   19.9826 C   0  0  0  0  0  0  0  0  0  0  0  0
   10.0806   -4.3302   20.1201 C   0  0  0  0  0  0  0  0  0  0  0  0
   10.8659   -3.4003   20.7907 C   0  0  0  0  0  0  0  0  0  0  0  0
   12.0805   -4.0197   21.0176 C   0  0  0  0  0  0  0  0  0  0  0  0
   12.0748   -5.2771   20.5388 N   0  0  0  0  0  0  0  0  0  0  0  0
   13.2358   -3.3819   21.7110 C   0  0  0  0  0  0  0  0  0  0  0  0
   15.3251   -7.8894   17.9123 C   0  0  0  0  0  0  0  0  0  0  0  0
   14.7704   -7.5047   16.8467 O   0  0  0  0  0  0  0  0  0  0  0  0
   16.5009   -8.6983   17.8474 N   0  0  0  0  0  0  0  0  0  0  0  0
   16.9309   -8.9963   18.6813 H   0  0  0  0  0  0  0  0  0  0  0  0
   17.0506   -9.0734   16.6166 N   0  0  0  0  0  0  0  0  0  0  0  0
   17.0210  -10.3101   16.2448 C   0  0  0  0  0  0  0  0  0  0  0  0
   17.5894  -10.7325   14.9599 C   0  0  0  0  0  0  0  0  0  0  0  0
   18.5272  -11.7442   14.7905 C   0  0  0  0  0  0  0  0  0  0  0  0
   18.8420  -11.8809   13.4774 N   0  0  0  0  0  0  0  0  0  0  0  0
   18.1028  -10.9582   12.8356 C   0  0  0  0  0  0  0  0  0  0  0  0
   17.3267  -10.2384   13.7026 C   0  0  0  0  0  0  0  0  0  0  0  0
   16.4749   -9.2241   13.2659 C   0  0  0  0  0  0  0  0  0  0  0  0
   16.4360   -8.9579   11.8858 C   0  0  0  0  0  0  0  0  0  0  0  0
   17.2357   -9.6992   10.9890 C   0  0  0  0  0  0  0  0  0  0  0  0
   18.0842  -10.7160   11.4635 C   0  0  0  0  0  0  0  0  0  0  0  0
   17.1856   -9.4294    9.6627 F   0  0  0  0  0  0  0  0  0  0  0  0
   19.4765  -12.5197   13.0791 H   0  0  0  0  0  0  0  0  0  0  0  0
   13.2212   -6.3807   23.0740 C   0  0  0  0  0  0  0  0  0  0  0  0
   11.9943   -6.2510   23.3248 O   0  0  0  0  0  0  0  0  0  0  0  0
   14.1431   -6.1226   24.0823 O   0  0  0  0  0  0  0  0  0  0  0  0
   15.0602   -6.2140   23.9132 H   0  0  0  0  0  0  0  0  0  0  0  0
  7  8  1  0  0  0
  8  9  2  0  0  0
  9 10  1  0  0  0
 10 11  2  0  0  0
 11 12  1  0  0  0
 12  1  1  0  0  0
  1  2  2  0  0  0
  2  3  1  0  0  0
  3  4  2  0  0  0
  4  5  1  0  0  0
  5  6  2  0  0  0
  5 14  1  0  0  0
 14 15  2  0  0  0
 14 16  1  0  0  0
 16 18  1  0  0  0
 18 19  2  0  0  0
 19 20  1  0  0  0
 20 21  2  0  0  0
 21 22  1  0  0  0
 22 23  1  0  0  0
 23 24  2  0  0  0
 24 25  1  0  0  0
 25 26  2  0  0  0
 26 27  1  0  0  0
 27 28  2  0  0  0
 27 29  1  0  0  0
  2 31  1  0  0  0
 31 32  2  0  0  0
 31 33  1  0  0  0
 11 13  1  0  0  0
 12  8  1  0  0  0
  6  1  1  0  0  0
 24 20  1  0  0  0
 28 23  1  0  0  0
 16 17  1  0  0  0
 22 30  1  0  0  0
 33 34  1  0  0  0
M  END
>  <minimizedAffinity>
-7.72637

>  <minimizedRMSD>
1.74376

$$$$
CHEMBL3397567 PubChem-118726819


 35 38  0  0  0  0  0  0  0  0999 V2000
   17.0419   -9.4575   13.5299 N   0  0  0  0  0  0  0  0  0  0  0  0
   16.4130   -8.3048   13.3740 N   0  0  0  0  0  0  0  0  0  0  0  0
   15.9299   -7.8928   14.5350 N   0  0  0  0  0  0  0  0  0  0  0  0
   16.2675   -8.8340   15.4390 C   0  0  0  0  0  0  0  0  0  0  0  0
   16.9940   -9.8302   14.8206 C   0  0  0  0  0  0  0  0  0  0  0  0
   17.7308  -10.1788   12.4696 C   0  0  0  0  0  0  0  0  0  0  0  0
   15.7498  -10.0729   10.8877 C   0  0  0  0  0  0  0  0  0  0  0  0
   17.1183   -9.8792   11.1387 C   0  0  0  0  0  0  0  0  0  0  0  0
   17.9290   -9.3779   10.1204 C   0  0  0  0  0  0  0  0  0  0  0  0
   17.3908   -9.0768    8.8617 C   0  0  0  0  0  0  0  0  0  0  0  0
   16.0197   -9.2876    8.6601 C   0  0  0  0  0  0  0  0  0  0  0  0
   15.2407   -9.7743    9.6623 N   0  0  0  0  0  0  0  0  0  0  0  0
   14.6709  -10.7102   12.1200 Cl  0  0  0  0  0  0  0  0  0  0  0  0
   18.2512   -8.5637    7.7677 C   0  0  0  0  0  0  0  0  0  0  0  0
   19.2862   -7.6519    8.0398 C   0  0  0  0  0  0  0  0  0  0  0  0
   20.1136   -7.1876    7.0124 C   0  0  0  0  0  0  0  0  0  0  0  0
   19.9139   -7.6271    5.7012 C   0  0  0  0  0  0  0  0  0  0  0  0
   18.8937   -8.5380    5.4178 C   0  0  0  0  0  0  0  0  0  0  0  0
   18.0695   -9.0066    6.4463 C   0  0  0  0  0  0  0  0  0  0  0  0
   20.7181   -7.1755    4.7062 F   0  0  0  0  0  0  0  0  0  0  0  0
   16.0037   -8.7375   16.9025 C   0  0  0  0  0  0  0  0  0  0  0  0
   15.2144   -7.6183   17.1799 O   0  0  0  0  0  0  0  0  0  0  0  0
   14.2235   -8.0873   18.0471 C   0  0  0  0  0  0  0  0  0  0  0  0
   14.1467   -7.2259   19.2610 C   0  0  0  0  0  0  0  0  0  0  0  0
   15.0701   -7.4016   20.2916 C   0  0  0  0  0  0  0  0  0  0  0  0
   15.0166   -6.6097   21.4428 C   0  0  0  0  0  0  0  0  0  0  0  0
   13.9639   -5.6687   21.5932 C   0  0  0  0  0  0  0  0  0  0  0  0
   13.0678   -5.4593   20.5315 C   0  0  0  0  0  0  0  0  0  0  0  0
   13.1618   -6.2443   19.3725 C   0  0  0  0  0  0  0  0  0  0  0  0
   12.0722   -4.4838   20.6630 O   0  0  0  0  0  0  0  0  0  0  0  0
   10.8666   -4.5028   19.9081 C   0  0  0  0  0  0  0  0  0  0  0  0
   13.7564   -4.9456   22.7739 O   0  0  0  0  0  0  0  0  0  0  0  0
   13.0967   -5.4955   23.9016 C   0  0  0  0  0  0  0  0  0  0  0  0
   16.0384   -6.7698   22.3841 O   0  0  0  0  0  0  0  0  0  0  0  0
   17.3767   -6.3664   22.1298 C   0  0  0  0  0  0  0  0  0  0  0  0
  7  8  2  0  0  0
  8  9  1  0  0  0
  9 10  2  0  0  0
 10 11  1  0  0  0
 11 12  2  0  0  0
 10 14  1  0  0  0
 14 15  2  0  0  0
 15 16  1  0  0  0
 16 17  2  0  0  0
 17 18  1  0  0  0
 18 19  2  0  0  0
 17 20  1  0  0  0
  8  6  1  0  0  0
  6  1  1  0  0  0
  1  2  1  0  0  0
  2  3  2  0  0  0
  3  4  1  0  0  0
  4  5  2  0  0  0
  4 21  1  0  0  0
 21 22  1  0  0  0
 22 23  1  0  0  0
 23 24  1  0  0  0
 24 25  2  0  0  0
 25 26  1  0  0  0
 26 27  2  0  0  0
 27 28  1  0  0  0
 28 29  2  0  0  0
 28 30  1  0  0  0
 30 31  1  0  0  0
 27 32  1  0  0  0
 32 33  1  0  0  0
 26 34  1  0  0  0
 34 35  1  0  0  0
  7 13  1  0  0  0
 12  7  1  0  0  0
 19 14  1  0  0  0
  5  1  1  0  0  0
 29 24  1  0  0  0
M  END
>  <minimizedAffinity>
-7.72192

>  <minimizedRMSD>
1.75769

$$$$
CHEMBL2031250 2981955 MCULE-7586036125 MolPort-002-198-750 PubChem-2281435 ZINC000002981955 ZINC02981955


 35 37  0  0  0  0  0  0  0  0999 V2000
   17.1757   -9.0046   16.7502 C   0  0  0  0  0  0  0  0  0  0  0  0
   18.7322   -8.4931   16.7284 S   0  0  0  0  0  0  0  0  0  0  0  0
   15.1369   -7.8297   17.7354 C   0  0  0  0  0  0  0  0  0  0  0  0
   14.6792   -7.5112   16.6041 O   0  0  0  0  0  0  0  0  0  0  0  0
   16.3503   -8.5871   17.8427 N   0  0  0  0  0  0  0  0  0  0  0  0
   16.6412   -8.8424   18.7479 H   0  0  0  0  0  0  0  0  0  0  0  0
   12.5347   -6.3132   20.0267 C   0  0  0  0  0  0  0  0  0  0  0  0
   13.2279   -6.6984   18.8702 C   0  0  0  0  0  0  0  0  0  0  0  0
   14.4151   -7.4293   18.9559 C   0  0  0  0  0  0  0  0  0  0  0  0
   14.9101   -7.7758   20.2152 C   0  0  0  0  0  0  0  0  0  0  0  0
   14.2368   -7.4037   21.3895 C   0  0  0  0  0  0  0  0  0  0  0  0
   13.0315   -6.6622   21.2943 C   0  0  0  0  0  0  0  0  0  0  0  0
   11.1673   -4.5038   19.0302 C   0  0  0  0  0  0  0  0  0  0  0  0
   11.3452   -5.5805   19.9406 O   0  0  0  0  0  0  0  0  0  0  0  0
   14.7571   -7.7645   22.6380 O   0  0  0  0  0  0  0  0  0  0  0  0
   15.7642   -7.0141   23.3044 C   0  0  0  0  0  0  0  0  0  0  0  0
   12.2902   -6.2469   22.4136 O   0  0  0  0  0  0  0  0  0  0  0  0
   12.5381   -5.0670   23.1645 C   0  0  0  0  0  0  0  0  0  0  0  0
   16.5933   -9.6752   15.6198 N   0  0  0  0  0  0  0  0  0  0  0  0
   15.6095   -9.7012   15.5929 H   0  0  0  0  0  0  0  0  0  0  0  0
   17.2695  -10.3110   14.5264 C   0  0  0  0  0  0  0  0  0  0  0  0
   17.9834  -11.5069   14.6895 C   0  0  0  0  0  0  0  0  0  0  0  0
   18.5970  -12.1177   13.5935 C   0  0  0  0  0  0  0  0  0  0  0  0
   18.4915  -11.5420   12.3254 C   0  0  0  0  0  0  0  0  0  0  0  0
   17.7685  -10.3539   12.1449 C   0  0  0  0  0  0  0  0  0  0  0  0
   17.1574   -9.7505   13.2494 C   0  0  0  0  0  0  0  0  0  0  0  0
   17.6324   -9.7351   10.8584 N   0  0  0  0  0  0  0  0  0  0  0  0
   18.6289   -8.9763   10.1599 C   0  0  0  0  0  0  0  0  0  0  0  0
   19.7721   -8.7922   10.6582 O   0  0  0  0  0  0  0  0  0  0  0  0
   16.7639   -9.8425   10.4074 H   0  0  0  0  0  0  0  0  0  0  0  0
   18.3075   -8.4085    8.8465 C   0  0  0  0  0  0  0  0  0  0  0  0
   19.0846   -7.5066    8.1501 C   0  0  0  0  0  0  0  0  0  0  0  0
   18.3832   -7.2641    6.9819 C   0  0  0  0  0  0  0  0  0  0  0  0
   17.2318   -8.0305    7.0452 C   0  0  0  0  0  0  0  0  0  0  0  0
   17.2238   -8.6987    8.1731 O   0  0  0  0  0  0  0  0  0  0  0  0
 13 14  1  0  0  0
 14  7  1  0  0  0
  7  8  2  0  0  0
  8  9  1  0  0  0
  9 10  2  0  0  0
  9  3  1  0  0  0
 10 11  1  0  0  0
 11 15  1  0  0  0
 11 12  2  0  0  0
 15 16  1  0  0  0
 12 17  1  0  0  0
 12  7  1  0  0  0
 17 18  1  0  0  0
  3  4  2  0  0  0
  3  5  1  0  0  0
  5  1  1  0  0  0
  1  2  2  0  0  0
  1 19  1  0  0  0
 19 21  1  0  0  0
 21 22  2  0  0  0
 22 23  1  0  0  0
 23 24  2  0  0  0
 24 25  1  0  0  0
 25 27  1  0  0  0
 25 26  2  0  0  0
 27 28  1  0  0  0
 28 29  2  0  0  0
 28 31  1  0  0  0
 31 32  2  0  0  0
 32 33  1  0  0  0
 33 34  2  0  0  0
 34 35  1  0  0  0
 35 31  1  0  0  0
 26 21  1  0  0  0
  5  6  1  0  0  0
 19 20  1  0  0  0
 27 30  1  0  0  0
M  END
>  <minimizedAffinity>
-7.71717

>  <minimizedRMSD>
1.12584

$$$$
CHEMBL4548542 PubChem-155545446


 36 39  0  0  0  0  0  0  0  0999 V2000
   15.0278   -7.6545   16.6148 N   0  0  0  0  0  0  0  0  0  0  0  0
   15.3746   -8.0567   17.8735 C   0  0  0  0  0  0  0  0  0  0  0  0
   16.3534   -9.0002   18.0419 N   0  0  0  0  0  0  0  0  0  0  0  0
   17.0018   -9.5597   16.9816 C   0  0  0  0  0  0  0  0  0  0  0  0
   17.8949  -10.4257   17.1766 O   0  0  0  0  0  0  0  0  0  0  0  0
   16.6529   -9.1533   15.6915 C   0  0  0  0  0  0  0  0  0  0  0  0
   15.6629   -8.1988   15.5503 C   0  0  0  0  0  0  0  0  0  0  0  0
   15.3911   -7.8471   13.9273 S   0  0  0  0  0  0  0  0  0  0  0  0
   16.5792   -8.9208   13.3853 C   0  0  0  0  0  0  0  0  0  0  0  0
   17.1653   -9.5826   14.4594 C   0  0  0  0  0  0  0  0  0  0  0  0
   18.2704  -10.5755   14.2475 C   0  0  0  0  0  0  0  0  0  0  0  0
   18.2937  -11.0322   12.7816 C   0  0  0  0  0  0  0  0  0  0  0  0
   18.2309   -9.8733   11.8814 N   0  0  0  0  0  0  0  0  0  0  0  0
   16.8978   -9.2647   11.9649 C   0  0  0  0  0  0  0  0  0  0  0  0
   16.5950   -9.2819   18.9538 H   0  0  0  0  0  0  0  0  0  0  0  0
   14.6967   -7.4766   19.0480 C   0  0  0  0  0  0  0  0  0  0  0  0
   15.3028   -7.5212   20.3110 C   0  0  0  0  0  0  0  0  0  0  0  0
   14.6645   -6.9730   21.4267 C   0  0  0  0  0  0  0  0  0  0  0  0
   13.4043   -6.3705   21.2876 C   0  0  0  0  0  0  0  0  0  0  0  0
   12.7924   -6.3226   20.0252 C   0  0  0  0  0  0  0  0  0  0  0  0
   13.4385   -6.8736   18.9153 C   0  0  0  0  0  0  0  0  0  0  0  0
   11.4560   -5.6902   19.8459 C   0  0  0  0  0  0  0  0  0  0  0  0
   12.7646   -5.8229   22.3963 O   0  0  0  0  0  0  0  0  0  0  0  0
   15.3391   -7.0391   22.7528 C   0  0  0  0  0  0  0  0  0  0  0  0
   13.1751   -5.8561   23.2379 H   0  0  0  0  0  0  0  0  0  0  0  0
   18.3749  -10.3764   10.5249 C   0  0  0  0  0  0  0  0  0  0  0  0
   18.0006   -9.2975    9.5176 C   0  0  0  0  0  0  0  0  0  0  0  0
   17.1108   -9.8577    8.4151 C   0  0  0  0  0  0  0  0  0  0  0  0
   17.2722   -9.0882    7.1102 C   0  0  0  0  0  0  0  0  0  0  0  0
   18.4335   -8.1042    7.1990 C   0  0  0  0  0  0  0  0  0  0  0  0
   19.2263   -8.0113    5.9302 C   0  0  0  0  0  0  0  0  0  0  0  0
   18.7960   -8.5078    4.8535 O   0  0  0  0  0  0  0  0  0  0  0  0
   20.4811   -7.3358    5.9495 N   0  0  0  0  0  0  0  0  0  0  0  0
   21.2276   -7.2244    4.8259 O   0  0  0  0  0  0  0  0  0  0  0  0
   20.8093   -6.9449    6.7913 H   0  0  0  0  0  0  0  0  0  0  0  0
   20.7694   -7.6579    4.0890 H   0  0  0  0  0  0  0  0  0  0  0  0
  1  2  2  0  0  0
  2  3  1  0  0  0
  3  4  1  0  0  0
  4  5  2  0  0  0
  4  6  1  0  0  0
  6  7  2  0  0  0
  7  8  1  0  0  0
  8  9  1  0  0  0
  9 10  2  0  0  0
 10 11  1  0  0  0
 11 12  1  0  0  0
 12 13  1  0  0  0
 13 14  1  0  0  0
 13 26  1  0  0  0
 26 27  1  0  0  0
 27 28  1  0  0  0
 28 29  1  0  0  0
 29 30  1  0  0  0
 30 31  1  0  0  0
 31 32  2  0  0  0
 31 33  1  0  0  0
 33 34  1  0  0  0
  2 16  1  0  0  0
 16 17  2  0  0  0
 17 18  1  0  0  0
 18 19  2  0  0  0
 19 20  1  0  0  0
 20 21  2  0  0  0
 20 22  1  0  0  0
 19 23  1  0  0  0
 18 24  1  0  0  0
  7  1  1  0  0  0
 14  9  1  0  0  0
 21 16  1  0  0  0
 10  6  1  0  0  0
  3 15  1  0  0  0
 33 35  1  0  0  0
 34 36  1  0  0  0
 23 25  1  0  0  0
M  END
>  <minimizedAffinity>
-7.70860

>  <minimizedRMSD>
1.54690

$$$$
CHEMBL3799109 PubChem-127046866


 37 39  0  0  0  0  0  0  0  0999 V2000
   14.9196   -7.8946   18.1942 C   0  0  0  0  0  0  0  0  0  0  0  0
   15.4625   -7.7600   19.4748 C   0  0  0  0  0  0  0  0  0  0  0  0
   14.7442   -7.1378   20.4997 C   0  0  0  0  0  0  0  0  0  0  0  0
   13.4420   -6.6309   20.2430 C   0  0  0  0  0  0  0  0  0  0  0  0
   12.9084   -6.7629   18.9461 C   0  0  0  0  0  0  0  0  0  0  0  0
   13.6435   -7.3900   17.9367 C   0  0  0  0  0  0  0  0  0  0  0  0
   15.4291   -7.0061   21.8168 C   0  0  0  0  0  0  0  0  0  0  0  0
   15.6883   -8.5513   17.1255 C   0  0  0  0  0  0  0  0  0  0  0  0
   15.4489   -8.3695   15.8086 N   0  0  0  0  0  0  0  0  0  0  0  0
   16.3879   -9.1628   15.2583 C   0  0  0  0  0  0  0  0  0  0  0  0
   17.1157   -9.7568   16.1713 O   0  0  0  0  0  0  0  0  0  0  0  0
   16.7097   -9.4019   17.3517 N   0  0  0  0  0  0  0  0  0  0  0  0
   16.5725   -9.3388   13.8159 C   0  0  0  0  0  0  0  0  0  0  0  0
   15.5505   -9.4103   12.8762 C   0  0  0  0  0  0  0  0  0  0  0  0
   16.0247   -9.5789   11.5678 C   0  0  0  0  0  0  0  0  0  0  0  0
   17.4102   -9.6460   11.5046 C   0  0  0  0  0  0  0  0  0  0  0  0
   18.0589   -9.4758   13.0435 S   0  0  0  0  0  0  0  0  0  0  0  0
   18.2075   -9.7668   10.2531 C   0  0  0  0  0  0  0  0  0  0  0  0
   17.9186   -8.6471    9.3736 N   0  0  0  0  0  0  0  0  0  0  0  0
   19.1508   -7.8880    9.2509 C   0  0  0  0  0  0  0  0  0  0  0  0
   17.6343   -9.2046    8.0618 C   0  0  0  0  0  0  0  0  0  0  0  0
   18.2200   -8.3102    6.9870 C   0  0  0  0  0  0  0  0  0  0  0  0
   11.5537   -6.2268   18.6179 C   0  0  0  0  0  0  0  0  0  0  0  0
   11.6157   -4.7218   18.4407 C   0  0  0  0  0  0  0  0  0  0  0  0
   12.6468   -5.9901   21.2098 O   0  0  0  0  0  0  0  0  0  0  0  0
   13.0448   -5.7009   22.5449 C   0  0  0  0  0  0  0  0  0  0  0  0
   12.3812   -4.4238   23.0348 C   0  0  0  0  0  0  0  0  0  0  0  0
   11.6235   -3.8550   22.0093 O   0  0  0  0  0  0  0  0  0  0  0  0
   10.9292   -4.4757   21.7379 H   0  0  0  0  0  0  0  0  0  0  0  0
   11.4994   -4.7098   24.2422 C   0  0  0  0  0  0  0  0  0  0  0  0
   11.9990   -4.0103   25.4183 N   0  0  0  0  0  0  0  0  0  0  0  0
   13.0461   -4.5293   26.2409 C   0  0  0  0  0  0  0  0  0  0  0  0
   13.5602   -5.6530   25.9944 O   0  0  0  0  0  0  0  0  0  0  0  0
   11.5983   -3.1431   25.6565 H   0  0  0  0  0  0  0  0  0  0  0  0
   13.5529   -3.7220   27.3820 C   0  0  0  0  0  0  0  0  0  0  0  0
   14.0070   -2.4878   26.9169 O   0  0  0  0  0  0  0  0  0  0  0  0
   14.7236   -2.6268   26.2781 H   0  0  0  0  0  0  0  0  0  0  0  0
  1  2  2  0  0  0
  2  3  1  0  0  0
  3  4  2  0  0  0
  4  5  1  0  0  0
  5  6  2  0  0  0
  5 23  1  0  0  0
 23 24  1  0  0  0
  4 25  1  0  0  0
 25 26  1  0  0  0
 27 26  1  0  0  0
 27 30  1  0  0  0
 30 31  1  0  0  0
 31 32  1  0  0  0
 32 33  2  0  0  0
 32 35  1  0  0  0
 35 36  1  0  0  0
 27 28  1  0  0  0
  3  7  1  0  0  0
  1  8  1  0  0  0
  8  9  1  0  0  0
  9 10  2  0  0  0
 10 11  1  0  0  0
 11 12  1  0  0  0
 10 13  1  0  0  0
 13 14  2  0  0  0
 14 15  1  0  0  0
 15 16  2  0  0  0
 16 17  1  0  0  0
 16 18  1  0  0  0
 18 19  1  0  0  0
 19 21  1  0  0  0
 21 22  1  0  0  0
 19 20  1  0  0  0
  6  1  1  0  0  0
 12  8  2  0  0  0
 17 13  1  0  0  0
 31 34  1  0  0  0
 36 37  1  0  0  0
 28 29  1  0  0  0
M  END
>  <minimizedAffinity>
-7.69597

>  <minimizedRMSD>
1.96944

$$$$
CHEMBL3192478 LN00657092 MolPort-000-782-087 PubChem-9611634 ZINC09307167


 34 37  0  0  0  0  0  0  0  0999 V2000
   14.6867   -7.1473   20.2727 C   0  0  0  0  0  0  0  0  0  0  0  0
   13.6806   -6.4716   20.9481 C   0  0  0  0  0  0  0  0  0  0  0  0
   13.9764   -6.5644   22.2623 N   0  0  0  0  0  0  0  0  0  0  0  0
   15.0992   -7.2561   22.3803 N   0  0  0  0  0  0  0  0  0  0  0  0
   15.5505   -7.6247   21.1903 N   0  0  0  0  0  0  0  0  0  0  0  0
   13.2936   -5.9675   23.3753 C   0  0  0  0  0  0  0  0  0  0  0  0
   12.0174   -5.5451   23.3658 N   0  0  0  0  0  0  0  0  0  0  0  0
   11.8221   -5.0063   24.5398 O   0  0  0  0  0  0  0  0  0  0  0  0
   12.8716   -5.0328   25.3177 N   0  0  0  0  0  0  0  0  0  0  0  0
   13.8263   -5.6332   24.5914 C   0  0  0  0  0  0  0  0  0  0  0  0
   15.1502   -5.8882   25.0502 N   0  0  0  0  0  0  0  0  0  0  0  0
   15.4232   -5.5994   25.9509 H   0  0  0  0  0  0  0  0  0  0  0  0
   15.7923   -6.3535   24.4667 H   0  0  0  0  0  0  0  0  0  0  0  0
   12.4904   -5.8191   20.3760 C   0  0  0  0  0  0  0  0  0  0  0  0
   11.3033   -6.4548   20.0489 C   0  0  0  0  0  0  0  0  0  0  0  0
   10.3370   -5.5723   19.5441 C   0  0  0  0  0  0  0  0  0  0  0  0
   10.7507   -4.2437   19.4738 C   0  0  0  0  0  0  0  0  0  0  0  0
   12.3314   -4.1827   20.0461 S   0  0  0  0  0  0  0  0  0  0  0  0
   15.8792   -8.2398   18.3619 N   0  0  0  0  0  0  0  0  0  0  0  0
   14.8051   -7.4260   18.8326 C   0  0  0  0  0  0  0  0  0  0  0  0
   13.9569   -6.9737   18.0181 O   0  0  0  0  0  0  0  0  0  0  0  0
   16.5486   -8.5758   19.0008 H   0  0  0  0  0  0  0  0  0  0  0  0
   17.1316   -8.9608   16.5307 C   0  0  0  0  0  0  0  0  0  0  0  0
   15.9955   -8.5676   17.0063 N   0  0  0  0  0  0  0  0  0  0  0  0
   17.6215  -10.0349   12.4194 C   0  0  0  0  0  0  0  0  0  0  0  0
   18.6442  -10.2712   13.3530 C   0  0  0  0  0  0  0  0  0  0  0  0
   18.4758   -9.9152   14.6929 C   0  0  0  0  0  0  0  0  0  0  0  0
   17.2862   -9.3194   15.1172 C   0  0  0  0  0  0  0  0  0  0  0  0
   16.2638   -9.0789   14.1893 C   0  0  0  0  0  0  0  0  0  0  0  0
   16.4240   -9.4344   12.8399 C   0  0  0  0  0  0  0  0  0  0  0  0
   18.2271   -9.4746   10.0847 C   0  0  0  0  0  0  0  0  0  0  0  0
   17.7730  -10.3882   11.0740 O   0  0  0  0  0  0  0  0  0  0  0  0
   15.4091   -9.2037   11.9048 O   0  0  0  0  0  0  0  0  0  0  0  0
   14.4711  -10.2014   11.5250 C   0  0  0  0  0  0  0  0  0  0  0  0
 31 32  1  0  0  0
 32 25  1  0  0  0
 25 26  2  0  0  0
 26 27  1  0  0  0
 27 28  2  0  0  0
 28 23  1  0  0  0
 28 29  1  0  0  0
 23 24  2  0  0  0
 24 19  1  0  0  0
 19 20  1  0  0  0
 20 21  2  0  0  0
 20  1  1  0  0  0
  1  2  2  0  0  0
  2  3  1  0  0  0
  2 14  1  0  0  0
  3  4  1  0  0  0
  3  6  1  0  0  0
  4  5  2  0  0  0
  5  1  1  0  0  0
  6  7  2  0  0  0
  7  8  1  0  0  0
  8  9  1  0  0  0
  9 10  2  0  0  0
 10 11  1  0  0  0
 10  6  1  0  0  0
 14 15  2  0  0  0
 15 16  1  0  0  0
 16 17  2  0  0  0
 17 18  1  0  0  0
 18 14  1  0  0  0
 29 30  2  0  0  0
 30 33  1  0  0  0
 30 25  1  0  0  0
 33 34  1  0  0  0
 19 22  1  0  0  0
 11 12  1  0  0  0
 11 13  1  0  0  0
M  END
>  <minimizedAffinity>
-7.69335

>  <minimizedRMSD>
1.89785

$$$$
CHEMBL3210105 MolPort-004-249-968 PubChem-6901413 ZINC03225487


 30 32  0  0  0  0  0  0  0  0999 V2000
   15.0016   -7.6691   16.9327 N   0  0  0  0  0  0  0  0  0  0  0  0
   15.9919   -8.6578   16.6029 C   0  0  0  0  0  0  0  0  0  0  0  0
   16.6099   -9.2772   17.5112 O   0  0  0  0  0  0  0  0  0  0  0  0
   14.5498   -7.2193   16.1825 H   0  0  0  0  0  0  0  0  0  0  0  0
   16.2878   -8.9507   15.1893 C   0  0  0  0  0  0  0  0  0  0  0  0
   17.2758   -9.8870   14.8494 C   0  0  0  0  0  0  0  0  0  0  0  0
   17.5565  -10.1636   13.5085 C   0  0  0  0  0  0  0  0  0  0  0  0
   16.8508   -9.5065   12.4953 C   0  0  0  0  0  0  0  0  0  0  0  0
   15.8648   -8.5723   12.8268 C   0  0  0  0  0  0  0  0  0  0  0  0
   15.5845   -8.2959   14.1678 C   0  0  0  0  0  0  0  0  0  0  0  0
   17.1552   -9.7895   11.0639 C   0  0  0  0  0  0  0  0  0  0  0  0
   18.9364   -9.6034   10.7325 S   0  0  0  0  0  0  0  0  0  0  0  0
   18.6682   -8.6241    9.2552 C   0  0  0  0  0  0  0  0  0  0  0  0
   19.2869   -7.4579    9.0062 N   0  0  0  0  0  0  0  0  0  0  0  0
   18.8412   -7.0382    7.8294 N   0  0  0  0  0  0  0  0  0  0  0  0
   17.9581   -7.9506    7.3699 C   0  0  0  0  0  0  0  0  0  0  0  0
   17.8394   -8.9547    8.2537 N   0  0  0  0  0  0  0  0  0  0  0  0
   16.9932  -10.1287    8.1352 C   0  0  0  0  0  0  0  0  0  0  0  0
   15.3758   -7.4420   19.2745 C   0  0  0  0  0  0  0  0  0  0  0  0
   14.6201   -7.2865   18.2334 N   0  0  0  0  0  0  0  0  0  0  0  0
   14.1338   -6.2434   23.1879 C   0  0  0  0  0  0  0  0  0  0  0  0
   15.4542   -6.6566   22.9449 C   0  0  0  0  0  0  0  0  0  0  0  0
   15.8503   -7.0461   21.6637 C   0  0  0  0  0  0  0  0  0  0  0  0
   14.9345   -7.0279   20.6099 C   0  0  0  0  0  0  0  0  0  0  0  0
   13.6164   -6.6167   20.8467 C   0  0  0  0  0  0  0  0  0  0  0  0
   13.2092   -6.2233   22.1322 C   0  0  0  0  0  0  0  0  0  0  0  0
   14.6233   -5.6974   25.5528 C   0  0  0  0  0  0  0  0  0  0  0  0
   13.7209   -5.8503   24.4656 O   0  0  0  0  0  0  0  0  0  0  0  0
   11.8957   -5.8105   22.3815 O   0  0  0  0  0  0  0  0  0  0  0  0
   11.2199   -4.8618   21.5673 C   0  0  0  0  0  0  0  0  0  0  0  0
 27 28  1  0  0  0
 28 21  1  0  0  0
 21 22  2  0  0  0
 22 23  1  0  0  0
 23 24  2  0  0  0
 24 19  1  0  0  0
 24 25  1  0  0  0
 19 20  2  0  0  0
 20  1  1  0  0  0
  1  2  1  0  0  0
  2  3  2  0  0  0
  2  5  1  0  0  0
  5  6  2  0  0  0
  6  7  1  0  0  0
  7  8  2  0  0  0
  8 11  1  0  0  0
  8  9  1  0  0  0
 11 12  1  0  0  0
 12 13  1  0  0  0
 13 14  2  0  0  0
 14 15  1  0  0  0
 15 16  2  0  0  0
 16 17  1  0  0  0
 17 18  1  0  0  0
 17 13  1  0  0  0
  9 10  2  0  0  0
 10  5  1  0  0  0
 25 26  2  0  0  0
 26 29  1  0  0  0
 26 21  1  0  0  0
 29 30  1  0  0  0
  1  4  1  0  0  0
M  END
>  <minimizedAffinity>
-7.68885

>  <minimizedRMSD>
1.79104

$$$$
CHEMBL3798293 PubChem-127047225


 38 40  0  0  0  0  0  0  0  0999 V2000
   14.8329   -7.7265   18.3085 C   0  0  0  0  0  0  0  0  0  0  0  0
   13.6277   -7.0919   17.9988 C   0  0  0  0  0  0  0  0  0  0  0  0
   12.9016   -6.4245   18.9865 C   0  0  0  0  0  0  0  0  0  0  0  0
   13.3766   -6.3685   20.3098 C   0  0  0  0  0  0  0  0  0  0  0  0
   14.5938   -7.0288   20.6278 C   0  0  0  0  0  0  0  0  0  0  0  0
   15.3026   -7.6977   19.6240 C   0  0  0  0  0  0  0  0  0  0  0  0
   11.6242   -5.7588   18.6054 C   0  0  0  0  0  0  0  0  0  0  0  0
   15.5930   -8.4290   17.2630 C   0  0  0  0  0  0  0  0  0  0  0  0
   15.3904   -8.2499   15.9398 N   0  0  0  0  0  0  0  0  0  0  0  0
   16.3039   -9.0908   15.4173 C   0  0  0  0  0  0  0  0  0  0  0  0
   16.9831   -9.7091   16.3513 O   0  0  0  0  0  0  0  0  0  0  0  0
   16.5691   -9.3233   17.5193 N   0  0  0  0  0  0  0  0  0  0  0  0
   16.5111   -9.2891   13.9809 C   0  0  0  0  0  0  0  0  0  0  0  0
   15.5076   -9.3148   13.0189 C   0  0  0  0  0  0  0  0  0  0  0  0
   16.0004   -9.5283   11.7239 C   0  0  0  0  0  0  0  0  0  0  0  0
   17.3824   -9.6556   11.6907 C   0  0  0  0  0  0  0  0  0  0  0  0
   18.0032   -9.5314   13.2457 S   0  0  0  0  0  0  0  0  0  0  0  0
   18.1860   -9.9409   10.4723 C   0  0  0  0  0  0  0  0  0  0  0  0
   17.5340   -9.3610    9.3098 N   0  0  0  0  0  0  0  0  0  0  0  0
   16.8644   -8.6497    9.6031 H   0  0  0  0  0  0  0  0  0  0  0  0
   18.5725   -8.7597    8.4911 C   0  0  0  0  0  0  0  0  0  0  0  0
   17.9633   -8.2462    7.2035 C   0  0  0  0  0  0  0  0  0  0  0  0
   19.2082   -7.6036    9.2385 C   0  0  0  0  0  0  0  0  0  0  0  0
   15.1332   -7.1189   22.0176 C   0  0  0  0  0  0  0  0  0  0  0  0
   14.6150   -8.3702   22.7010 C   0  0  0  0  0  0  0  0  0  0  0  0
   12.6056   -5.6637   21.2531 O   0  0  0  0  0  0  0  0  0  0  0  0
   13.0201   -5.3410   22.5759 C   0  0  0  0  0  0  0  0  0  0  0  0
   13.9601   -4.1487   22.5582 C   0  0  0  0  0  0  0  0  0  0  0  0
   13.4266   -3.1412   21.7532 O   0  0  0  0  0  0  0  0  0  0  0  0
   12.5661   -2.8666   22.1067 H   0  0  0  0  0  0  0  0  0  0  0  0
   14.1429   -3.6337   23.9722 C   0  0  0  0  0  0  0  0  0  0  0  0
   15.5026   -3.1496   24.1488 N   0  0  0  0  0  0  0  0  0  0  0  0
   16.5505   -3.9990   24.6158 C   0  0  0  0  0  0  0  0  0  0  0  0
   16.3268   -5.2115   24.8754 O   0  0  0  0  0  0  0  0  0  0  0  0
   15.7063   -2.2092   23.9403 H   0  0  0  0  0  0  0  0  0  0  0  0
   17.9277   -3.4572   24.7591 C   0  0  0  0  0  0  0  0  0  0  0  0
   18.3783   -2.9920   23.5243 O   0  0  0  0  0  0  0  0  0  0  0  0
   18.3852   -3.7227   22.8864 H   0  0  0  0  0  0  0  0  0  0  0  0
  1  2  2  0  0  0
  2  3  1  0  0  0
  3  4  2  0  0  0
  4  5  1  0  0  0
  5  6  2  0  0  0
  5 24  1  0  0  0
 24 25  1  0  0  0
  4 26  1  0  0  0
 26 27  1  0  0  0
 28 27  1  0  0  0
 28 31  1  0  0  0
 31 32  1  0  0  0
 32 33  1  0  0  0
 33 34  2  0  0  0
 33 36  1  0  0  0
 36 37  1  0  0  0
 28 29  1  0  0  0
  3  7  1  0  0  0
  1  8  1  0  0  0
  8  9  1  0  0  0
  9 10  2  0  0  0
 10 11  1  0  0  0
 11 12  1  0  0  0
 10 13  1  0  0  0
 13 14  2  0  0  0
 14 15  1  0  0  0
 15 16  2  0  0  0
 16 17  1  0  0  0
 16 18  1  0  0  0
 18 19  1  0  0  0
 19 21  1  0  0  0
 21 22  1  0  0  0
 21 23  1  0  0  0
  6  1  1  0  0  0
 12  8  2  0  0  0
 17 13  1  0  0  0
 32 35  1  0  0  0
 37 38  1  0  0  0
 29 30  1  0  0  0
 19 20  1  0  0  0
M  END
>  <minimizedAffinity>
-7.68852

>  <minimizedRMSD>
1.95683

$$$$
CHEMBL3344410 PubChem-91758813


 35 38  0  0  0  0  0  0  0  0999 V2000
   16.0072   -8.3668   16.8350 C   0  0  0  0  0  0  0  0  0  0  0  0
   16.2630   -9.1407   17.9064 N   0  0  0  0  0  0  0  0  0  0  0  0
   15.4810   -8.6806   18.8346 O   0  0  0  0  0  0  0  0  0  0  0  0
   14.7755   -7.6762   18.3709 C   0  0  0  0  0  0  0  0  0  0  0  0
   15.0727   -7.4250   17.0788 N   0  0  0  0  0  0  0  0  0  0  0  0
   17.5178  -10.0186   11.8077 C   0  0  0  0  0  0  0  0  0  0  0  0
   18.4247  -10.8878   11.6819 O   0  0  0  0  0  0  0  0  0  0  0  0
   17.0090   -9.6976   13.1106 N   0  0  0  0  0  0  0  0  0  0  0  0
   15.8932   -8.7656   13.2720 C   0  0  0  0  0  0  0  0  0  0  0  0
   16.2044   -7.7853   14.3977 C   0  0  0  0  0  0  0  0  0  0  0  0
   16.6590   -8.5254   15.5703 N   0  0  0  0  0  0  0  0  0  0  0  0
   17.7804   -9.4470   15.4174 C   0  0  0  0  0  0  0  0  0  0  0  0
   17.4807  -10.4275   14.2868 C   0  0  0  0  0  0  0  0  0  0  0  0
   17.9004   -9.1233    8.3380 C   0  0  0  0  0  0  0  0  0  0  0  0
   16.5320   -9.7681    8.2778 C   0  0  0  0  0  0  0  0  0  0  0  0
   16.2726  -10.2883    9.6716 C   0  0  0  0  0  0  0  0  0  0  0  0
   16.9891   -9.3212   10.5904 C   0  0  0  0  0  0  0  0  0  0  0  0
   18.1124   -8.6977    9.7800 C   0  0  0  0  0  0  0  0  0  0  0  0
   13.7780   -6.9057   19.1463 C   0  0  0  0  0  0  0  0  0  0  0  0
   12.8883   -6.0831   18.4423 C   0  0  0  0  0  0  0  0  0  0  0  0
   11.9209   -5.3263   19.1056 C   0  0  0  0  0  0  0  0  0  0  0  0
   11.8291   -5.3806   20.5110 C   0  0  0  0  0  0  0  0  0  0  0  0
   12.7090   -6.2055   21.2153 C   0  0  0  0  0  0  0  0  0  0  0  0
   13.6788   -6.9653   20.5553 C   0  0  0  0  0  0  0  0  0  0  0  0
   14.7306   -7.9589   21.5538 Cl  0  0  0  0  0  0  0  0  0  0  0  0
   11.0749   -4.5696   18.3651 F   0  0  0  0  0  0  0  0  0  0  0  0
   10.8863   -4.6512   21.2500 O   0  0  0  0  0  0  0  0  0  0  0  0
   11.2097   -3.6852   22.2448 C   0  0  0  0  0  0  0  0  0  0  0  0
   12.2810   -4.2190   23.1864 C   0  0  0  0  0  0  0  0  0  0  0  0
   13.1047   -3.1148   23.6424 N   0  0  0  0  0  0  0  0  0  0  0  0
   12.5241   -2.4412   24.1420 H   0  0  0  0  0  0  0  0  0  0  0  0
   13.5386   -2.6600   22.8391 H   0  0  0  0  0  0  0  0  0  0  0  0
   11.6504   -4.8995   24.3897 C   0  0  0  0  0  0  0  0  0  0  0  0
   10.5297   -5.6311   23.9956 O   0  0  0  0  0  0  0  0  0  0  0  0
    9.8782   -5.0340   23.5956 H   0  0  0  0  0  0  0  0  0  0  0  0
 14 15  1  0  0  0
 15 16  1  0  0  0
 16 17  1  0  0  0
 17 18  1  0  0  0
 17  6  1  0  0  0
  6  7  2  0  0  0
  6  8  1  0  0  0
  8  9  1  0  0  0
  9 10  1  0  0  0
 10 11  1  0  0  0
 11 12  1  0  0  0
 12 13  1  0  0  0
 11  1  1  0  0  0
  1  2  2  0  0  0
  2  3  1  0  0  0
  3  4  1  0  0  0
  4  5  2  0  0  0
  4 19  1  0  0  0
 19 20  2  0  0  0
 20 21  1  0  0  0
 21 22  2  0  0  0
 22 23  1  0  0  0
 23 24  2  0  0  0
 24 25  1  0  0  0
 22 27  1  0  0  0
 27 28  1  0  0  0
 29 28  1  0  0  0
 29 33  1  0  0  0
 33 34  1  0  0  0
 29 30  1  0  0  0
 21 26  1  0  0  0
 18 14  1  0  0  0
 13  8  1  0  0  0
  5  1  1  0  0  0
 24 19  1  0  0  0
 34 35  1  0  0  0
 30 31  1  0  0  0
 30 32  1  0  0  0
M  END
>  <minimizedAffinity>
-7.68501

>  <minimizedRMSD>
1.81457

$$$$
CHEMBL10825


 35 37  0  0  0  0  0  0  0  0999 V2000
   16.1199   -9.3093   16.6365 C   0  0  0  0  0  0  0  0  0  0  0  0
   17.4153   -9.4386   17.1386 O   0  0  0  0  0  0  0  0  0  0  0  0
   18.0287   -8.9299   16.5856 H   0  0  0  0  0  0  0  0  0  0  0  0
   16.0493   -9.8729   15.2212 C   0  0  0  0  0  0  0  0  0  0  0  0
   16.7361   -8.9997   14.2809 N   0  0  0  0  0  0  0  0  0  0  0  0
   16.5072   -8.0248   14.4749 H   0  0  0  0  0  0  0  0  0  0  0  0
   16.2731   -9.3682   12.9536 C   0  0  0  0  0  0  0  0  0  0  0  0
   17.4051  -10.0325   12.1946 C   0  0  0  0  0  0  0  0  0  0  0  0
   17.3724   -8.7344    8.0942 C   0  0  0  0  0  0  0  0  0  0  0  0
   16.3860   -9.6089    8.5808 C   0  0  0  0  0  0  0  0  0  0  0  0
   16.3960  -10.0311    9.9097 C   0  0  0  0  0  0  0  0  0  0  0  0
   17.3997   -9.5896   10.7726 C   0  0  0  0  0  0  0  0  0  0  0  0
   18.3793   -8.7068   10.3085 C   0  0  0  0  0  0  0  0  0  0  0  0
   18.3810   -8.2688    8.9784 C   0  0  0  0  0  0  0  0  0  0  0  0
   18.2840   -8.8100    5.7914 C   0  0  0  0  0  0  0  0  0  0  0  0
   17.3560   -8.3304    6.7552 O   0  0  0  0  0  0  0  0  0  0  0  0
   19.3962   -7.3753    8.6044 O   0  0  0  0  0  0  0  0  0  0  0  0
   20.1381   -7.4494    7.3945 C   0  0  0  0  0  0  0  0  0  0  0  0
   15.6949   -7.8506   16.6791 C   0  0  0  0  0  0  0  0  0  0  0  0
   14.4476   -7.7236   17.3537 O   0  0  0  0  0  0  0  0  0  0  0  0
   14.3531   -7.3547   18.6999 C   0  0  0  0  0  0  0  0  0  0  0  0
   15.3092   -7.7796   19.6373 C   0  0  0  0  0  0  0  0  0  0  0  0
   15.2008   -7.4073   20.9778 C   0  0  0  0  0  0  0  0  0  0  0  0
   14.1340   -6.6056   21.4048 C   0  0  0  0  0  0  0  0  0  0  0  0
   13.1808   -6.1804   20.4716 C   0  0  0  0  0  0  0  0  0  0  0  0
   13.2822   -6.5491   19.1190 C   0  0  0  0  0  0  0  0  0  0  0  0
   14.0225   -6.2161   22.8208 C   0  0  0  0  0  0  0  0  0  0  0  0
   12.9810   -5.5167   23.3182 N   0  0  0  0  0  0  0  0  0  0  0  0
   13.2915   -5.3894   24.6204 C   0  0  0  0  0  0  0  0  0  0  0  0
   12.4350   -4.6819   25.6097 C   0  0  0  0  0  0  0  0  0  0  0  0
   14.4910   -6.0008   24.8984 C   0  0  0  0  0  0  0  0  0  0  0  0
   14.9547   -6.5261   23.7479 N   0  0  0  0  0  0  0  0  0  0  0  0
   15.7913   -7.0270   23.6123 H   0  0  0  0  0  0  0  0  0  0  0  0
   12.3335   -6.1278   18.1786 O   0  0  0  0  0  0  0  0  0  0  0  0
   11.5308   -4.9702   18.3609 C   0  0  0  0  0  0  0  0  0  0  0  0
 15 16  1  0  0  0
 16  9  1  0  0  0
  9 10  2  0  0  0
 10 11  1  0  0  0
 11 12  2  0  0  0
 12  8  1  0  0  0
 12 13  1  0  0  0
  8  7  1  0  0  0
  7  5  1  0  0  0
  5  4  1  0  0  0
  1  4  1  0  0  0
  1  2  1  0  0  0
  1 19  1  0  0  0
 19 20  1  0  0  0
 20 21  1  0  0  0
 21 22  2  0  0  0
 22 23  1  0  0  0
 23 24  2  0  0  0
 24 27  1  0  0  0
 24 25  1  0  0  0
 27 28  2  0  0  0
 28 29  1  0  0  0
 29 30  1  0  0  0
 29 31  2  0  0  0
 31 32  1  0  0  0
 32 27  1  0  0  0
 25 26  2  0  0  0
 26 34  1  0  0  0
 26 21  1  0  0  0
 34 35  1  0  0  0
 13 14  2  0  0  0
 14 17  1  0  0  0
 14  9  1  0  0  0
 17 18  1  0  0  0
  5  6  1  0  0  0
  2  3  1  0  0  0
 32 33  1  0  0  0
M  END
>  <minimizedAffinity>
-7.67536

>  <minimizedRMSD>
1.77387

$$$$
CHEMBL2426159 PubChem-49853183


 26 28  0  0  0  0  0  0  0  0999 V2000
   15.7977   -8.2231   18.7402 N   0  0  0  0  0  0  0  0  0  0  0  0
   15.5677   -8.3356   17.3300 C   0  0  0  0  0  0  0  0  0  0  0  0
   14.6448   -7.6818   16.7730 O   0  0  0  0  0  0  0  0  0  0  0  0
   16.4057   -9.2052   16.5625 N   0  0  0  0  0  0  0  0  0  0  0  0
   16.5344   -8.7612   19.1105 H   0  0  0  0  0  0  0  0  0  0  0  0
   17.1126   -9.6946   17.0421 H   0  0  0  0  0  0  0  0  0  0  0  0
   11.6795   -5.7565   20.0128 C   0  0  0  0  0  0  0  0  0  0  0  0
   13.0712   -6.1870   20.3351 C   0  0  0  0  0  0  0  0  0  0  0  0
   13.7579   -6.9799   19.4106 C   0  0  0  0  0  0  0  0  0  0  0  0
   15.0679   -7.4093   19.6687 C   0  0  0  0  0  0  0  0  0  0  0  0
   15.6858   -7.0360   20.8658 C   0  0  0  0  0  0  0  0  0  0  0  0
   15.0072   -6.2440   21.7953 C   0  0  0  0  0  0  0  0  0  0  0  0
   13.7013   -5.8157   21.5382 C   0  0  0  0  0  0  0  0  0  0  0  0
   13.0333   -5.0001   22.5202 C   0  0  0  0  0  0  0  0  0  0  0  0
   12.4966   -4.3450   23.3089 N   0  0  0  0  0  0  0  0  0  0  0  0
   16.2957   -9.4185   15.1519 C   0  0  0  0  0  0  0  0  0  0  0  0
   15.2041   -9.9281   14.5406 N   0  0  0  0  0  0  0  0  0  0  0  0
   15.3466  -10.0297   13.2202 N   0  0  0  0  0  0  0  0  0  0  0  0
   16.5508   -9.6022   12.7730 C   0  0  0  0  0  0  0  0  0  0  0  0
   17.5157   -9.0632   14.0518 S   0  0  0  0  0  0  0  0  0  0  0  0
   16.9434   -9.6157   11.3541 C   0  0  0  0  0  0  0  0  0  0  0  0
   18.2235   -9.2034   10.9645 C   0  0  0  0  0  0  0  0  0  0  0  0
   18.5725   -9.2251    9.6124 C   0  0  0  0  0  0  0  0  0  0  0  0
   17.6730   -9.6444    8.6827 N   0  0  0  0  0  0  0  0  0  0  0  0
   16.4235  -10.0499    9.0346 C   0  0  0  0  0  0  0  0  0  0  0  0
   16.0368  -10.0426   10.3765 C   0  0  0  0  0  0  0  0  0  0  0  0
  7  8  1  0  0  0
  8  9  2  0  0  0
  9 10  1  0  0  0
 10  1  1  0  0  0
 10 11  2  0  0  0
  1  2  1  0  0  0
  2  3  2  0  0  0
  2  4  1  0  0  0
  4 16  1  0  0  0
 16 17  2  0  0  0
 17 18  1  0  0  0
 18 19  2  0  0  0
 19 21  1  0  0  0
 19 20  1  0  0  0
 21 22  2  0  0  0
 22 23  1  0  0  0
 23 24  2  0  0  0
 24 25  1  0  0  0
 25 26  2  0  0  0
 26 21  1  0  0  0
 20 16  1  0  0  0
 11 12  1  0  0  0
 12 13  2  0  0  0
 13 14  1  0  0  0
 13  8  1  0  0  0
 14 15  3  0  0  0
  1  5  1  0  0  0
  4  6  1  0  0  0
M  END
>  <minimizedAffinity>
-7.66763

>  <minimizedRMSD>
1.71030

$$$$
CHEMBL5185609


 38 41  0  0  0  0  0  0  0  0999 V2000
   17.5259  -10.4724   12.5358 C   0  0  0  0  0  0  0  0  0  0  0  0
   18.2766  -11.5294   12.9515 N   0  0  0  0  0  0  0  0  0  0  0  0
   18.5115  -11.7573   14.2710 C   0  0  0  0  0  0  0  0  0  0  0  0
   17.9947  -10.9238   15.2111 N   0  0  0  0  0  0  0  0  0  0  0  0
   17.2385   -9.8543   14.8488 C   0  0  0  0  0  0  0  0  0  0  0  0
   16.9853   -9.6032   13.4901 C   0  0  0  0  0  0  0  0  0  0  0  0
   16.2292   -8.5337   13.1275 N   0  0  0  0  0  0  0  0  0  0  0  0
   15.7124   -7.7003   14.0676 C   0  0  0  0  0  0  0  0  0  0  0  0
   15.9473   -7.9282   15.3870 N   0  0  0  0  0  0  0  0  0  0  0  0
   16.6979   -8.9851   15.8034 C   0  0  0  0  0  0  0  0  0  0  0  0
   16.9430   -9.2210   17.2010 N   0  0  0  0  0  0  0  0  0  0  0  0
   17.7054   -9.8014   17.4271 H   0  0  0  0  0  0  0  0  0  0  0  0
   16.1974   -8.7016   18.2773 N   0  0  0  0  0  0  0  0  0  0  0  0
   15.1546   -7.9469   18.1303 C   0  0  0  0  0  0  0  0  0  0  0  0
   14.4125   -7.4314   19.2847 C   0  0  0  0  0  0  0  0  0  0  0  0
   14.7968   -7.7400   20.5953 C   0  0  0  0  0  0  0  0  0  0  0  0
   14.0711   -7.2349   21.6759 C   0  0  0  0  0  0  0  0  0  0  0  0
   12.9517   -6.4144   21.4604 C   0  0  0  0  0  0  0  0  0  0  0  0
   12.5635   -6.1030   20.1479 C   0  0  0  0  0  0  0  0  0  0  0  0
   13.2997   -6.6157   19.0667 C   0  0  0  0  0  0  0  0  0  0  0  0
   11.4472   -5.2851   19.9413 O   0  0  0  0  0  0  0  0  0  0  0  0
   11.2574   -4.5282   18.7536 C   0  0  0  0  0  0  0  0  0  0  0  0
   12.2133   -5.8999   22.5317 O   0  0  0  0  0  0  0  0  0  0  0  0
   12.8000   -5.1270   23.5700 C   0  0  0  0  0  0  0  0  0  0  0  0
   17.2819  -10.2380   11.1399 N   0  0  0  0  0  0  0  0  0  0  0  0
   16.5110  -10.7082   10.7476 H   0  0  0  0  0  0  0  0  0  0  0  0
   18.0319   -9.3978   10.2514 C   0  0  0  0  0  0  0  0  0  0  0  0
   19.1855   -8.7158   10.6655 C   0  0  0  0  0  0  0  0  0  0  0  0
   19.8883   -7.9062    9.7699 C   0  0  0  0  0  0  0  0  0  0  0  0
   19.4425   -7.7733    8.4531 C   0  0  0  0  0  0  0  0  0  0  0  0
   18.2902   -8.4516    8.0251 C   0  0  0  0  0  0  0  0  0  0  0  0
   17.5929   -9.2585    8.9301 C   0  0  0  0  0  0  0  0  0  0  0  0
   17.8154   -8.3390    6.7138 O   0  0  0  0  0  0  0  0  0  0  0  0
   18.4918   -7.6038    5.6976 C   0  0  0  0  0  0  0  0  0  0  0  0
   19.1934   -8.5444    4.7309 C   0  0  0  0  0  0  0  0  0  0  0  0
   18.7833   -8.2315    3.3054 C   0  0  0  0  0  0  0  0  0  0  0  0
   19.6183   -8.9130    2.4218 O   0  0  0  0  0  0  0  0  0  0  0  0
   20.5362   -8.6329    2.5632 H   0  0  0  0  0  0  0  0  0  0  0  0
  1  2  2  0  0  0
  2  3  1  0  0  0
  3  4  2  0  0  0
  4  5  1  0  0  0
  5  6  2  0  0  0
  6  7  1  0  0  0
  7  8  2  0  0  0
  8  9  1  0  0  0
  9 10  2  0  0  0
 10 11  1  0  0  0
 11 13  1  0  0  0
 13 14  2  0  0  0
 14 15  1  0  0  0
 15 16  2  0  0  0
 16 17  1  0  0  0
 17 18  2  0  0  0
 18 19  1  0  0  0
 19 20  2  0  0  0
 19 21  1  0  0  0
 21 22  1  0  0  0
 18 23  1  0  0  0
 23 24  1  0  0  0
  1 25  1  0  0  0
 25 27  1  0  0  0
 27 28  2  0  0  0
 28 29  1  0  0  0
 29 30  2  0  0  0
 30 31  1  0  0  0
 31 32  2  0  0  0
 31 33  1  0  0  0
 33 34  1  0  0  0
 34 35  1  0  0  0
 35 36  1  0  0  0
 36 37  1  0  0  0
  6  1  1  0  0  0
 20 15  1  0  0  0
 32 27  1  0  0  0
 10  5  1  0  0  0
 11 12  1  0  0  0
 25 26  1  0  0  0
 37 38  1  0  0  0
M  END
>  <minimizedAffinity>
-7.66037

>  <minimizedRMSD>
1.88111

$$$$
CHEMBL1903981 CSC026359511 MCULE-8558938172 MolPort-005-725-329 PubChem-24981723 Z29623804 ZINC12871065


 35 37  0  0  0  0  0  0  0  0999 V2000
   14.7524   -7.5418   18.6098 C   0  0  0  0  0  0  0  0  0  0  0  0
   14.2445   -7.4719   17.4581 O   0  0  0  0  0  0  0  0  0  0  0  0
   15.9946   -8.2316   18.7980 N   0  0  0  0  0  0  0  0  0  0  0  0
   16.2544   -8.4718   19.7167 H   0  0  0  0  0  0  0  0  0  0  0  0
   14.0191   -6.8086   22.1529 N   0  0  0  0  0  0  0  0  0  0  0  0
   14.5552   -7.2697   21.0208 N   0  0  0  0  0  0  0  0  0  0  0  0
   14.0594   -6.9685   19.7901 C   0  0  0  0  0  0  0  0  0  0  0  0
   12.9250   -6.1307   19.7074 C   0  0  0  0  0  0  0  0  0  0  0  0
   12.3512   -5.7608   18.4795 C   0  0  0  0  0  0  0  0  0  0  0  0
   11.2289   -4.9311   18.4349 C   0  0  0  0  0  0  0  0  0  0  0  0
   10.6633   -4.4579   19.6192 C   0  0  0  0  0  0  0  0  0  0  0  0
   11.2203   -4.8133   20.8487 C   0  0  0  0  0  0  0  0  0  0  0  0
   12.3489   -5.6462   20.9037 C   0  0  0  0  0  0  0  0  0  0  0  0
   12.9167   -6.0045   22.1322 C   0  0  0  0  0  0  0  0  0  0  0  0
   12.4141   -5.5840   23.2126 O   0  0  0  0  0  0  0  0  0  0  0  0
   14.6220   -7.2026   23.4229 C   0  0  0  0  0  0  0  0  0  0  0  0
   16.3748   -5.4624   23.7717 C   0  0  0  0  0  0  0  0  0  0  0  0
   16.1164   -6.9161   23.4252 C   0  0  0  0  0  0  0  0  0  0  0  0
   16.8655   -8.5869   17.7524 N   0  0  0  0  0  0  0  0  0  0  0  0
   16.6536   -8.2381   16.3807 C   0  0  0  0  0  0  0  0  0  0  0  0
   15.8231   -7.3467   16.0618 O   0  0  0  0  0  0  0  0  0  0  0  0
   17.6701   -9.1074   17.9779 H   0  0  0  0  0  0  0  0  0  0  0  0
   17.4440   -8.9178   15.3185 C   0  0  0  0  0  0  0  0  0  0  0  0
   16.8383  -10.6169   15.0739 S   0  0  0  0  0  0  0  0  0  0  0  0
   15.4775  -10.1040   13.9777 C   0  0  0  0  0  0  0  0  0  0  0  0
   16.0105   -9.4338   12.7587 C   0  0  0  0  0  0  0  0  0  0  0  0
   15.8179   -8.1994   12.6002 O   0  0  0  0  0  0  0  0  0  0  0  0
   16.7204  -10.2016   11.7805 N   0  0  0  0  0  0  0  0  0  0  0  0
   16.8258  -11.1660   11.9476 H   0  0  0  0  0  0  0  0  0  0  0  0
   17.2882   -9.6726   10.5785 C   0  0  0  0  0  0  0  0  0  0  0  0
   18.4580   -9.0084   10.5175 N   0  0  0  0  0  0  0  0  0  0  0  0
   18.6281   -8.6962    9.2690 O   0  0  0  0  0  0  0  0  0  0  0  0
   17.6276   -9.1290    8.5405 C   0  0  0  0  0  0  0  0  0  0  0  0
   17.5191   -8.9343    7.0709 C   0  0  0  0  0  0  0  0  0  0  0  0
   16.7030   -9.7836    9.3316 C   0  0  0  0  0  0  0  0  0  0  0  0
 17 18  1  0  0  0
 18 16  1  0  0  0
 16  5  1  0  0  0
  5  6  1  0  0  0
  6  7  2  0  0  0
  7  1  1  0  0  0
  7  8  1  0  0  0
  1  2  2  0  0  0
  1  3  1  0  0  0
  3 19  1  0  0  0
 19 20  1  0  0  0
 20 21  2  0  0  0
 20 23  1  0  0  0
 23 24  1  0  0  0
 24 25  1  0  0  0
 25 26  1  0  0  0
 26 27  2  0  0  0
 26 28  1  0  0  0
 28 30  1  0  0  0
 30 31  2  0  0  0
 31 32  1  0  0  0
 32 33  1  0  0  0
 33 34  1  0  0  0
 33 35  2  0  0  0
 35 30  1  0  0  0
  8  9  2  0  0  0
  9 10  1  0  0  0
 10 11  2  0  0  0
 11 12  1  0  0  0
 12 13  2  0  0  0
 13 14  1  0  0  0
 13  8  1  0  0  0
 14 15  2  0  0  0
 14  5  1  0  0  0
  3  4  1  0  0  0
 19 22  1  0  0  0
 28 29  1  0  0  0
M  END
>  <minimizedAffinity>
-7.65966

>  <minimizedRMSD>
1.50907

$$$$
CHEMBL1565074 ChemDiv-G855-4237 MCULE-1323231500 MolPort-007-888-877 PubChem-16031853 ZINC000008601076 ZINC08601076


 32 34  0  0  0  0  0  0  0  0999 V2000
   16.1649  -10.2366   15.7930 N   0  0  0  0  0  0  0  0  0  0  0  0
   15.0948  -10.0853   14.8155 C   0  0  0  0  0  0  0  0  0  0  0  0
   16.7213   -8.6629   16.2902 S   0  0  0  0  0  0  0  0  0  0  0  0
   18.0991   -8.7687   16.8833 O   0  0  0  0  0  0  0  0  0  0  0  0
   16.7699   -7.7242   15.1151 O   0  0  0  0  0  0  0  0  0  0  0  0
   15.6260   -8.0196   17.5007 C   0  0  0  0  0  0  0  0  0  0  0  0
   16.0420   -7.9060   18.8290 C   0  0  0  0  0  0  0  0  0  0  0  0
   15.1666   -7.4097   19.7970 C   0  0  0  0  0  0  0  0  0  0  0  0
   13.8636   -7.0148   19.4519 C   0  0  0  0  0  0  0  0  0  0  0  0
   12.9346   -6.5224   20.4479 N   0  0  0  0  0  0  0  0  0  0  0  0
   11.5135   -6.4656   20.1015 C   0  0  0  0  0  0  0  0  0  0  0  0
   11.3447   -5.8889   18.7038 C   0  0  0  0  0  0  0  0  0  0  0  0
   12.0544   -6.7719   17.6811 C   0  0  0  0  0  0  0  0  0  0  0  0
   13.4489   -7.1360   18.1057 C   0  0  0  0  0  0  0  0  0  0  0  0
   14.3283   -7.6431   17.1449 C   0  0  0  0  0  0  0  0  0  0  0  0
   13.3381   -6.1197   21.7742 C   0  0  0  0  0  0  0  0  0  0  0  0
   12.3267   -5.9083   22.8513 C   0  0  0  0  0  0  0  0  0  0  0  0
   14.5504   -5.9123   22.0457 O   0  0  0  0  0  0  0  0  0  0  0  0
   17.2585  -11.0521   15.2437 C   0  0  0  0  0  0  0  0  0  0  0  0
   16.8993  -10.4916   12.7956 N   0  0  0  0  0  0  0  0  0  0  0  0
   17.7841  -10.5728   13.9209 C   0  0  0  0  0  0  0  0  0  0  0  0
   18.9990  -10.2566   13.8188 O   0  0  0  0  0  0  0  0  0  0  0  0
   15.9786  -10.8116   12.9338 H   0  0  0  0  0  0  0  0  0  0  0  0
   17.7682   -9.0215    8.9096 C   0  0  0  0  0  0  0  0  0  0  0  0
   16.5500   -9.6637    9.1799 C   0  0  0  0  0  0  0  0  0  0  0  0
   16.2790  -10.1444   10.4640 C   0  0  0  0  0  0  0  0  0  0  0  0
   17.2177   -9.9923   11.4898 C   0  0  0  0  0  0  0  0  0  0  0  0
   18.4338   -9.3480   11.2172 C   0  0  0  0  0  0  0  0  0  0  0  0
   18.7072   -8.8662    9.9341 C   0  0  0  0  0  0  0  0  0  0  0  0
   19.2726   -7.5508    7.5850 C   0  0  0  0  0  0  0  0  0  0  0  0
   18.0859   -8.4964    7.5445 C   0  0  0  0  0  0  0  0  0  0  0  0
   16.8844   -7.7980    6.9344 C   0  0  0  0  0  0  0  0  0  0  0  0
 30 31  1  0  0  0
 31 32  1  0  0  0
 31 24  1  0  0  0
 24 25  2  0  0  0
 25 26  1  0  0  0
 26 27  2  0  0  0
 27 20  1  0  0  0
 27 28  1  0  0  0
 20 21  1  0  0  0
 21 22  2  0  0  0
 21 19  1  0  0  0
 19  1  1  0  0  0
  1  2  1  0  0  0
  1  3  1  0  0  0
  3  4  2  0  0  0
  3  5  2  0  0  0
  3  6  1  0  0  0
  6  7  2  0  0  0
  7  8  1  0  0  0
  8  9  2  0  0  0
  9 10  1  0  0  0
 10 11  1  0  0  0
 10 16  1  0  0  0
 11 12  1  0  0  0
 12 13  1  0  0  0
 13 14  1  0  0  0
 14 15  2  0  0  0
 14  9  1  0  0  0
 15  6  1  0  0  0
 16 17  1  0  0  0
 16 18  2  0  0  0
 28 29  2  0  0  0
 29 24  1  0  0  0
 20 23  1  0  0  0
M  END
>  <minimizedAffinity>
-7.64383

>  <minimizedRMSD>
1.80796

$$$$
CHEMBL2426195 PubChem-49853175


 26 28  0  0  0  0  0  0  0  0999 V2000
   15.7823   -8.2088   18.7570 N   0  0  0  0  0  0  0  0  0  0  0  0
   15.5533   -8.3265   17.3471 C   0  0  0  0  0  0  0  0  0  0  0  0
   14.6275   -7.6788   16.7878 O   0  0  0  0  0  0  0  0  0  0  0  0
   16.3958   -9.1943   16.5825 N   0  0  0  0  0  0  0  0  0  0  0  0
   16.5214   -8.7421   19.1292 H   0  0  0  0  0  0  0  0  0  0  0  0
   17.1050   -9.6788   17.0638 H   0  0  0  0  0  0  0  0  0  0  0  0
   13.6723   -5.8042   21.5459 C   0  0  0  0  0  0  0  0  0  0  0  0
   14.9768   -6.2318   21.8099 C   0  0  0  0  0  0  0  0  0  0  0  0
   15.6602   -7.0232   20.8831 C   0  0  0  0  0  0  0  0  0  0  0  0
   15.0480   -7.3958   19.6828 C   0  0  0  0  0  0  0  0  0  0  0  0
   13.7392   -6.9662   19.4188 C   0  0  0  0  0  0  0  0  0  0  0  0
   13.0484   -6.1742   20.3408 C   0  0  0  0  0  0  0  0  0  0  0  0
   11.4107   -5.6677   19.9525 Cl  0  0  0  0  0  0  0  0  0  0  0  0
   12.4529   -4.3354   23.3062 N   0  0  0  0  0  0  0  0  0  0  0  0
   12.9963   -4.9901   22.5217 C   0  0  0  0  0  0  0  0  0  0  0  0
   16.2874   -9.4123   15.1725 C   0  0  0  0  0  0  0  0  0  0  0  0
   15.1999   -9.9324   14.5628 N   0  0  0  0  0  0  0  0  0  0  0  0
   15.3430  -10.0364   13.2427 N   0  0  0  0  0  0  0  0  0  0  0  0
   16.5436   -9.6005   12.7941 C   0  0  0  0  0  0  0  0  0  0  0  0
   17.5042   -9.0502   14.0713 S   0  0  0  0  0  0  0  0  0  0  0  0
   16.9362   -9.6147   11.3751 C   0  0  0  0  0  0  0  0  0  0  0  0
   16.0274  -10.0361   10.3973 C   0  0  0  0  0  0  0  0  0  0  0  0
   16.4140  -10.0443    9.0552 C   0  0  0  0  0  0  0  0  0  0  0  0
   17.6655   -9.6447    8.7036 N   0  0  0  0  0  0  0  0  0  0  0  0
   18.5671   -9.2308    9.6338 C   0  0  0  0  0  0  0  0  0  0  0  0
   18.2184   -9.2085   10.9859 C   0  0  0  0  0  0  0  0  0  0  0  0
 14 15  3  0  0  0
 15  7  1  0  0  0
  7  8  2  0  0  0
  8  9  1  0  0  0
  9 10  2  0  0  0
 10  1  1  0  0  0
 10 11  1  0  0  0
  1  2  1  0  0  0
  2  3  2  0  0  0
  2  4  1  0  0  0
  4 16  1  0  0  0
 16 17  2  0  0  0
 17 18  1  0  0  0
 18 19  2  0  0  0
 19 21  1  0  0  0
 19 20  1  0  0  0
 21 22  2  0  0  0
 22 23  1  0  0  0
 23 24  2  0  0  0
 24 25  1  0  0  0
 25 26  2  0  0  0
 26 21  1  0  0  0
 20 16  1  0  0  0
 11 12  2  0  0  0
 12 13  1  0  0  0
 12  7  1  0  0  0
  1  5  1  0  0  0
  4  6  1  0  0  0
M  END
>  <minimizedAffinity>
-7.63508

>  <minimizedRMSD>
1.72479

$$$$
CHEMBL1195750 CHEMBL555287 PubChem-11059257 PubChem-45265578


 32 36  0  0  0  0  0  0  0  0999 V2000
   10.6082   -5.2983   18.3632 C   0  0  0  0  0  0  0  0  0  0  0  0
   11.8991   -5.9078   18.7951 C   0  0  0  0  0  0  0  0  0  0  0  0
   12.6648   -6.5912   17.8419 C   0  0  0  0  0  0  0  0  0  0  0  0
   13.8671   -7.1543   18.2554 C   0  0  0  0  0  0  0  0  0  0  0  0
   14.2973   -7.0525   19.5320 N   0  0  0  0  0  0  0  0  0  0  0  0
   13.5830   -6.3972   20.4863 C   0  0  0  0  0  0  0  0  0  0  0  0
   14.0203   -6.3211   21.6670 O   0  0  0  0  0  0  0  0  0  0  0  0
   12.3506   -5.8082   20.1336 C   0  0  0  0  0  0  0  0  0  0  0  0
   15.5902   -7.7272   19.7023 C   0  0  0  0  0  0  0  0  0  0  0  0
   15.8561   -8.2455   18.3202 C   0  0  0  0  0  0  0  0  0  0  0  0
   16.9391   -8.9767   17.8416 C   0  0  0  0  0  0  0  0  0  0  0  0
   16.9334   -9.3365   16.4840 C   0  0  0  0  0  0  0  0  0  0  0  0
   17.9909  -10.0701   15.9439 C   0  0  0  0  0  0  0  0  0  0  0  0
   17.9766  -10.4239   14.5914 C   0  0  0  0  0  0  0  0  0  0  0  0
   16.9093  -10.0498   13.7663 C   0  0  0  0  0  0  0  0  0  0  0  0
   15.8415   -9.3113   14.3032 C   0  0  0  0  0  0  0  0  0  0  0  0
   15.8417   -8.9507   15.6523 C   0  0  0  0  0  0  0  0  0  0  0  0
   14.8014   -8.2331   16.1684 N   0  0  0  0  0  0  0  0  0  0  0  0
   14.8262   -7.8959   17.4819 C   0  0  0  0  0  0  0  0  0  0  0  0
   11.5527   -5.0616   21.1588 C   0  0  0  0  0  0  0  0  0  0  0  0
   12.2592   -3.8540   21.5486 N   0  0  0  0  0  0  0  0  0  0  0  0
   13.1651   -4.1033   21.9456 H   0  0  0  0  0  0  0  0  0  0  0  0
   11.7106   -3.3486   22.2443 H   0  0  0  0  0  0  0  0  0  0  0  0
   16.9345  -10.4247   12.4206 O   0  0  0  0  0  0  0  0  0  0  0  0
   17.0724   -9.4835   11.3635 C   0  0  0  0  0  0  0  0  0  0  0  0
   18.5342   -9.3605   10.9706 C   0  0  0  0  0  0  0  0  0  0  0  0
   18.6544   -9.2001    9.5306 N   0  0  0  0  0  0  0  0  0  0  0  0
   19.0305   -7.8074    9.2930 C   0  0  0  0  0  0  0  0  0  0  0  0
   19.1739   -7.5544    7.7939 C   0  0  0  0  0  0  0  0  0  0  0  0
   17.8488   -7.8517    7.0985 C   0  0  0  0  0  0  0  0  0  0  0  0
   17.3749   -9.2605    7.4427 C   0  0  0  0  0  0  0  0  0  0  0  0
   17.3253   -9.4242    8.9602 C   0  0  0  0  0  0  0  0  0  0  0  0
  1  2  1  0  0  0
  2  3  1  0  0  0
  3  4  2  0  0  0
  4  5  1  0  0  0
  5  6  1  0  0  0
  5  9  1  0  0  0
  6  7  2  0  0  0
  6  8  1  0  0  0
  8 20  1  0  0  0
  8  2  2  0  0  0
 20 21  1  0  0  0
  9 10  1  0  0  0
 10 11  2  0  0  0
 11 12  1  0  0  0
 12 13  2  0  0  0
 13 14  1  0  0  0
 14 15  2  0  0  0
 15 24  1  0  0  0
 15 16  1  0  0  0
 24 25  1  0  0  0
 25 26  1  0  0  0
 26 27  1  0  0  0
 27 28  1  0  0  0
 28 29  1  0  0  0
 29 30  1  0  0  0
 30 31  1  0  0  0
 31 32  1  0  0  0
 32 27  1  0  0  0
 16 17  2  0  0  0
 17 18  1  0  0  0
 17 12  1  0  0  0
 18 19  2  0  0  0
 19 10  1  0  0  0
 19  4  1  0  0  0
 21 22  1  0  0  0
 21 23  1  0  0  0
M  END
>  <minimizedAffinity>
-7.61879

>  <minimizedRMSD>
1.87319

$$$$
CHEMBL1380832 12644319 MCULE-8851118531 MolPort-000-096-126 PubChem-3220749 ZINC000012644319


 35 37  0  0  0  0  0  0  0  0999 V2000
   17.7977   -9.4372   16.9986 C   0  0  0  0  0  0  0  0  0  0  0  0
   17.5300  -10.8965   16.6096 C   0  0  0  0  0  0  0  0  0  0  0  0
   16.6598  -10.9977   15.3585 C   0  0  0  0  0  0  0  0  0  0  0  0
   17.2526  -10.2254   14.2710 N   0  0  0  0  0  0  0  0  0  0  0  0
   17.1630   -8.8119   14.6294 C   0  0  0  0  0  0  0  0  0  0  0  0
   18.0835   -8.5119   15.8098 C   0  0  0  0  0  0  0  0  0  0  0  0
   15.6369   -8.1265   17.5812 C   0  0  0  0  0  0  0  0  0  0  0  0
   15.3732   -7.8620   16.3779 O   0  0  0  0  0  0  0  0  0  0  0  0
   16.8000   -8.8950   17.9210 N   0  0  0  0  0  0  0  0  0  0  0  0
   16.9419   -9.0770   18.8781 H   0  0  0  0  0  0  0  0  0  0  0  0
   12.6745   -6.5496   19.3331 C   0  0  0  0  0  0  0  0  0  0  0  0
   13.5363   -7.0189   18.3311 C   0  0  0  0  0  0  0  0  0  0  0  0
   14.7432   -7.6427   18.6478 C   0  0  0  0  0  0  0  0  0  0  0  0
   15.0946   -7.7970   19.9883 C   0  0  0  0  0  0  0  0  0  0  0  0
   14.2651   -7.3426   21.0163 C   0  0  0  0  0  0  0  0  0  0  0  0
   13.0342   -6.7077   20.6984 C   0  0  0  0  0  0  0  0  0  0  0  0
   11.3754   -4.5506   18.6455 C   0  0  0  0  0  0  0  0  0  0  0  0
   11.4706   -5.9298   18.9774 O   0  0  0  0  0  0  0  0  0  0  0  0
   14.7223   -7.5541   22.3268 O   0  0  0  0  0  0  0  0  0  0  0  0
   15.7239   -6.7877   22.9805 C   0  0  0  0  0  0  0  0  0  0  0  0
   12.2149   -6.2570   21.7483 O   0  0  0  0  0  0  0  0  0  0  0  0
   12.2979   -4.9839   22.3733 C   0  0  0  0  0  0  0  0  0  0  0  0
   16.4011  -10.4232   13.1078 C   0  0  0  0  0  0  0  0  0  0  0  0
   16.7888   -9.5130   11.9839 C   0  0  0  0  0  0  0  0  0  0  0  0
   16.0924   -8.4866   11.7650 O   0  0  0  0  0  0  0  0  0  0  0  0
   17.9557   -9.7793   11.1948 N   0  0  0  0  0  0  0  0  0  0  0  0
   18.5620  -10.4906   11.5039 H   0  0  0  0  0  0  0  0  0  0  0  0
   18.3053   -9.0870    9.9893 C   0  0  0  0  0  0  0  0  0  0  0  0
   17.6451   -9.3251    8.7609 C   0  0  0  0  0  0  0  0  0  0  0  0
   16.5837  -10.3759    8.6533 C   0  0  0  0  0  0  0  0  0  0  0  0
   18.0444   -8.6133    7.6111 C   0  0  0  0  0  0  0  0  0  0  0  0
   17.3752   -8.8171    6.2932 C   0  0  0  0  0  0  0  0  0  0  0  0
   19.1016   -7.7029    7.6841 C   0  0  0  0  0  0  0  0  0  0  0  0
   19.7707   -7.4952    8.8898 C   0  0  0  0  0  0  0  0  0  0  0  0
   19.3765   -8.1889   10.0340 C   0  0  0  0  0  0  0  0  0  0  0  0
 17 18  1  0  0  0
 18 11  1  0  0  0
 11 12  2  0  0  0
 12 13  1  0  0  0
 13 14  2  0  0  0
 13  7  1  0  0  0
 14 15  1  0  0  0
 15 19  1  0  0  0
 15 16  2  0  0  0
 19 20  1  0  0  0
 16 21  1  0  0  0
 16 11  1  0  0  0
 21 22  1  0  0  0
  7  8  2  0  0  0
  7  9  1  0  0  0
  9  1  1  0  0  0
  1  2  1  0  0  0
  2  3  1  0  0  0
  3  4  1  0  0  0
  4 23  1  0  0  0
  4  5  1  0  0  0
 23 24  1  0  0  0
 24 25  2  0  0  0
 24 26  1  0  0  0
 26 28  1  0  0  0
 28 29  2  0  0  0
 29 30  1  0  0  0
 29 31  1  0  0  0
 31 32  1  0  0  0
 31 33  2  0  0  0
 33 34  1  0  0  0
 34 35  2  0  0  0
 35 28  1  0  0  0
  5  6  1  0  0  0
  6  1  1  0  0  0
  9 10  1  0  0  0
 26 27  1  0  0  0
M  END
>  <minimizedAffinity>
-7.61512

>  <minimizedRMSD>
1.30129

$$$$
CHEMBL1859553 PubChem-56663508


 26 28  0  0  0  0  0  0  0  0999 V2000
   14.8429   -7.3582   17.5033 N   0  0  0  0  0  0  0  0  0  0  0  0
   15.0796   -6.4009   17.7641 H   0  0  0  0  0  0  0  0  0  0  0  0
   13.6719   -7.7998   18.2470 C   0  0  0  0  0  0  0  0  0  0  0  0
   13.6808   -6.0016   22.1549 C   0  0  0  0  0  0  0  0  0  0  0  0
   14.2486   -7.2676   21.9470 C   0  0  0  0  0  0  0  0  0  0  0  0
   14.2353   -7.8443   20.6755 C   0  0  0  0  0  0  0  0  0  0  0  0
   13.6526   -7.1666   19.5999 C   0  0  0  0  0  0  0  0  0  0  0  0
   13.0860   -5.8950   19.7938 C   0  0  0  0  0  0  0  0  0  0  0  0
   13.1043   -5.3233   21.0771 C   0  0  0  0  0  0  0  0  0  0  0  0
   14.4068   -5.9168   24.5180 C   0  0  0  0  0  0  0  0  0  0  0  0
   13.6769   -5.3973   23.4150 O   0  0  0  0  0  0  0  0  0  0  0  0
   12.5134   -5.2196   18.7094 O   0  0  0  0  0  0  0  0  0  0  0  0
   11.2576   -4.5594   18.7901 C   0  0  0  0  0  0  0  0  0  0  0  0
   15.9425   -8.2502   17.8402 C   0  0  0  0  0  0  0  0  0  0  0  0
   16.3473   -9.0430   16.6444 C   0  0  0  0  0  0  0  0  0  0  0  0
   16.9585  -10.2775   16.6801 C   0  0  0  0  0  0  0  0  0  0  0  0
   17.1482  -10.6209   15.4281 O   0  0  0  0  0  0  0  0  0  0  0  0
   16.6844   -9.6571   14.6637 C   0  0  0  0  0  0  0  0  0  0  0  0
   16.1685   -8.6349   15.3749 N   0  0  0  0  0  0  0  0  0  0  0  0
   16.7245   -9.6907   13.1947 C   0  0  0  0  0  0  0  0  0  0  0  0
   17.9557   -9.7109   12.5258 C   0  0  0  0  0  0  0  0  0  0  0  0
   17.9983   -9.7432   11.1288 C   0  0  0  0  0  0  0  0  0  0  0  0
   16.8097   -9.7555   10.3936 C   0  0  0  0  0  0  0  0  0  0  0  0
   16.8678   -9.7995    8.4898 Br  0  0  0  0  0  0  0  0  0  0  0  0
   15.5784   -9.7356   11.0547 C   0  0  0  0  0  0  0  0  0  0  0  0
   15.5357   -9.7034   12.4516 C   0  0  0  0  0  0  0  0  0  0  0  0
 10 11  1  0  0  0
 11  4  1  0  0  0
  4  5  2  0  0  0
  5  6  1  0  0  0
  6  7  2  0  0  0
  7  3  1  0  0  0
  7  8  1  0  0  0
  3  1  1  0  0  0
  1 14  1  0  0  0
 14 15  1  0  0  0
 15 16  2  0  0  0
 16 17  1  0  0  0
 17 18  1  0  0  0
 18 20  1  0  0  0
 18 19  2  0  0  0
 20 21  2  0  0  0
 21 22  1  0  0  0
 22 23  2  0  0  0
 23 24  1  0  0  0
 23 25  1  0  0  0
 25 26  2  0  0  0
 26 20  1  0  0  0
 19 15  1  0  0  0
  8 12  1  0  0  0
  8  9  2  0  0  0
 12 13  1  0  0  0
  9  4  1  0  0  0
  1  2  1  0  0  0
M  END
>  <minimizedAffinity>
-7.60570

>  <minimizedRMSD>
1.55345

$$$$
CHEMBL25027 PubChem-22058491


 28 29  0  0  0  0  0  0  0  0999 V2000
   15.9338   -8.3330   16.9641 C   0  0  0  0  0  0  0  0  0  0  0  0
   15.1698   -7.5978   16.2827 O   0  0  0  0  0  0  0  0  0  0  0  0
   15.8267   -8.3822   18.3942 N   0  0  0  0  0  0  0  0  0  0  0  0
   16.4557   -8.9770   18.8631 H   0  0  0  0  0  0  0  0  0  0  0  0
   14.8994   -7.6557   19.2120 C   0  0  0  0  0  0  0  0  0  0  0  0
   15.3226   -7.1927   20.4584 C   0  0  0  0  0  0  0  0  0  0  0  0
   14.4526   -6.4680   21.2743 C   0  0  0  0  0  0  0  0  0  0  0  0
   13.1375   -6.2012   20.8661 C   0  0  0  0  0  0  0  0  0  0  0  0
   12.6905   -6.7092   19.6209 C   0  0  0  0  0  0  0  0  0  0  0  0
   13.5830   -7.4092   18.8020 C   0  0  0  0  0  0  0  0  0  0  0  0
   12.3017   -5.3306   21.7196 C   0  0  0  0  0  0  0  0  0  0  0  0
   11.9515   -5.5687   23.0322 C   0  0  0  0  0  0  0  0  0  0  0  0
   11.2117   -4.5225   23.4486 N   0  0  0  0  0  0  0  0  0  0  0  0
   11.1441   -3.6919   22.3875 C   0  0  0  0  0  0  0  0  0  0  0  0
   11.7989   -4.1772   21.3590 O   0  0  0  0  0  0  0  0  0  0  0  0
   11.3788   -6.5546   19.1672 O   0  0  0  0  0  0  0  0  0  0  0  0
   10.7655   -7.5065   18.3100 C   0  0  0  0  0  0  0  0  0  0  0  0
   16.8097   -9.4366   14.8871 N   0  0  0  0  0  0  0  0  0  0  0  0
   16.9462   -9.1497   16.2858 C   0  0  0  0  0  0  0  0  0  0  0  0
   17.9293   -9.5962   16.9367 O   0  0  0  0  0  0  0  0  0  0  0  0
   16.0224   -9.0698   14.4237 H   0  0  0  0  0  0  0  0  0  0  0  0
   17.7492  -10.2322   14.0939 C   0  0  0  0  0  0  0  0  0  0  0  0
   17.6730  -11.6914   14.5150 C   0  0  0  0  0  0  0  0  0  0  0  0
   19.1650   -9.7212   14.3049 C   0  0  0  0  0  0  0  0  0  0  0  0
   17.4112  -10.1296   12.6326 C   0  0  0  0  0  0  0  0  0  0  0  0
   16.2155  -10.2460   12.2427 O   0  0  0  0  0  0  0  0  0  0  0  0
   18.1729   -9.3088   10.4388 C   0  0  0  0  0  0  0  0  0  0  0  0
   18.4313   -9.8911   11.7075 O   0  0  0  0  0  0  0  0  0  0  0  0
 27 28  1  0  0  0
 28 25  1  0  0  0
 25 26  2  0  0  0
 25 22  1  0  0  0
 22 23  1  0  0  0
 22 24  1  0  0  0
 22 18  1  0  0  0
 18 19  1  0  0  0
 19 20  2  0  0  0
 19  1  1  0  0  0
  1  2  2  0  0  0
  1  3  1  0  0  0
  3  5  1  0  0  0
  5  6  2  0  0  0
  6  7  1  0  0  0
  7  8  2  0  0  0
  8 11  1  0  0  0
  8  9  1  0  0  0
 11 12  2  0  0  0
 12 13  1  0  0  0
 13 14  2  0  0  0
 14 15  1  0  0  0
 15 11  1  0  0  0
  9 16  1  0  0  0
  9 10  2  0  0  0
 16 17  1  0  0  0
 10  5  1  0  0  0
 18 21  1  0  0  0
  3  4  1  0  0  0
M  END
>  <minimizedAffinity>
-7.60510

>  <minimizedRMSD>
1.59323

$$$$
CHEMBL4541772 PubChem-135334949


 32 36  0  0  0  0  0  0  0  0999 V2000
   14.6340   -7.4123   18.4363 C   0  0  0  0  0  0  0  0  0  0  0  0
   15.7423   -8.2039   18.7330 C   0  0  0  0  0  0  0  0  0  0  0  0
   16.1660   -8.6911   17.5592 N   0  0  0  0  0  0  0  0  0  0  0  0
   17.2108   -9.5135   17.3025 C   0  0  0  0  0  0  0  0  0  0  0  0
   17.4463   -9.8815   15.9706 C   0  0  0  0  0  0  0  0  0  0  0  0
   16.6055   -9.3976   14.9399 C   0  0  0  0  0  0  0  0  0  0  0  0
   15.5328   -8.5421   15.2717 C   0  0  0  0  0  0  0  0  0  0  0  0
   15.3495   -8.2124   16.6115 C   0  0  0  0  0  0  0  0  0  0  0  0
   14.3845   -7.4159   17.1014 N   0  0  0  0  0  0  0  0  0  0  0  0
   14.0881   -6.6274   20.7952 C   0  0  0  0  0  0  0  0  0  0  0  0
   13.2575   -5.8825   21.6485 C   0  0  0  0  0  0  0  0  0  0  0  0
   12.1607   -5.1656   21.1509 C   0  0  0  0  0  0  0  0  0  0  0  0
   11.8923   -5.1959   19.7774 C   0  0  0  0  0  0  0  0  0  0  0  0
   12.7113   -5.9329   18.9211 C   0  0  0  0  0  0  0  0  0  0  0  0
   13.8110   -6.6534   19.4084 C   0  0  0  0  0  0  0  0  0  0  0  0
   10.5316   -4.3155   19.1056 Cl  0  0  0  0  0  0  0  0  0  0  0  0
   16.1930   -6.7274   22.1020 C   0  0  0  0  0  0  0  0  0  0  0  0
   15.1785   -7.3361   21.3143 O   0  0  0  0  0  0  0  0  0  0  0  0
   11.3330   -4.4235   22.0009 O   0  0  0  0  0  0  0  0  0  0  0  0
   11.7193   -4.0486   23.3162 C   0  0  0  0  0  0  0  0  0  0  0  0
   16.8445   -9.7698   13.5685 N   0  0  0  0  0  0  0  0  0  0  0  0
   18.2155  -10.0123   13.0978 C   0  0  0  0  0  0  0  0  0  0  0  0
   18.2325  -10.4408   11.6326 C   0  0  0  0  0  0  0  0  0  0  0  0
   17.3731   -9.5506   10.8494 N   0  0  0  0  0  0  0  0  0  0  0  0
   16.0076   -9.2731   11.3145 C   0  0  0  0  0  0  0  0  0  0  0  0
   15.7182   -9.9600   12.6492 C   0  0  0  0  0  0  0  0  0  0  0  0
   17.8816   -8.9057    9.6659 C   0  0  0  0  0  0  0  0  0  0  0  0
   19.0386   -8.1126    9.7177 C   0  0  0  0  0  0  0  0  0  0  0  0
   19.5122   -7.5080    8.5952 N   0  0  0  0  0  0  0  0  0  0  0  0
   18.8903   -7.6476    7.3944 C   0  0  0  0  0  0  0  0  0  0  0  0
   17.7370   -8.4260    7.2902 C   0  0  0  0  0  0  0  0  0  0  0  0
   17.2349   -9.0548    8.4301 C   0  0  0  0  0  0  0  0  0  0  0  0
 17 18  1  0  0  0
 18 10  1  0  0  0
 10 11  2  0  0  0
 11 12  1  0  0  0
 12 13  2  0  0  0
 13 14  1  0  0  0
 14 15  2  0  0  0
 15  1  1  0  0  0
  1  2  2  0  0  0
  2  3  1  0  0  0
  3  4  1  0  0  0
  4  5  2  0  0  0
  5  6  1  0  0  0
  6  7  2  0  0  0
  7  8  1  0  0  0
  8  9  2  0  0  0
  6 21  1  0  0  0
 21 22  1  0  0  0
 22 23  1  0  0  0
 23 24  1  0  0  0
 24 25  1  0  0  0
 25 26  1  0  0  0
 24 27  1  0  0  0
 27 28  2  0  0  0
 28 29  1  0  0  0
 29 30  2  0  0  0
 30 31  1  0  0  0
 31 32  2  0  0  0
 13 16  1  0  0  0
 12 19  1  0  0  0
 19 20  1  0  0  0
 15 10  1  0  0  0
  9  1  1  0  0  0
  8  3  1  0  0  0
 26 21  1  0  0  0
 32 27  1  0  0  0
M  END
>  <minimizedAffinity>
-7.58805

>  <minimizedRMSD>
1.34085

$$$$
CHEMBL3197018 13598146 LN00581442 MolPort-000-780-147 PubChem-135635830 ZINC000013598146 ZINC13598146


 27 29  0  0  0  0  0  0  0  0999 V2000
   15.7491   -8.3829   16.6484 N   0  0  0  0  0  0  0  0  0  0  0  0
   16.5292   -9.5991   16.8588 C   0  0  0  0  0  0  0  0  0  0  0  0
   17.8451   -9.5055   16.0812 C   0  0  0  0  0  0  0  0  0  0  0  0
   17.6423   -9.1408   14.6720 N   0  0  0  0  0  0  0  0  0  0  0  0
   16.8946   -7.8789   14.5553 C   0  0  0  0  0  0  0  0  0  0  0  0
   15.5485   -7.9254   15.2832 C   0  0  0  0  0  0  0  0  0  0  0  0
   15.3251   -7.8858   18.9238 C   0  0  0  0  0  0  0  0  0  0  0  0
   14.9827   -7.8074   17.6760 N   0  0  0  0  0  0  0  0  0  0  0  0
   12.4813   -6.1568   20.7294 C   0  0  0  0  0  0  0  0  0  0  0  0
   13.2484   -6.7354   19.7054 C   0  0  0  0  0  0  0  0  0  0  0  0
   14.5104   -7.2778   19.9803 C   0  0  0  0  0  0  0  0  0  0  0  0
   15.0070   -7.2413   21.2850 C   0  0  0  0  0  0  0  0  0  0  0  0
   14.2531   -6.6684   22.3126 C   0  0  0  0  0  0  0  0  0  0  0  0
   14.9714   -6.6399   24.0827 Br  0  0  0  0  0  0  0  0  0  0  0  0
   12.9893   -6.1253   22.0365 C   0  0  0  0  0  0  0  0  0  0  0  0
   12.2368   -5.5543   23.0571 O   0  0  0  0  0  0  0  0  0  0  0  0
   12.5737   -5.5318   23.9312 H   0  0  0  0  0  0  0  0  0  0  0  0
   11.0062   -4.5887   19.5074 C   0  0  0  0  0  0  0  0  0  0  0  0
   11.2193   -5.6108   20.4714 O   0  0  0  0  0  0  0  0  0  0  0  0
   16.9430  -10.2179   13.9727 C   0  0  0  0  0  0  0  0  0  0  0  0
   16.9820   -9.9949   12.4983 C   0  0  0  0  0  0  0  0  0  0  0  0
   18.1894   -9.6863   11.8595 C   0  0  0  0  0  0  0  0  0  0  0  0
   18.2182   -9.4872   10.4760 C   0  0  0  0  0  0  0  0  0  0  0  0
   17.0415   -9.5990    9.7292 C   0  0  0  0  0  0  0  0  0  0  0  0
   17.0776   -9.3493    7.9973 Cl  0  0  0  0  0  0  0  0  0  0  0  0
   15.8362   -9.9122   10.3651 C   0  0  0  0  0  0  0  0  0  0  0  0
   15.8069  -10.1114   11.7486 C   0  0  0  0  0  0  0  0  0  0  0  0
 18 19  1  0  0  0
 19  9  1  0  0  0
  9 10  2  0  0  0
 10 11  1  0  0  0
 11  7  1  0  0  0
 11 12  2  0  0  0
  7  8  2  0  0  0
  8  1  1  0  0  0
  1  2  1  0  0  0
  2  3  1  0  0  0
  3  4  1  0  0  0
  4 20  1  0  0  0
  4  5  1  0  0  0
 20 21  1  0  0  0
 21 22  2  0  0  0
 22 23  1  0  0  0
 23 24  2  0  0  0
 24 25  1  0  0  0
 24 26  1  0  0  0
 26 27  2  0  0  0
 27 21  1  0  0  0
  5  6  1  0  0  0
  6  1  1  0  0  0
 12 13  1  0  0  0
 13 14  1  0  0  0
 13 15  2  0  0  0
 15 16  1  0  0  0
 15  9  1  0  0  0
 16 17  1  0  0  0
M  END
>  <minimizedAffinity>
-7.58739

>  <minimizedRMSD>
1.38234

$$$$
CHEMBL2316305 33760537 MolPort-008-321-848 PubChem-7404011 ZINC000033760537 ZINC33760537


 31 32  0  0  0  0  0  0  0  0999 V2000
   13.9679   -6.8610   21.0517 C   0  0  0  0  0  0  0  0  0  0  0  0
   13.0927   -6.7451   19.9639 C   0  0  0  0  0  0  0  0  0  0  0  0
   13.4886   -7.1081   18.6655 C   0  0  0  0  0  0  0  0  0  0  0  0
   14.8004   -7.6008   18.4560 C   0  0  0  0  0  0  0  0  0  0  0  0
   15.6687   -7.7137   19.5466 C   0  0  0  0  0  0  0  0  0  0  0  0
   15.2607   -7.3488   20.8297 C   0  0  0  0  0  0  0  0  0  0  0  0
   13.5305   -6.4718   22.4103 C   0  0  0  0  0  0  0  0  0  0  0  0
   12.2833   -6.1663   22.6177 N   0  0  0  0  0  0  0  0  0  0  0  0
   15.1380   -5.0908   23.7027 C   0  0  0  0  0  0  0  0  0  0  0  0
   14.5214   -6.4680   23.5405 C   0  0  0  0  0  0  0  0  0  0  0  0
   11.7955   -5.8187   23.8865 N   0  0  0  0  0  0  0  0  0  0  0  0
   11.7363   -6.5116   24.5833 H   0  0  0  0  0  0  0  0  0  0  0  0
   11.3824   -4.4865   24.1944 C   0  0  0  0  0  0  0  0  0  0  0  0
   11.6376   -3.9567   25.4891 N   0  0  0  0  0  0  0  0  0  0  0  0
   10.6218   -3.5570   23.0814 S   0  0  0  0  0  0  0  0  0  0  0  0
   12.0943   -4.5078   26.1652 H   0  0  0  0  0  0  0  0  0  0  0  0
   11.3577   -3.0389   25.7094 H   0  0  0  0  0  0  0  0  0  0  0  0
   12.5929   -6.9831   17.5972 O   0  0  0  0  0  0  0  0  0  0  0  0
   11.1971   -7.2195   17.7253 C   0  0  0  0  0  0  0  0  0  0  0  0
   15.2959   -7.9916   17.2033 O   0  0  0  0  0  0  0  0  0  0  0  0
   16.3697   -8.9004   17.0024 C   0  0  0  0  0  0  0  0  0  0  0  0
   16.5496   -9.1484   15.5475 C   0  0  0  0  0  0  0  0  0  0  0  0
   17.5015  -10.0736   15.1086 C   0  0  0  0  0  0  0  0  0  0  0  0
   17.6889  -10.2885   13.7401 C   0  0  0  0  0  0  0  0  0  0  0  0
   16.9294   -9.5756   12.8006 C   0  0  0  0  0  0  0  0  0  0  0  0
   15.9834   -8.6425   13.2478 C   0  0  0  0  0  0  0  0  0  0  0  0
   15.7960   -8.4275   14.6164 C   0  0  0  0  0  0  0  0  0  0  0  0
   17.1236   -9.7971   11.3583 C   0  0  0  0  0  0  0  0  0  0  0  0
   18.2173   -9.4819   10.8126 O   0  0  0  0  0  0  0  0  0  0  0  0
   16.0931  -10.3556   10.5980 O   0  0  0  0  0  0  0  0  0  0  0  0
   16.0022  -10.1559    9.1954 C   0  0  0  0  0  0  0  0  0  0  0  0
  9 10  1  0  0  0
 10  7  1  0  0  0
  7  8  2  0  0  0
  7  1  1  0  0  0
  8 11  1  0  0  0
 11 13  1  0  0  0
 13 14  1  0  0  0
 13 15  2  0  0  0
  1  2  2  0  0  0
  2  3  1  0  0  0
  3 18  1  0  0  0
  3  4  2  0  0  0
 18 19  1  0  0  0
  4 20  1  0  0  0
  4  5  1  0  0  0
 20 21  1  0  0  0
 21 22  1  0  0  0
 22 23  2  0  0  0
 23 24  1  0  0  0
 24 25  2  0  0  0
 25 26  1  0  0  0
 25 28  1  0  0  0
 26 27  2  0  0  0
 27 22  1  0  0  0
 28 29  2  0  0  0
 28 30  1  0  0  0
 30 31  1  0  0  0
  5  6  2  0  0  0
  6  1  1  0  0  0
 11 12  1  0  0  0
 14 16  1  0  0  0
 14 17  1  0  0  0
M  END
>  <minimizedAffinity>
-7.58687

>  <minimizedRMSD>
1.74136

$$$$
CHEMBL3192566 19791064 ChemDiv-3254-1002 LN00511581 MolPort-001-819-698 PubChem-135492297 ZINC000019791064 ZINC19791064


 28 30  0  0  0  0  0  0  0  0999 V2000
   15.2800   -7.8714   18.9659 C   0  0  0  0  0  0  0  0  0  0  0  0
   14.9431   -7.8104   17.7155 N   0  0  0  0  0  0  0  0  0  0  0  0
   14.1205   -6.7584   22.3679 C   0  0  0  0  0  0  0  0  0  0  0  0
   14.8859   -7.3111   21.3359 C   0  0  0  0  0  0  0  0  0  0  0  0
   14.4426   -7.2790   20.0136 C   0  0  0  0  0  0  0  0  0  0  0  0
   13.2132   -6.6851   19.7127 C   0  0  0  0  0  0  0  0  0  0  0  0
   12.4251   -6.1233   20.7274 C   0  0  0  0  0  0  0  0  0  0  0  0
   12.8757   -6.1581   22.0563 C   0  0  0  0  0  0  0  0  0  0  0  0
   12.0784   -5.5951   23.0468 O   0  0  0  0  0  0  0  0  0  0  0  0
   11.2581   -5.2026   22.8210 H   0  0  0  0  0  0  0  0  0  0  0  0
   15.7574   -6.0885   24.1371 C   0  0  0  0  0  0  0  0  0  0  0  0
   14.6452   -6.8363   23.6666 O   0  0  0  0  0  0  0  0  0  0  0  0
   11.1930   -5.5260   20.4391 O   0  0  0  0  0  0  0  0  0  0  0  0
   11.0304   -4.5510   19.4178 C   0  0  0  0  0  0  0  0  0  0  0  0
   15.7312   -8.3714   16.6963 N   0  0  0  0  0  0  0  0  0  0  0  0
   15.5160   -7.9396   15.3250 C   0  0  0  0  0  0  0  0  0  0  0  0
   16.8607   -7.8542   14.5977 C   0  0  0  0  0  0  0  0  0  0  0  0
   17.6530   -9.0868   14.7318 N   0  0  0  0  0  0  0  0  0  0  0  0
   17.8669   -9.4254   16.1458 C   0  0  0  0  0  0  0  0  0  0  0  0
   16.5541   -9.5559   16.9235 C   0  0  0  0  0  0  0  0  0  0  0  0
   16.9939  -10.1975   14.0461 C   0  0  0  0  0  0  0  0  0  0  0  0
   17.0138   -9.9855   12.5698 C   0  0  0  0  0  0  0  0  0  0  0  0
   15.8256  -10.0883   11.8389 C   0  0  0  0  0  0  0  0  0  0  0  0
   15.8370   -9.8993   10.4535 C   0  0  0  0  0  0  0  0  0  0  0  0
   17.0373   -9.6103    9.7968 C   0  0  0  0  0  0  0  0  0  0  0  0
   17.0489   -9.4093    8.3246 C   0  0  0  0  0  0  0  0  0  0  0  0
   18.2270   -9.5124   10.5250 C   0  0  0  0  0  0  0  0  0  0  0  0
   18.2161   -9.7012   11.9104 C   0  0  0  0  0  0  0  0  0  0  0  0
 11 12  1  0  0  0
 12  3  1  0  0  0
  3  4  2  0  0  0
  4  5  1  0  0  0
  5  1  1  0  0  0
  5  6  2  0  0  0
  1  2  2  0  0  0
  2 15  1  0  0  0
 15 16  1  0  0  0
 16 17  1  0  0  0
 17 18  1  0  0  0
 18 21  1  0  0  0
 18 19  1  0  0  0
 21 22  1  0  0  0
 22 23  2  0  0  0
 23 24  1  0  0  0
 24 25  2  0  0  0
 25 26  1  0  0  0
 25 27  1  0  0  0
 27 28  2  0  0  0
 28 22  1  0  0  0
 19 20  1  0  0  0
 20 15  1  0  0  0
  6  7  1  0  0  0
  7 13  1  0  0  0
  7  8  2  0  0  0
 13 14  1  0  0  0
  8  9  1  0  0  0
  8  3  1  0  0  0
  9 10  1  0  0  0
M  END
>  <minimizedAffinity>
-7.57959

>  <minimizedRMSD>
1.41774

$$$$
CHEMBL3207406 12342963 LN01115469 MolPort-001-024-752 PubChem-5337897 ZINC000012342963 ZINC12342963


 26 27  0  0  0  0  0  0  0  0999 V2000
   16.4146   -9.0277   16.2166 C   0  0  0  0  0  0  0  0  0  0  0  0
   17.1620   -9.8288   17.2391 C   0  0  0  0  0  0  0  0  0  0  0  0
   15.6277   -8.0679   16.6036 N   0  0  0  0  0  0  0  0  0  0  0  0
   16.8353   -9.6444   11.9681 C   0  0  0  0  0  0  0  0  0  0  0  0
   17.5586  -10.4465   12.8512 C   0  0  0  0  0  0  0  0  0  0  0  0
   17.4461  -10.2835   14.2429 C   0  0  0  0  0  0  0  0  0  0  0  0
   16.5880   -9.2799   14.7596 C   0  0  0  0  0  0  0  0  0  0  0  0
   15.8596   -8.4858   13.8576 C   0  0  0  0  0  0  0  0  0  0  0  0
   15.9798   -8.6624   12.4797 C   0  0  0  0  0  0  0  0  0  0  0  0
   15.8921  -10.1718    9.7431 C   0  0  0  0  0  0  0  0  0  0  0  0
   16.9833   -9.8462   10.5932 O   0  0  0  0  0  0  0  0  0  0  0  0
   18.1662  -11.1187   15.1058 O   0  0  0  0  0  0  0  0  0  0  0  0
   18.2025  -12.5329   14.9648 C   0  0  0  0  0  0  0  0  0  0  0  0
   15.4303   -7.7602   17.9595 N   0  0  0  0  0  0  0  0  0  0  0  0
   14.2668   -7.4259   18.4337 C   0  0  0  0  0  0  0  0  0  0  0  0
   13.0895   -7.3387   17.5105 C   0  0  0  0  0  0  0  0  0  0  0  0
   14.1415   -7.0940   19.8798 C   0  0  0  0  0  0  0  0  0  0  0  0
   12.9992   -6.4630   20.4345 C   0  0  0  0  0  0  0  0  0  0  0  0
   12.9690   -6.1759   21.8104 C   0  0  0  0  0  0  0  0  0  0  0  0
   14.0387   -6.5073   22.6422 C   0  0  0  0  0  0  0  0  0  0  0  0
   15.1602   -7.1409   22.0954 C   0  0  0  0  0  0  0  0  0  0  0  0
   15.2070   -7.4297   20.7320 C   0  0  0  0  0  0  0  0  0  0  0  0
   11.9013   -6.1397   19.6280 O   0  0  0  0  0  0  0  0  0  0  0  0
   10.8948   -5.2165   20.0223 C   0  0  0  0  0  0  0  0  0  0  0  0
   13.9596   -6.1992   24.0030 O   0  0  0  0  0  0  0  0  0  0  0  0
   15.0170   -6.4676   24.9139 C   0  0  0  0  0  0  0  0  0  0  0  0
 10 11  1  0  0  0
 11  4  1  0  0  0
  4  5  2  0  0  0
  5  6  1  0  0  0
  6 12  1  0  0  0
  6  7  2  0  0  0
 12 13  1  0  0  0
  7  8  1  0  0  0
  7  1  1  0  0  0
  8  9  2  0  0  0
  9  4  1  0  0  0
  1  2  1  0  0  0
  1  3  2  0  0  0
  3 14  1  0  0  0
 14 15  2  0  0  0
 15 16  1  0  0  0
 15 17  1  0  0  0
 17 18  2  0  0  0
 18 23  1  0  0  0
 18 19  1  0  0  0
 23 24  1  0  0  0
 19 20  2  0  0  0
 20 25  1  0  0  0
 20 21  1  0  0  0
 25 26  1  0  0  0
 21 22  2  0  0  0
 22 17  1  0  0  0
M  END
>  <minimizedAffinity>
-7.57634

>  <minimizedRMSD>
1.55610

$$$$
CHEMBL4789434 PubChem-162668892


 30 32  0  0  0  0  0  0  0  0999 V2000
   14.2373   -8.3759   18.3982 C   0  0  0  0  0  0  0  0  0  0  0  0
   15.5199   -7.9166   17.7240 C   0  0  0  0  0  0  0  0  0  0  0  0
   15.2227   -7.3380   16.4634 O   0  0  0  0  0  0  0  0  0  0  0  0
   15.7900   -8.0206   15.4209 N   0  0  0  0  0  0  0  0  0  0  0  0
   16.4468   -9.0293   15.8773 C   0  0  0  0  0  0  0  0  0  0  0  0
   16.3777   -9.1290   17.3661 C   0  0  0  0  0  0  0  0  0  0  0  0
   17.1743   -9.9700   15.0085 C   0  0  0  0  0  0  0  0  0  0  0  0
   17.7045  -11.1545   15.5373 C   0  0  0  0  0  0  0  0  0  0  0  0
   18.3951  -12.0481   14.7145 C   0  0  0  0  0  0  0  0  0  0  0  0
   18.5603  -11.7638   13.3566 C   0  0  0  0  0  0  0  0  0  0  0  0
   18.0374  -10.5866   12.8131 C   0  0  0  0  0  0  0  0  0  0  0  0
   17.3443   -9.6919   13.6447 C   0  0  0  0  0  0  0  0  0  0  0  0
   18.2192  -10.3302   11.4516 O   0  0  0  0  0  0  0  0  0  0  0  0
   17.5503   -9.2741   10.7731 C   0  0  0  0  0  0  0  0  0  0  0  0
   18.1283   -9.1041    9.3809 C   0  0  0  0  0  0  0  0  0  0  0  0
   19.0384   -7.8923    9.3368 C   0  0  0  0  0  0  0  0  0  0  0  0
   13.5945   -7.2799   19.0415 O   0  0  0  0  0  0  0  0  0  0  0  0
   13.9721   -6.4189   23.1405 C   0  0  0  0  0  0  0  0  0  0  0  0
   14.8042   -7.3691   22.5473 C   0  0  0  0  0  0  0  0  0  0  0  0
   14.6857   -7.6602   21.1913 C   0  0  0  0  0  0  0  0  0  0  0  0
   13.7302   -7.0019   20.4077 C   0  0  0  0  0  0  0  0  0  0  0  0
   12.8882   -6.0481   20.9961 C   0  0  0  0  0  0  0  0  0  0  0  0
   12.9965   -5.7415   22.3736 C   0  0  0  0  0  0  0  0  0  0  0  0
   11.9788   -5.4204   20.2076 F   0  0  0  0  0  0  0  0  0  0  0  0
   14.1224   -6.1773   24.4669 F   0  0  0  0  0  0  0  0  0  0  0  0
   12.1069   -4.7286   23.0074 C   0  0  0  0  0  0  0  0  0  0  0  0
   12.5419   -3.5799   23.2864 O   0  0  0  0  0  0  0  0  0  0  0  0
   10.7497   -5.0323   23.3163 N   0  0  0  0  0  0  0  0  0  0  0  0
   10.3850   -5.9229   23.1085 H   0  0  0  0  0  0  0  0  0  0  0  0
   10.1765   -4.3517   23.7375 H   0  0  0  0  0  0  0  0  0  0  0  0
 18 19  2  0  0  0
 19 20  1  0  0  0
 20 21  2  0  0  0
 21 22  1  0  0  0
 22 23  2  0  0  0
 23 26  1  0  0  0
 26 27  2  0  0  0
 26 28  1  0  0  0
 22 24  1  0  0  0
 21 17  1  0  0  0
 17  1  1  0  0  0
  1  2  1  0  0  0
  2  3  1  0  0  0
  3  4  1  0  0  0
  4  5  2  0  0  0
  5  6  1  0  0  0
  5  7  1  0  0  0
  7  8  2  0  0  0
  8  9  1  0  0  0
  9 10  2  0  0  0
 10 11  1  0  0  0
 11 12  2  0  0  0
 11 13  1  0  0  0
 13 14  1  0  0  0
 14 15  1  0  0  0
 15 16  1  0  0  0
 18 25  1  0  0  0
 23 18  1  0  0  0
  6  2  1  0  0  0
 12  7  1  0  0  0
 28 29  1  0  0  0
 28 30  1  0  0  0
M  END
>  <minimizedAffinity>
-7.57135

>  <minimizedRMSD>
1.52223

$$$$
CHEMBL1394655 6872238 ChemDiv-E240-0012 MCULE-8656465569 MolPort-002-779-503 PubChem-16018406 ZINC000006872238 ZINC06872238


 29 31  0  0  0  0  0  0  0  0999 V2000
   15.0647   -7.8241   18.0620 C   0  0  0  0  0  0  0  0  0  0  0  0
   14.1397   -7.0630   17.6692 O   0  0  0  0  0  0  0  0  0  0  0  0
   15.3964   -7.9264   19.4535 N   0  0  0  0  0  0  0  0  0  0  0  0
   16.1297   -8.5400   19.6881 H   0  0  0  0  0  0  0  0  0  0  0  0
   14.7712   -7.2280   20.5387 C   0  0  0  0  0  0  0  0  0  0  0  0
   15.4801   -7.0593   21.7260 C   0  0  0  0  0  0  0  0  0  0  0  0
   14.9110   -6.3834   22.8152 C   0  0  0  0  0  0  0  0  0  0  0  0
   13.6082   -5.8648   22.7191 C   0  0  0  0  0  0  0  0  0  0  0  0
   12.8799   -6.0324   21.5139 C   0  0  0  0  0  0  0  0  0  0  0  0
   13.4755   -6.7133   20.4406 C   0  0  0  0  0  0  0  0  0  0  0  0
   15.6239   -6.2142   24.0078 O   0  0  0  0  0  0  0  0  0  0  0  0
   15.7812   -7.2521   24.9660 C   0  0  0  0  0  0  0  0  0  0  0  0
   13.0950   -5.1983   23.8449 O   0  0  0  0  0  0  0  0  0  0  0  0
   13.1695   -3.7977   24.0685 C   0  0  0  0  0  0  0  0  0  0  0  0
   11.5806   -5.5274   21.3874 O   0  0  0  0  0  0  0  0  0  0  0  0
   10.9993   -5.1881   20.1351 C   0  0  0  0  0  0  0  0  0  0  0  0
   16.7011   -9.4139   15.2929 C   0  0  0  0  0  0  0  0  0  0  0  0
   17.0953  -10.1728   16.3343 N   0  0  0  0  0  0  0  0  0  0  0  0
   16.5437   -9.6648   17.3939 O   0  0  0  0  0  0  0  0  0  0  0  0
   15.8158   -8.6189   17.0860 C   0  0  0  0  0  0  0  0  0  0  0  0
   15.8694   -8.3908   15.7228 C   0  0  0  0  0  0  0  0  0  0  0  0
   16.5545   -9.8510   11.5376 C   0  0  0  0  0  0  0  0  0  0  0  0
   17.9012  -10.1256   11.2505 C   0  0  0  0  0  0  0  0  0  0  0  0
   18.8460  -10.1664   12.2787 C   0  0  0  0  0  0  0  0  0  0  0  0
   18.4521   -9.9337   13.5987 C   0  0  0  0  0  0  0  0  0  0  0  0
   17.1112   -9.6586   13.8997 C   0  0  0  0  0  0  0  0  0  0  0  0
   16.1685   -9.6192   12.8617 C   0  0  0  0  0  0  0  0  0  0  0  0
   15.8905  -10.0149    9.1605 C   0  0  0  0  0  0  0  0  0  0  0  0
   15.5851   -9.8030   10.5321 O   0  0  0  0  0  0  0  0  0  0  0  0
 28 29  1  0  0  0
 29 22  1  0  0  0
 22 23  2  0  0  0
 23 24  1  0  0  0
 24 25  2  0  0  0
 25 26  1  0  0  0
 26 27  2  0  0  0
 26 17  1  0  0  0
 27 22  1  0  0  0
 17 18  2  0  0  0
 18 19  1  0  0  0
 19 20  1  0  0  0
 20 21  2  0  0  0
 20  1  1  0  0  0
 21 17  1  0  0  0
  1  2  2  0  0  0
  1  3  1  0  0  0
  3  5  1  0  0  0
  5  6  2  0  0  0
  6  7  1  0  0  0
  7 11  1  0  0  0
  7  8  2  0  0  0
 11 12  1  0  0  0
  8 13  1  0  0  0
  8  9  1  0  0  0
 13 14  1  0  0  0
  9 15  1  0  0  0
  9 10  2  0  0  0
 15 16  1  0  0  0
 10  5  1  0  0  0
  3  4  1  0  0  0
M  END
>  <minimizedAffinity>
-7.56453

>  <minimizedRMSD>
1.92530

$$$$
CHEMBL4218961 2982383 MCULE-4482038424 MolPort-001-904-382 PubChem-2281808 ZINC000002982383 ZINC02982383


 32 34  0  0  0  0  0  0  0  0999 V2000
   17.3090   -9.9874   12.7728 C   0  0  0  0  0  0  0  0  0  0  0  0
   18.2814  -10.8179   13.3508 C   0  0  0  0  0  0  0  0  0  0  0  0
   19.3511  -11.5843   12.6515 C   0  0  0  0  0  0  0  0  0  0  0  0
   18.0184  -10.8904   15.0104 S   0  0  0  0  0  0  0  0  0  0  0  0
   16.6935   -9.8653   14.9359 C   0  0  0  0  0  0  0  0  0  0  0  0
   16.4323   -9.4622   13.6737 N   0  0  0  0  0  0  0  0  0  0  0  0
   18.2093   -8.6463    9.3407 C   0  0  0  0  0  0  0  0  0  0  0  0
   18.2702   -8.9905   10.6923 C   0  0  0  0  0  0  0  0  0  0  0  0
   17.2134   -9.6653   11.3237 C   0  0  0  0  0  0  0  0  0  0  0  0
   16.0644   -9.9958   10.5674 C   0  0  0  0  0  0  0  0  0  0  0  0
   16.0067   -9.6445    9.2086 C   0  0  0  0  0  0  0  0  0  0  0  0
   17.0682   -8.9761    8.5997 C   0  0  0  0  0  0  0  0  0  0  0  0
   19.2479   -7.4350    7.4505 C   0  0  0  0  0  0  0  0  0  0  0  0
   19.2921   -7.9777    8.7631 O   0  0  0  0  0  0  0  0  0  0  0  0
   14.9998  -10.6806   11.1671 O   0  0  0  0  0  0  0  0  0  0  0  0
   13.6427  -10.2863   11.0158 C   0  0  0  0  0  0  0  0  0  0  0  0
   15.9286   -9.4713   16.0788 N   0  0  0  0  0  0  0  0  0  0  0  0
   15.6442   -8.1159   16.4508 C   0  0  0  0  0  0  0  0  0  0  0  0
   16.0742   -7.1586   15.7505 O   0  0  0  0  0  0  0  0  0  0  0  0
   15.5701  -10.1853   16.6541 H   0  0  0  0  0  0  0  0  0  0  0  0
   14.8444   -7.8400   17.6569 C   0  0  0  0  0  0  0  0  0  0  0  0
   13.4823   -7.5495   17.5529 C   0  0  0  0  0  0  0  0  0  0  0  0
   12.7133   -7.2859   18.6954 C   0  0  0  0  0  0  0  0  0  0  0  0
   13.3107   -7.3115   19.9673 C   0  0  0  0  0  0  0  0  0  0  0  0
   14.6935   -7.6057   20.0812 C   0  0  0  0  0  0  0  0  0  0  0  0
   15.4390   -7.8658   18.9204 C   0  0  0  0  0  0  0  0  0  0  0  0
   11.3482   -6.9947   18.5910 O   0  0  0  0  0  0  0  0  0  0  0  0
   10.3908   -7.9408   18.1345 C   0  0  0  0  0  0  0  0  0  0  0  0
   12.4861   -7.0386   21.0720 O   0  0  0  0  0  0  0  0  0  0  0  0
   12.3906   -5.7829   21.7289 C   0  0  0  0  0  0  0  0  0  0  0  0
   15.3163   -7.6385   21.3342 O   0  0  0  0  0  0  0  0  0  0  0  0
   16.1484   -6.5904   21.8143 C   0  0  0  0  0  0  0  0  0  0  0  0
 13 14  1  0  0  0
 14  7  1  0  0  0
  7  8  2  0  0  0
  8  9  1  0  0  0
  9  1  1  0  0  0
  1  2  2  0  0  0
  2  3  1  0  0  0
  2  4  1  0  0  0
  4  5  1  0  0  0
  5 17  1  0  0  0
 17 18  1  0  0  0
 18 19  2  0  0  0
 18 21  1  0  0  0
 21 22  2  0  0  0
 22 23  1  0  0  0
 23 27  1  0  0  0
 27 28  1  0  0  0
 23 24  2  0  0  0
 24 29  1  0  0  0
 29 30  1  0  0  0
 24 25  1  0  0  0
 25 31  1  0  0  0
 31 32  1  0  0  0
 25 26  2  0  0  0
  5  6  2  0  0  0
  9 10  2  0  0  0
 10 15  1  0  0  0
 15 16  1  0  0  0
 10 11  1  0  0  0
 11 12  2  0  0  0
 12  7  1  0  0  0
  6  1  1  0  0  0
 26 21  1  0  0  0
 17 20  1  0  0  0
M  END
>  <minimizedAffinity>
-7.55839

>  <minimizedRMSD>
1.99660

$$$$
CHEMBL394310 PubChem-44440589


 35 39  0  0  0  0  0  0  0  0999 V2000
   15.7374   -8.6289   17.8175 N   0  0  0  0  0  0  0  0  0  0  0  0
   16.4713   -9.8786   18.0090 C   0  0  0  0  0  0  0  0  0  0  0  0
   16.9333  -10.2105   16.6261 C   0  0  0  0  0  0  0  0  0  0  0  0
   17.6158  -11.2308   16.3460 O   0  0  0  0  0  0  0  0  0  0  0  0
   16.5131   -9.2469   15.6602 N   0  0  0  0  0  0  0  0  0  0  0  0
   15.7848   -8.2971   16.4284 C   0  0  0  0  0  0  0  0  0  0  0  0
   15.2474   -7.2685   15.9371 O   0  0  0  0  0  0  0  0  0  0  0  0
   13.0749   -6.8063   19.7528 C   0  0  0  0  0  0  0  0  0  0  0  0
   13.7311   -7.5058   18.7269 C   0  0  0  0  0  0  0  0  0  0  0  0
   15.0667   -7.9081   18.8667 C   0  0  0  0  0  0  0  0  0  0  0  0
   15.7454   -7.6026   20.0536 C   0  0  0  0  0  0  0  0  0  0  0  0
   15.1018   -6.9087   21.0793 C   0  0  0  0  0  0  0  0  0  0  0  0
   13.7651   -6.5048   20.9362 C   0  0  0  0  0  0  0  0  0  0  0  0
   10.8415   -7.0182   18.7063 C   0  0  0  0  0  0  0  0  0  0  0  0
   11.7427   -6.4016   19.6158 O   0  0  0  0  0  0  0  0  0  0  0  0
   13.1028   -5.8109   21.9571 O   0  0  0  0  0  0  0  0  0  0  0  0
   13.5872   -5.7386   23.2947 C   0  0  0  0  0  0  0  0  0  0  0  0
   13.9507   -4.3052   23.6541 C   0  0  0  0  0  0  0  0  0  0  0  0
   13.6971   -4.0664   25.0654 N   0  0  0  0  0  0  0  0  0  0  0  0
   14.7385   -4.7614   25.8064 C   0  0  0  0  0  0  0  0  0  0  0  0
   14.1059   -5.3624   27.0435 C   0  0  0  0  0  0  0  0  0  0  0  0
   12.6176   -5.3094   26.8021 C   0  0  0  0  0  0  0  0  0  0  0  0
   12.4608   -4.7544   25.4047 C   0  0  0  0  0  0  0  0  0  0  0  0
   16.7457   -9.2531   14.2373 C   0  0  0  0  0  0  0  0  0  0  0  0
   17.9340   -9.7798   13.7110 C   0  0  0  0  0  0  0  0  0  0  0  0
   18.1605   -9.7878   12.3324 C   0  0  0  0  0  0  0  0  0  0  0  0
   17.2020   -9.2693   11.4480 C   0  0  0  0  0  0  0  0  0  0  0  0
   16.0128   -8.7420   11.9752 C   0  0  0  0  0  0  0  0  0  0  0  0
   15.7882   -8.7335   13.3542 C   0  0  0  0  0  0  0  0  0  0  0  0
   17.4394   -9.2820    9.9845 C   0  0  0  0  0  0  0  0  0  0  0  0
   16.6731  -10.1059    9.1426 C   0  0  0  0  0  0  0  0  0  0  0  0
   16.8996  -10.1219    7.7637 C   0  0  0  0  0  0  0  0  0  0  0  0
   17.8946   -9.3127    7.2100 C   0  0  0  0  0  0  0  0  0  0  0  0
   18.6623   -8.4872    8.0348 C   0  0  0  0  0  0  0  0  0  0  0  0
   18.4361   -8.4722    9.4140 C   0  0  0  0  0  0  0  0  0  0  0  0
 14 15  1  0  0  0
 15  8  1  0  0  0
  8  9  2  0  0  0
  9 10  1  0  0  0
 10  1  1  0  0  0
 10 11  2  0  0  0
  1  2  1  0  0  0
  2  3  1  0  0  0
  3  4  2  0  0  0
  3  5  1  0  0  0
  5 24  1  0  0  0
  5  6  1  0  0  0
 24 25  2  0  0  0
 25 26  1  0  0  0
 26 27  2  0  0  0
 27 30  1  0  0  0
 27 28  1  0  0  0
 30 31  2  0  0  0
 31 32  1  0  0  0
 32 33  2  0  0  0
 33 34  1  0  0  0
 34 35  2  0  0  0
 35 30  1  0  0  0
 28 29  2  0  0  0
 29 24  1  0  0  0
  6  7  2  0  0  0
  6  1  1  0  0  0
 11 12  1  0  0  0
 12 13  2  0  0  0
 13 16  1  0  0  0
 13  8  1  0  0  0
 16 17  1  0  0  0
 17 18  1  0  0  0
 18 19  1  0  0  0
 19 20  1  0  0  0
 20 21  1  0  0  0
 21 22  1  0  0  0
 22 23  1  0  0  0
 23 19  1  0  0  0
M  END
>  <minimizedAffinity>
-7.55573

>  <minimizedRMSD>
1.50642

$$$$
CHEMBL4443115 ChemDiv-8007-7373 MCULE-8069068832 MolPort-002-700-015 PubChem-135479875


 38 40  0  0  0  0  0  0  0  0999 V2000
   13.8104   -6.4927   20.6316 C   0  0  0  0  0  0  0  0  0  0  0  0
   14.4837   -7.4292   19.8672 C   0  0  0  0  0  0  0  0  0  0  0  0
   15.0334   -8.3291   20.7078 N   0  0  0  0  0  0  0  0  0  0  0  0
   14.7124   -7.9576   21.9397 N   0  0  0  0  0  0  0  0  0  0  0  0
   13.9797   -6.8547   21.9187 N   0  0  0  0  0  0  0  0  0  0  0  0
   13.4793   -6.1991   23.0938 C   0  0  0  0  0  0  0  0  0  0  0  0
   12.2841   -5.5923   23.1918 N   0  0  0  0  0  0  0  0  0  0  0  0
   12.2367   -5.1146   24.4071 O   0  0  0  0  0  0  0  0  0  0  0  0
   13.3066   -5.3579   25.1157 N   0  0  0  0  0  0  0  0  0  0  0  0
   14.1138   -6.0506   24.2982 C   0  0  0  0  0  0  0  0  0  0  0  0
   15.4094   -6.5206   24.6533 N   0  0  0  0  0  0  0  0  0  0  0  0
   15.7634   -6.3528   25.5565 H   0  0  0  0  0  0  0  0  0  0  0  0
   15.9516   -7.0134   23.9958 H   0  0  0  0  0  0  0  0  0  0  0  0
   14.6343   -7.4768   18.4045 C   0  0  0  0  0  0  0  0  0  0  0  0
   13.7046   -7.0651   17.6605 O   0  0  0  0  0  0  0  0  0  0  0  0
   15.8567   -7.9811   17.8438 N   0  0  0  0  0  0  0  0  0  0  0  0
   16.5574   -8.2634   18.4751 H   0  0  0  0  0  0  0  0  0  0  0  0
   16.1409   -8.1072   16.4704 N   0  0  0  0  0  0  0  0  0  0  0  0
   16.4510   -9.2314   15.9062 C   0  0  0  0  0  0  0  0  0  0  0  0
   16.7424   -9.3424   14.4675 C   0  0  0  0  0  0  0  0  0  0  0  0
   15.9032   -8.6523   13.5879 C   0  0  0  0  0  0  0  0  0  0  0  0
   16.1134   -8.7125   12.2089 C   0  0  0  0  0  0  0  0  0  0  0  0
   17.1720   -9.4659   11.6801 C   0  0  0  0  0  0  0  0  0  0  0  0
   18.0163  -10.1560   12.5635 C   0  0  0  0  0  0  0  0  0  0  0  0
   17.8116  -10.1013   13.9453 C   0  0  0  0  0  0  0  0  0  0  0  0
   18.6758  -10.8041   14.7770 O   0  0  0  0  0  0  0  0  0  0  0  0
   19.3793  -11.3016   14.4088 H   0  0  0  0  0  0  0  0  0  0  0  0
   17.3876   -9.5326   10.2539 N   0  0  0  0  0  0  0  0  0  0  0  0
   16.9232  -10.6687    9.4660 C   0  0  0  0  0  0  0  0  0  0  0  0
   16.7888  -10.2778    8.0051 C   0  0  0  0  0  0  0  0  0  0  0  0
   18.0766   -8.4652    9.5369 C   0  0  0  0  0  0  0  0  0  0  0  0
   19.5459   -8.4376    9.9174 C   0  0  0  0  0  0  0  0  0  0  0  0
   13.0303   -5.3060   20.1543 C   0  0  0  0  0  0  0  0  0  0  0  0
   12.0798   -5.7035   19.1208 N   0  0  0  0  0  0  0  0  0  0  0  0
   10.5320   -7.5279   18.6786 C   0  0  0  0  0  0  0  0  0  0  0  0
   11.0717   -6.5696   19.7220 C   0  0  0  0  0  0  0  0  0  0  0  0
   11.4369   -4.5092   18.5577 C   0  0  0  0  0  0  0  0  0  0  0  0
   10.4691   -3.8234   19.5231 C   0  0  0  0  0  0  0  0  0  0  0  0
 35 36  1  0  0  0
 36 34  1  0  0  0
 34 37  1  0  0  0
 34 33  1  0  0  0
 37 38  1  0  0  0
 33  1  1  0  0  0
  1  2  2  0  0  0
  2  3  1  0  0  0
  2 14  1  0  0  0
  3  4  2  0  0  0
  4  5  1  0  0  0
  5  6  1  0  0  0
  5  1  1  0  0  0
  6  7  2  0  0  0
  7  8  1  0  0  0
  8  9  1  0  0  0
  9 10  2  0  0  0
 10 11  1  0  0  0
 10  6  1  0  0  0
 14 15  2  0  0  0
 14 16  1  0  0  0
 16 18  1  0  0  0
 18 19  2  0  0  0
 19 20  1  0  0  0
 20 21  2  0  0  0
 21 22  1  0  0  0
 22 23  2  0  0  0
 23 24  1  0  0  0
 23 28  1  0  0  0
 24 25  2  0  0  0
 25 26  1  0  0  0
 25 20  1  0  0  0
 28 29  1  0  0  0
 28 31  1  0  0  0
 29 30  1  0  0  0
 31 32  1  0  0  0
 11 12  1  0  0  0
 11 13  1  0  0  0
 16 17  1  0  0  0
 26 27  1  0  0  0
M  END
>  <minimizedAffinity>
-7.54705

>  <minimizedRMSD>
1.70777

$$$$
CHEMBL1888730 PubChem-46943555


 37 40  0  0  0  0  0  0  0  0999 V2000
   15.3964   -7.9854   17.7034 C   0  0  0  0  0  0  0  0  0  0  0  0
   16.3831   -8.9680   17.5376 C   0  0  0  0  0  0  0  0  0  0  0  0
   16.4860   -9.0203   16.1646 C   0  0  0  0  0  0  0  0  0  0  0  0
   17.3019   -9.8115   15.4264 N   0  0  0  0  0  0  0  0  0  0  0  0
   17.2603   -9.7181   14.0644 C   0  0  0  0  0  0  0  0  0  0  0  0
   16.3723   -8.8082   13.4452 C   0  0  0  0  0  0  0  0  0  0  0  0
   15.5472   -8.0105   14.2483 C   0  0  0  0  0  0  0  0  0  0  0  0
   15.6453   -8.1568   15.5900 N   0  0  0  0  0  0  0  0  0  0  0  0
   14.9630   -7.5075   16.5105 N   0  0  0  0  0  0  0  0  0  0  0  0
   13.0069   -6.7809   20.3764 C   0  0  0  0  0  0  0  0  0  0  0  0
   13.5233   -7.2291   19.1517 C   0  0  0  0  0  0  0  0  0  0  0  0
   14.8787   -7.5154   19.0000 C   0  0  0  0  0  0  0  0  0  0  0  0
   15.7337   -7.3511   20.0898 C   0  0  0  0  0  0  0  0  0  0  0  0
   15.2597   -6.9067   21.3264 C   0  0  0  0  0  0  0  0  0  0  0  0
   13.8783   -6.6138   21.4862 C   0  0  0  0  0  0  0  0  0  0  0  0
   11.0539   -5.2844   20.0527 C   0  0  0  0  0  0  0  0  0  0  0  0
   11.6394   -6.5034   20.4921 O   0  0  0  0  0  0  0  0  0  0  0  0
   16.2117   -6.7788   22.3506 O   0  0  0  0  0  0  0  0  0  0  0  0
   16.0507   -7.2428   23.6833 C   0  0  0  0  0  0  0  0  0  0  0  0
   13.4225   -6.1685   22.7394 O   0  0  0  0  0  0  0  0  0  0  0  0
   13.2846   -4.8107   23.1337 C   0  0  0  0  0  0  0  0  0  0  0  0
   18.1178  -10.5553   13.2824 N   0  0  0  0  0  0  0  0  0  0  0  0
   18.4484  -11.3900   13.6864 H   0  0  0  0  0  0  0  0  0  0  0  0
   18.5279  -10.2391   11.9215 C   0  0  0  0  0  0  0  0  0  0  0  0
   17.3798   -9.5834   11.1713 C   0  0  0  0  0  0  0  0  0  0  0  0
   17.8134   -9.1706    9.8068 C   0  0  0  0  0  0  0  0  0  0  0  0
   17.1989   -9.7127    8.6707 C   0  0  0  0  0  0  0  0  0  0  0  0
   17.6015   -9.3058    7.3953 C   0  0  0  0  0  0  0  0  0  0  0  0
   18.6153   -8.3517    7.2504 C   0  0  0  0  0  0  0  0  0  0  0  0
   19.2247   -7.8065    8.3858 C   0  0  0  0  0  0  0  0  0  0  0  0
   18.8226   -8.2131    9.6615 C   0  0  0  0  0  0  0  0  0  0  0  0
   19.1304   -7.8417    5.6531 S   0  0  0  0  0  0  0  0  0  0  0  0
   20.1291   -9.0639    4.9516 N   0  0  0  0  0  0  0  0  0  0  0  0
   19.9025   -6.5572    5.7598 O   0  0  0  0  0  0  0  0  0  0  0  0
   17.9304   -7.6192    4.7757 O   0  0  0  0  0  0  0  0  0  0  0  0
   20.9449   -9.2180    5.5442 H   0  0  0  0  0  0  0  0  0  0  0  0
   20.4334   -8.7641    4.0254 H   0  0  0  0  0  0  0  0  0  0  0  0
 16 17  1  0  0  0
 17 10  1  0  0  0
 10 11  2  0  0  0
 11 12  1  0  0  0
 12  1  1  0  0  0
 12 13  2  0  0  0
  1  2  1  0  0  0
  2  3  2  0  0  0
  3  4  1  0  0  0
  4  5  2  0  0  0
  5 22  1  0  0  0
  5  6  1  0  0  0
 22 24  1  0  0  0
 24 25  1  0  0  0
 25 26  1  0  0  0
 26 27  2  0  0  0
 27 28  1  0  0  0
 28 29  2  0  0  0
 29 32  1  0  0  0
 29 30  1  0  0  0
 32 33  1  0  0  0
 32 34  2  0  0  0
 32 35  2  0  0  0
 30 31  2  0  0  0
 31 26  1  0  0  0
  6  7  2  0  0  0
  7  8  1  0  0  0
  8  9  1  0  0  0
  8  3  1  0  0  0
  9  1  2  0  0  0
 13 14  1  0  0  0
 14 18  1  0  0  0
 14 15  2  0  0  0
 18 19  1  0  0  0
 15 20  1  0  0  0
 15 10  1  0  0  0
 20 21  1  0  0  0
 22 23  1  0  0  0
 33 36  1  0  0  0
 33 37  1  0  0  0
M  END
>  <minimizedAffinity>
-7.54617

>  <minimizedRMSD>
1.03954

$$$$
CHEMBL1859601 PubChem-56679365


 34 38  0  0  0  0  0  0  0  0999 V2000
   14.6003   -7.4077   19.1333 C   0  0  0  0  0  0  0  0  0  0  0  0
   14.1750   -7.8818   17.9453 N   0  0  0  0  0  0  0  0  0  0  0  0
   15.3065   -8.3658   17.4026 C   0  0  0  0  0  0  0  0  0  0  0  0
   16.3785   -8.1670   18.2461 C   0  0  0  0  0  0  0  0  0  0  0  0
   15.8923   -7.5739   19.3107 O   0  0  0  0  0  0  0  0  0  0  0  0
   11.6346   -5.6242   20.6630 C   0  0  0  0  0  0  0  0  0  0  0  0
   12.4882   -6.2353   19.7307 C   0  0  0  0  0  0  0  0  0  0  0  0
   13.7168   -6.7710   20.1206 C   0  0  0  0  0  0  0  0  0  0  0  0
   14.1008   -6.6964   21.4595 C   0  0  0  0  0  0  0  0  0  0  0  0
   13.2681   -6.0915   22.4120 C   0  0  0  0  0  0  0  0  0  0  0  0
   12.0301   -5.5509   22.0233 C   0  0  0  0  0  0  0  0  0  0  0  0
   10.2929   -4.1210   19.2168 C   0  0  0  0  0  0  0  0  0  0  0  0
   10.4075   -5.0951   20.2460 O   0  0  0  0  0  0  0  0  0  0  0  0
   13.6513   -6.0158   23.7562 O   0  0  0  0  0  0  0  0  0  0  0  0
   14.9014   -6.4987   24.2298 C   0  0  0  0  0  0  0  0  0  0  0  0
   11.2426   -4.9586   23.0253 O   0  0  0  0  0  0  0  0  0  0  0  0
   10.8710   -3.5884   23.0680 C   0  0  0  0  0  0  0  0  0  0  0  0
   15.3814   -8.9683   16.0436 C   0  0  0  0  0  0  0  0  0  0  0  0
   16.5786   -8.4923   15.3574 N   0  0  0  0  0  0  0  0  0  0  0  0
   17.6046   -9.5398   15.3564 C   0  0  0  0  0  0  0  0  0  0  0  0
   17.2123  -10.7399   14.4791 C   0  0  0  0  0  0  0  0  0  0  0  0
   16.8825  -10.3414   13.1061 N   0  0  0  0  0  0  0  0  0  0  0  0
   15.8547   -9.2963   13.1086 C   0  0  0  0  0  0  0  0  0  0  0  0
   16.2443   -8.0952   13.9862 C   0  0  0  0  0  0  0  0  0  0  0  0
   18.0813   -9.8568   12.4205 C   0  0  0  0  0  0  0  0  0  0  0  0
   17.8164   -9.5221   10.9818 C   0  0  0  0  0  0  0  0  0  0  0  0
   16.6980  -10.0449   10.2837 C   0  0  0  0  0  0  0  0  0  0  0  0
   16.4720   -9.7129    8.9360 C   0  0  0  0  0  0  0  0  0  0  0  0
   17.3842   -8.8576    8.3247 C   0  0  0  0  0  0  0  0  0  0  0  0
   18.4554   -8.3532    8.9877 C   0  0  0  0  0  0  0  0  0  0  0  0
   18.7112   -8.6590   10.3217 C   0  0  0  0  0  0  0  0  0  0  0  0
   19.1803   -7.5406    8.1391 O   0  0  0  0  0  0  0  0  0  0  0  0
   18.5248   -7.5337    6.8631 C   0  0  0  0  0  0  0  0  0  0  0  0
   17.3832   -8.3871    7.0269 O   0  0  0  0  0  0  0  0  0  0  0  0
 12 13  1  0  0  0
 13  6  1  0  0  0
  6  7  2  0  0  0
  7  8  1  0  0  0
  8  1  1  0  0  0
  8  9  2  0  0  0
  1  2  2  0  0  0
  2  3  1  0  0  0
  3 18  1  0  0  0
  3  4  2  0  0  0
 18 19  1  0  0  0
 19 20  1  0  0  0
 20 21  1  0  0  0
 21 22  1  0  0  0
 22 25  1  0  0  0
 22 23  1  0  0  0
 25 26  1  0  0  0
 26 27  2  0  0  0
 27 28  1  0  0  0
 28 29  2  0  0  0
 29 30  1  0  0  0
 30 31  2  0  0  0
 30 32  1  0  0  0
 31 26  1  0  0  0
 32 33  1  0  0  0
 33 34  1  0  0  0
 34 29  1  0  0  0
 23 24  1  0  0  0
 24 19  1  0  0  0
  4  5  1  0  0  0
  5  1  1  0  0  0
  9 10  1  0  0  0
 10 14  1  0  0  0
 10 11  2  0  0  0
 14 15  1  0  0  0
 11 16  1  0  0  0
 11  6  1  0  0  0
 16 17  1  0  0  0
M  END
>  <minimizedAffinity>
-7.54533

>  <minimizedRMSD>
1.98946

$$$$
CHEMBL523766 PubChem-25232716


 26 28  0  0  0  0  0  0  0  0999 V2000
   11.5153   -7.2671   17.8754 C   0  0  0  0  0  0  0  0  0  0  0  0
   12.9036   -7.2612   18.3018 N   0  0  0  0  0  0  0  0  0  0  0  0
   13.9699   -7.4681   17.3238 C   0  0  0  0  0  0  0  0  0  0  0  0
   15.1711   -8.1754   17.9718 C   0  0  0  0  0  0  0  0  0  0  0  0
   15.6693   -7.4219   19.2181 C   0  0  0  0  0  0  0  0  0  0  0  0
   14.5439   -7.0202   20.0559 N   0  0  0  0  0  0  0  0  0  0  0  0
   14.5633   -6.6368   21.3410 C   0  0  0  0  0  0  0  0  0  0  0  0
   13.2434   -6.3485   21.6604 C   0  0  0  0  0  0  0  0  0  0  0  0
   12.4188   -6.5364   20.6048 N   0  0  0  0  0  0  0  0  0  0  0  0
   13.2713   -6.9432   19.6450 C   0  0  0  0  0  0  0  0  0  0  0  0
   12.7888   -5.9015   22.9398 N   0  0  0  0  0  0  0  0  0  0  0  0
   13.5795   -5.8297   23.9026 O   0  0  0  0  0  0  0  0  0  0  0  0
   11.4718   -5.5473   23.1169 O   0  0  0  0  0  0  0  0  0  0  0  0
   16.2078   -8.2919   17.0456 O   0  0  0  0  0  0  0  0  0  0  0  0
   16.1394   -9.6130   16.5964 C   0  0  0  0  0  0  0  0  0  0  0  0
   16.6782   -9.7074   15.2115 C   0  0  0  0  0  0  0  0  0  0  0  0
   15.9574   -9.1577   14.1479 C   0  0  0  0  0  0  0  0  0  0  0  0
   16.4535   -9.2506   12.8445 C   0  0  0  0  0  0  0  0  0  0  0  0
   17.6753   -9.8977   12.5950 C   0  0  0  0  0  0  0  0  0  0  0  0
   18.3893  -10.4494   13.6641 C   0  0  0  0  0  0  0  0  0  0  0  0
   17.8936  -10.3569   14.9680 C   0  0  0  0  0  0  0  0  0  0  0  0
   18.2030  -10.0088   11.3021 O   0  0  0  0  0  0  0  0  0  0  0  0
   17.5849   -9.4675   10.1366 C   0  0  0  0  0  0  0  0  0  0  0  0
   18.1957   -9.9952    9.0156 F   0  0  0  0  0  0  0  0  0  0  0  0
   16.2418   -9.7981   10.1144 F   0  0  0  0  0  0  0  0  0  0  0  0
   17.7265   -8.0914   10.1199 F   0  0  0  0  0  0  0  0  0  0  0  0
  1  2  1  0  0  0
  2  3  1  0  0  0
  3  4  1  0  0  0
  4 14  1  0  0  0
  4  5  1  0  0  0
 14 15  1  0  0  0
 15 16  1  0  0  0
 16 17  2  0  0  0
 17 18  1  0  0  0
 18 19  2  0  0  0
 19 22  1  0  0  0
 19 20  1  0  0  0
 22 23  1  0  0  0
 23 24  1  0  0  0
 23 25  1  0  0  0
 23 26  1  0  0  0
 20 21  2  0  0  0
 21 16  1  0  0  0
  5  6  1  0  0  0
  6  7  1  0  0  0
  7  8  2  0  0  0
  8 11  1  0  0  0
  8  9  1  0  0  0
 11 12  2  0  0  0
 11 13  1  0  0  0
  9 10  2  0  0  0
 10  2  1  0  0  0
 10  6  1  0  0  0
M  CHG 1  11   1
M  CHG 1  13  -1
M  END
>  <minimizedAffinity>
-7.53454

>  <minimizedRMSD>
1.68147

$$$$
CHEMBL3668770 PubChem-68284122


 37 40  0  0  0  0  0  0  0  0999 V2000
   16.9293  -11.0587   17.2201 C   0  0  0  0  0  0  0  0  0  0  0  0
   18.0456  -11.8581   16.5836 C   0  0  0  0  0  0  0  0  0  0  0  0
   18.2072  -11.3342   14.8524 S   0  0  0  0  0  0  0  0  0  0  0  0
   17.5059   -9.7011   15.2392 C   0  0  0  0  0  0  0  0  0  0  0  0
   16.8588   -9.7774   16.5429 N   0  0  0  0  0  0  0  0  0  0  0  0
   16.2955   -8.6270   17.1903 C   0  0  0  0  0  0  0  0  0  0  0  0
   16.3975   -7.4908   16.6530 O   0  0  0  0  0  0  0  0  0  0  0  0
   15.6684   -8.7644   18.4709 N   0  0  0  0  0  0  0  0  0  0  0  0
   15.8475   -9.5916   18.9738 H   0  0  0  0  0  0  0  0  0  0  0  0
   14.8027   -7.8004   19.0819 C   0  0  0  0  0  0  0  0  0  0  0  0
   15.1300   -7.0474   20.2019 C   0  0  0  0  0  0  0  0  0  0  0  0
   14.0588   -6.2957   20.5578 N   0  0  0  0  0  0  0  0  0  0  0  0
   13.0647   -6.5898   19.6900 C   0  0  0  0  0  0  0  0  0  0  0  0
   13.4854   -7.5203   18.7725 C   0  0  0  0  0  0  0  0  0  0  0  0
   12.6258   -8.0463   17.8084 C   0  0  0  0  0  0  0  0  0  0  0  0
   11.3052   -7.5676   17.7764 C   0  0  0  0  0  0  0  0  0  0  0  0
   10.8738   -6.5989   18.7066 C   0  0  0  0  0  0  0  0  0  0  0  0
   11.7553   -6.1024   19.6822 C   0  0  0  0  0  0  0  0  0  0  0  0
   10.4397   -8.0446   16.8506 F   0  0  0  0  0  0  0  0  0  0  0  0
   14.0261   -5.3901   21.6729 C   0  0  0  0  0  0  0  0  0  0  0  0
   15.0498   -5.2375   22.3910 O   0  0  0  0  0  0  0  0  0  0  0  0
   12.8464   -4.6547   21.9829 N   0  0  0  0  0  0  0  0  0  0  0  0
   12.0389   -4.7638   21.4304 H   0  0  0  0  0  0  0  0  0  0  0  0
   12.8385   -4.0372   22.7496 H   0  0  0  0  0  0  0  0  0  0  0  0
   16.5234   -9.3148   14.1798 C   0  0  0  0  0  0  0  0  0  0  0  0
   15.8011   -8.2910   14.3263 O   0  0  0  0  0  0  0  0  0  0  0  0
   16.4217  -10.1118   12.9984 N   0  0  0  0  0  0  0  0  0  0  0  0
   17.0322  -10.8768   12.8922 H   0  0  0  0  0  0  0  0  0  0  0  0
   15.4537   -9.8410   11.9443 C   0  0  0  0  0  0  0  0  0  0  0  0
   16.1477   -9.6815   10.6311 C   0  0  0  0  0  0  0  0  0  0  0  0
   17.3264   -8.9253   10.5272 C   0  0  0  0  0  0  0  0  0  0  0  0
   17.9716   -8.8068    9.2879 C   0  0  0  0  0  0  0  0  0  0  0  0
   17.4424   -9.4420    8.1607 C   0  0  0  0  0  0  0  0  0  0  0  0
   16.2709  -10.1956    8.2654 C   0  0  0  0  0  0  0  0  0  0  0  0
   15.6258  -10.3160    9.4988 C   0  0  0  0  0  0  0  0  0  0  0  0
   19.4445   -7.8681    9.1328 Cl  0  0  0  0  0  0  0  0  0  0  0  0
   17.8427   -8.3115   11.6228 F   0  0  0  0  0  0  0  0  0  0  0  0
  1  2  1  0  0  0
  2  3  1  0  0  0
  3  4  1  0  0  0
  4  5  1  0  0  0
  4 25  1  0  0  0
  5  6  1  0  0  0
  5  1  1  0  0  0
  6  7  2  0  0  0
  6  8  1  0  0  0
  8 10  1  0  0  0
 10 11  2  0  0  0
 11 12  1  0  0  0
 12 13  1  0  0  0
 12 20  1  0  0  0
 13 14  2  0  0  0
 14 15  1  0  0  0
 14 10  1  0  0  0
 15 16  2  0  0  0
 16 17  1  0  0  0
 16 19  1  0  0  0
 17 18  2  0  0  0
 18 13  1  0  0  0
 20 21  2  0  0  0
 20 22  1  0  0  0
 25 26  2  0  0  0
 25 27  1  0  0  0
 27 29  1  0  0  0
 29 30  1  0  0  0
 30 31  2  0  0  0
 31 32  1  0  0  0
 31 37  1  0  0  0
 32 33  2  0  0  0
 32 36  1  0  0  0
 33 34  1  0  0  0
 34 35  2  0  0  0
 35 30  1  0  0  0
  8  9  1  0  0  0
 22 23  1  0  0  0
 22 24  1  0  0  0
 27 28  1  0  0  0
M  END
>  <minimizedAffinity>
-7.52930

>  <minimizedRMSD>
1.67736

$$$$
CHEMBL4454884


 31 33  0  0  0  0  0  0  0  0999 V2000
   16.3672   -8.1859   13.9563 C   0  0  0  0  0  0  0  0  0  0  0  0
   16.1910   -8.3952   15.3852 N   0  0  0  0  0  0  0  0  0  0  0  0
   15.3702   -7.6808   16.1311 N   0  0  0  0  0  0  0  0  0  0  0  0
   15.4899   -8.1407   17.3895 C   0  0  0  0  0  0  0  0  0  0  0  0
   16.4178   -9.1718   17.4429 C   0  0  0  0  0  0  0  0  0  0  0  0
   16.8477   -9.3019   16.1322 C   0  0  0  0  0  0  0  0  0  0  0  0
   14.7322   -7.6052   18.5331 C   0  0  0  0  0  0  0  0  0  0  0  0
   13.4465   -7.0848   18.3432 C   0  0  0  0  0  0  0  0  0  0  0  0
   12.7205   -6.5751   19.4225 C   0  0  0  0  0  0  0  0  0  0  0  0
   13.2770   -6.5811   20.7112 C   0  0  0  0  0  0  0  0  0  0  0  0
   14.5692   -7.1033   20.9070 C   0  0  0  0  0  0  0  0  0  0  0  0
   15.2862   -7.6106   19.8197 C   0  0  0  0  0  0  0  0  0  0  0  0
   15.3226   -7.1399   22.4950 Cl  0  0  0  0  0  0  0  0  0  0  0  0
   11.4766   -6.0773   19.2072 F   0  0  0  0  0  0  0  0  0  0  0  0
   12.5185   -6.0524   21.8183 C   0  0  0  0  0  0  0  0  0  0  0  0
   11.9098   -5.6281   22.7064 N   0  0  0  0  0  0  0  0  0  0  0  0
   16.1948   -9.4937   13.1943 C   0  0  0  0  0  0  0  0  0  0  0  0
   14.8316  -10.0867   13.4930 C   0  0  0  0  0  0  0  0  0  0  0  0
   17.5092   -9.5021   11.0310 C   0  0  0  0  0  0  0  0  0  0  0  0
   18.5216   -9.9780   11.6131 O   0  0  0  0  0  0  0  0  0  0  0  0
   16.3074   -9.2506   11.7642 N   0  0  0  0  0  0  0  0  0  0  0  0
   15.5246   -8.8987   11.2818 H   0  0  0  0  0  0  0  0  0  0  0  0
   17.0121   -9.2364    7.5079 N   0  0  0  0  0  0  0  0  0  0  0  0
   18.1028   -8.4598    7.6488 C   0  0  0  0  0  0  0  0  0  0  0  0
   18.5003   -8.4050    8.9732 C   0  0  0  0  0  0  0  0  0  0  0  0
   17.5602   -9.2077    9.5949 C   0  0  0  0  0  0  0  0  0  0  0  0
   16.6794   -9.6950    8.7017 N   0  0  0  0  0  0  0  0  0  0  0  0
   16.5442   -9.4289    6.6633 H   0  0  0  0  0  0  0  0  0  0  0  0
   18.7668   -7.7717    6.5340 C   0  0  0  0  0  0  0  0  0  0  0  0
   19.1538   -6.5806    6.6648 O   0  0  0  0  0  0  0  0  0  0  0  0
   18.9900   -8.4720    5.2391 C   0  0  0  0  0  0  0  0  0  0  0  0
 23 24  1  0  0  0
 24 25  2  0  0  0
 25 26  1  0  0  0
 26 27  2  0  0  0
 26 19  1  0  0  0
 19 20  2  0  0  0
 19 21  1  0  0  0
 21 17  1  0  0  0
 17  1  1  0  0  0
  1  2  1  0  0  0
  2  3  1  0  0  0
  3  4  2  0  0  0
  4  7  1  0  0  0
  7  8  2  0  0  0
  8  9  1  0  0  0
  9 10  2  0  0  0
 10 11  1  0  0  0
 11 12  2  0  0  0
 11 13  1  0  0  0
 10 15  1  0  0  0
 15 16  3  0  0  0
  9 14  1  0  0  0
  4  5  1  0  0  0
  5  6  2  0  0  0
 17 18  1  0  0  0
 24 29  1  0  0  0
 29 30  2  0  0  0
 29 31  1  0  0  0
 27 23  1  0  0  0
  6  2  1  0  0  0
 12  7  1  0  0  0
 23 28  1  0  0  0
 21 22  1  0  0  0
M  END
>  <minimizedAffinity>
-7.51158

>  <minimizedRMSD>
0.91057

$$$$
CHEMBL3193956 LN00668793 MolPort-002-627-831 PubChem-9689326 ZINC09308396


 34 37  0  0  0  0  0  0  0  0999 V2000
   14.9515   -7.0125   20.0740 C   0  0  0  0  0  0  0  0  0  0  0  0
   14.0200   -6.1917   20.6965 C   0  0  0  0  0  0  0  0  0  0  0  0
   14.5887   -5.7858   21.8525 N   0  0  0  0  0  0  0  0  0  0  0  0
   15.7961   -6.3214   21.9288 N   0  0  0  0  0  0  0  0  0  0  0  0
   16.0424   -7.0710   20.8647 N   0  0  0  0  0  0  0  0  0  0  0  0
   14.0366   -4.9605   22.8860 C   0  0  0  0  0  0  0  0  0  0  0  0
   14.6820   -3.9272   23.4514 N   0  0  0  0  0  0  0  0  0  0  0  0
   13.9073   -3.5257   24.4235 O   0  0  0  0  0  0  0  0  0  0  0  0
   12.8158   -4.2300   24.5581 N   0  0  0  0  0  0  0  0  0  0  0  0
   12.8731   -5.1525   23.5858 C   0  0  0  0  0  0  0  0  0  0  0  0
   11.9647   -6.2411   23.4616 N   0  0  0  0  0  0  0  0  0  0  0  0
   11.1552   -6.2729   24.0211 H   0  0  0  0  0  0  0  0  0  0  0  0
   12.1457   -6.9622   22.8163 H   0  0  0  0  0  0  0  0  0  0  0  0
   12.7219   -5.7342   20.1683 C   0  0  0  0  0  0  0  0  0  0  0  0
   11.5592   -6.4860   20.1048 C   0  0  0  0  0  0  0  0  0  0  0  0
   10.4812   -5.7751   19.5581 C   0  0  0  0  0  0  0  0  0  0  0  0
   10.7815   -4.4660   19.1891 C   0  0  0  0  0  0  0  0  0  0  0  0
   12.4031   -4.2073   19.5520 S   0  0  0  0  0  0  0  0  0  0  0  0
   16.0738   -8.1974   18.1752 N   0  0  0  0  0  0  0  0  0  0  0  0
   14.8857   -7.6537   18.7497 C   0  0  0  0  0  0  0  0  0  0  0  0
   13.8007   -7.7091   18.1125 O   0  0  0  0  0  0  0  0  0  0  0  0
   16.9213   -8.1435   18.6733 H   0  0  0  0  0  0  0  0  0  0  0  0
   16.7627   -8.3185   15.9506 C   0  0  0  0  0  0  0  0  0  0  0  0
   16.0530   -8.8057   16.9152 N   0  0  0  0  0  0  0  0  0  0  0  0
   16.6880  -10.0354   12.0193 C   0  0  0  0  0  0  0  0  0  0  0  0
   17.7600  -10.3087   12.8706 C   0  0  0  0  0  0  0  0  0  0  0  0
   17.8256   -9.7699   14.1615 C   0  0  0  0  0  0  0  0  0  0  0  0
   16.7715   -8.9253   14.6091 C   0  0  0  0  0  0  0  0  0  0  0  0
   15.6979   -8.6568   13.7454 C   0  0  0  0  0  0  0  0  0  0  0  0
   15.6539   -9.2043   12.4643 C   0  0  0  0  0  0  0  0  0  0  0  0
   15.9214  -10.0582    9.6675 C   0  0  0  0  0  0  0  0  0  0  0  0
   16.6768  -10.6016   10.7416 O   0  0  0  0  0  0  0  0  0  0  0  0
   18.9539  -10.1174   14.9239 O   0  0  0  0  0  0  0  0  0  0  0  0
   19.7032   -9.2366   15.7484 C   0  0  0  0  0  0  0  0  0  0  0  0
 31 32  1  0  0  0
 32 25  1  0  0  0
 25 26  2  0  0  0
 26 27  1  0  0  0
 27 33  1  0  0  0
 27 28  2  0  0  0
 33 34  1  0  0  0
 28 23  1  0  0  0
 28 29  1  0  0  0
 23 24  2  0  0  0
 24 19  1  0  0  0
 19 20  1  0  0  0
 20 21  2  0  0  0
 20  1  1  0  0  0
  1  2  2  0  0  0
  2  3  1  0  0  0
  2 14  1  0  0  0
  3  4  1  0  0  0
  3  6  1  0  0  0
  4  5  2  0  0  0
  5  1  1  0  0  0
  6  7  2  0  0  0
  7  8  1  0  0  0
  8  9  1  0  0  0
  9 10  2  0  0  0
 10 11  1  0  0  0
 10  6  1  0  0  0
 14 15  2  0  0  0
 15 16  1  0  0  0
 16 17  2  0  0  0
 17 18  1  0  0  0
 18 14  1  0  0  0
 29 30  2  0  0  0
 30 25  1  0  0  0
 19 22  1  0  0  0
 11 12  1  0  0  0
 11 13  1  0  0  0
M  END
>  <minimizedAffinity>
-7.50912

>  <minimizedRMSD>
1.92623

$$$$
CHEMBL3754725 PubChem-127036184


 33 37  0  0  0  0  0  0  0  0999 V2000
   16.8402   -9.6235   14.6126 C   0  0  0  0  0  0  0  0  0  0  0  0
   16.2664   -9.0241   15.7274 C   0  0  0  0  0  0  0  0  0  0  0  0
   16.6144   -9.6471   16.9429 C   0  0  0  0  0  0  0  0  0  0  0  0
   16.1097   -9.1507   18.1403 C   0  0  0  0  0  0  0  0  0  0  0  0
   15.2573   -8.0310   18.1156 C   0  0  0  0  0  0  0  0  0  0  0  0
   14.9398   -7.4445   16.8711 C   0  0  0  0  0  0  0  0  0  0  0  0
   15.4440   -7.9450   15.7082 N   0  0  0  0  0  0  0  0  0  0  0  0
   17.4414  -10.7215   16.8667 N   0  0  0  0  0  0  0  0  0  0  0  0
   17.7402  -10.8903   15.2346 S   0  0  0  0  0  0  0  0  0  0  0  0
   16.8441   -9.8858    9.0948 C   0  0  0  0  0  0  0  0  0  0  0  0
   16.0237  -10.6542    8.5206 O   0  0  0  0  0  0  0  0  0  0  0  0
   16.8472   -9.8091   10.5314 N   0  0  0  0  0  0  0  0  0  0  0  0
   18.0976   -9.6039   11.2639 C   0  0  0  0  0  0  0  0  0  0  0  0
   17.8420   -8.7309   12.4879 C   0  0  0  0  0  0  0  0  0  0  0  0
   16.7037   -9.2623   13.2298 N   0  0  0  0  0  0  0  0  0  0  0  0
   15.4493   -9.4471   12.5072 C   0  0  0  0  0  0  0  0  0  0  0  0
   15.6962  -10.3171   11.2784 C   0  0  0  0  0  0  0  0  0  0  0  0
   17.7618   -9.0722    8.2637 C   0  0  0  0  0  0  0  0  0  0  0  0
   17.8104   -9.2732    6.8755 C   0  0  0  0  0  0  0  0  0  0  0  0
   18.6531   -8.4968    6.0746 C   0  0  0  0  0  0  0  0  0  0  0  0
   19.4502   -7.5065    6.6539 C   0  0  0  0  0  0  0  0  0  0  0  0
   19.4023   -7.2908    8.0333 C   0  0  0  0  0  0  0  0  0  0  0  0
   18.5593   -8.0677    8.8331 C   0  0  0  0  0  0  0  0  0  0  0  0
   14.7024   -7.4773   19.3735 C   0  0  0  0  0  0  0  0  0  0  0  0
   13.4181   -6.9129   19.3999 C   0  0  0  0  0  0  0  0  0  0  0  0
   12.8823   -6.3854   20.5859 C   0  0  0  0  0  0  0  0  0  0  0  0
   13.6413   -6.4221   21.7648 C   0  0  0  0  0  0  0  0  0  0  0  0
   14.9265   -6.9856   21.7431 C   0  0  0  0  0  0  0  0  0  0  0  0
   15.4507   -7.5076   20.5594 C   0  0  0  0  0  0  0  0  0  0  0  0
   13.1006   -5.8945   22.9425 O   0  0  0  0  0  0  0  0  0  0  0  0
   13.9014   -5.5086   24.0515 C   0  0  0  0  0  0  0  0  0  0  0  0
   11.6018   -5.8221   20.6145 O   0  0  0  0  0  0  0  0  0  0  0  0
   11.1597   -4.8679   19.6587 C   0  0  0  0  0  0  0  0  0  0  0  0
 10 11  2  0  0  0
 10 18  1  0  0  0
 18 19  2  0  0  0
 19 20  1  0  0  0
 20 21  2  0  0  0
 21 22  1  0  0  0
 22 23  2  0  0  0
 10 12  1  0  0  0
 12 13  1  0  0  0
 13 14  1  0  0  0
 14 15  1  0  0  0
 15 16  1  0  0  0
 16 17  1  0  0  0
 15  1  1  0  0  0
  1  2  2  0  0  0
  2  3  1  0  0  0
  3  4  1  0  0  0
  4  5  2  0  0  0
  5  6  1  0  0  0
  6  7  2  0  0  0
  5 24  1  0  0  0
 24 25  2  0  0  0
 25 26  1  0  0  0
 26 27  2  0  0  0
 27 28  1  0  0  0
 28 29  2  0  0  0
 27 30  1  0  0  0
 30 31  1  0  0  0
 26 32  1  0  0  0
 32 33  1  0  0  0
  3  8  2  0  0  0
  8  9  1  0  0  0
 23 18  1  0  0  0
 17 12  1  0  0  0
  9  1  1  0  0  0
  7  2  1  0  0  0
 29 24  1  0  0  0
M  END
>  <minimizedAffinity>
-7.50311

>  <minimizedRMSD>
1.57175

$$$$
CHEMBL4065009 PubChem-137637929


 36 40  0  0  0  0  0  0  0  0999 V2000
   16.1988   -7.8876   15.6050 C   0  0  0  0  0  0  0  0  0  0  0  0
   16.6938   -9.1816   15.6780 C   0  0  0  0  0  0  0  0  0  0  0  0
   16.5253   -9.9466   16.7824 C   0  0  0  0  0  0  0  0  0  0  0  0
   15.8496   -9.4821   17.9026 C   0  0  0  0  0  0  0  0  0  0  0  0
   15.3395   -8.1629   17.8372 C   0  0  0  0  0  0  0  0  0  0  0  0
   15.5290   -7.4122   16.6981 N   0  0  0  0  0  0  0  0  0  0  0  0
   17.1076  -11.1429   16.5784 N   0  0  0  0  0  0  0  0  0  0  0  0
   17.6232  -11.0870   15.3498 N   0  0  0  0  0  0  0  0  0  0  0  0
   17.3810   -9.9058   14.7874 N   0  0  0  0  0  0  0  0  0  0  0  0
   14.6076   -7.5838   18.9841 C   0  0  0  0  0  0  0  0  0  0  0  0
   15.0049   -7.8482   20.3000 C   0  0  0  0  0  0  0  0  0  0  0  0
   14.3081   -7.2931   21.3734 C   0  0  0  0  0  0  0  0  0  0  0  0
   13.1987   -6.4585   21.1656 C   0  0  0  0  0  0  0  0  0  0  0  0
   12.7883   -6.1989   19.8330 C   0  0  0  0  0  0  0  0  0  0  0  0
   13.4957   -6.7619   18.7658 C   0  0  0  0  0  0  0  0  0  0  0  0
   11.3804   -5.2324   19.4146 Cl  0  0  0  0  0  0  0  0  0  0  0  0
   12.5237   -5.8996   22.3643 C   0  0  0  0  0  0  0  0  0  0  0  0
   13.1747   -5.7713   23.4380 O   0  0  0  0  0  0  0  0  0  0  0  0
   11.1614   -5.4712   22.3175 N   0  0  0  0  0  0  0  0  0  0  0  0
   10.6635   -5.5603   21.4729 H   0  0  0  0  0  0  0  0  0  0  0  0
   10.4861   -4.9086   23.4746 C   0  0  0  0  0  0  0  0  0  0  0  0
   10.3528   -3.4109   23.3004 C   0  0  0  0  0  0  0  0  0  0  0  0
   17.8121   -9.4984   13.4572 C   0  0  0  0  0  0  0  0  0  0  0  0
   18.6175  -10.6169   12.7946 C   0  0  0  0  0  0  0  0  0  0  0  0
   19.0230  -10.2015   11.3825 C   0  0  0  0  0  0  0  0  0  0  0  0
   17.8756   -9.6921   10.6234 N   0  0  0  0  0  0  0  0  0  0  0  0
   16.5455   -9.6669   11.2332 C   0  0  0  0  0  0  0  0  0  0  0  0
   16.6058   -9.0319   12.6240 C   0  0  0  0  0  0  0  0  0  0  0  0
   18.0470   -9.2776    9.2600 C   0  0  0  0  0  0  0  0  0  0  0  0
   17.4488   -9.9710    8.2511 N   0  0  0  0  0  0  0  0  0  0  0  0
   17.5992   -9.5944    6.9546 C   0  0  0  0  0  0  0  0  0  0  0  0
   18.3738   -8.4789    6.6406 C   0  0  0  0  0  0  0  0  0  0  0  0
   18.9847   -7.7805    7.6806 C   0  0  0  0  0  0  0  0  0  0  0  0
   18.8101   -8.1883    8.9645 N   0  0  0  0  0  0  0  0  0  0  0  0
   18.5673   -8.0594    5.2250 C   0  0  0  0  0  0  0  0  0  0  0  0
   19.9881   -7.5729    5.0130 C   0  0  0  0  0  0  0  0  0  0  0  0
  1  2  2  0  0  0
  2  3  1  0  0  0
  3  4  2  0  0  0
  4  5  1  0  0  0
  5  6  2  0  0  0
  5 10  1  0  0  0
 10 11  2  0  0  0
 11 12  1  0  0  0
 12 13  2  0  0  0
 13 14  1  0  0  0
 14 15  2  0  0  0
 14 16  1  0  0  0
 13 17  1  0  0  0
 17 18  2  0  0  0
 17 19  1  0  0  0
 19 21  1  0  0  0
 21 22  1  0  0  0
  3  7  1  0  0  0
  7  8  2  0  0  0
  8  9  1  0  0  0
  9 23  1  0  0  0
 23 24  1  0  0  0
 24 25  1  0  0  0
 25 26  1  0  0  0
 26 27  1  0  0  0
 27 28  1  0  0  0
 26 29  1  0  0  0
 29 30  2  0  0  0
 30 31  1  0  0  0
 31 32  2  0  0  0
 32 33  1  0  0  0
 33 34  2  0  0  0
 32 35  1  0  0  0
 35 36  1  0  0  0
  6  1  1  0  0  0
 15 10  1  0  0  0
 28 23  1  0  0  0
 34 29  1  0  0  0
  9  2  1  0  0  0
 19 20  1  0  0  0
M  END
>  <minimizedAffinity>
-7.49754

>  <minimizedRMSD>
1.83172

$$$$
CHEMBL214427 PubChem-44416363


 33 37  0  0  0  0  0  0  0  0999 V2000
   15.7925   -8.6214   17.0749 N   0  0  0  0  0  0  0  0  0  0  0  0
   16.6709   -9.6641   17.2780 C   0  0  0  0  0  0  0  0  0  0  0  0
   17.2994  -10.2791   16.2323 N   0  0  0  0  0  0  0  0  0  0  0  0
   17.0413   -9.8404   14.9804 C   0  0  0  0  0  0  0  0  0  0  0  0
   17.5498  -10.2941   13.7844 C   0  0  0  0  0  0  0  0  0  0  0  0
   16.9212   -9.4468   12.8604 C   0  0  0  0  0  0  0  0  0  0  0  0
   16.1211   -8.5779   13.4581 O   0  0  0  0  0  0  0  0  0  0  0  0
   16.1920   -8.8148   14.7402 C   0  0  0  0  0  0  0  0  0  0  0  0
   15.5486   -8.1761   15.7908 C   0  0  0  0  0  0  0  0  0  0  0  0
   14.7812   -7.2025   15.5593 O   0  0  0  0  0  0  0  0  0  0  0  0
   17.1116   -9.4971   11.4019 C   0  0  0  0  0  0  0  0  0  0  0  0
   18.3097   -9.0569   10.8199 C   0  0  0  0  0  0  0  0  0  0  0  0
   18.4811   -9.1087    9.4334 C   0  0  0  0  0  0  0  0  0  0  0  0
   17.4562   -9.6007    8.6208 C   0  0  0  0  0  0  0  0  0  0  0  0
   17.6707   -9.6655    6.8850 Cl  0  0  0  0  0  0  0  0  0  0  0  0
   16.2600  -10.0409    9.1938 C   0  0  0  0  0  0  0  0  0  0  0  0
   16.0884   -9.9892   10.5802 C   0  0  0  0  0  0  0  0  0  0  0  0
   13.1867   -7.0694   19.3185 C   0  0  0  0  0  0  0  0  0  0  0  0
   13.8123   -7.6259   18.1915 C   0  0  0  0  0  0  0  0  0  0  0  0
   15.1567   -8.0292   18.2312 C   0  0  0  0  0  0  0  0  0  0  0  0
   15.8669   -7.8798   19.4331 C   0  0  0  0  0  0  0  0  0  0  0  0
   15.2531   -7.3285   20.5588 C   0  0  0  0  0  0  0  0  0  0  0  0
   13.9120   -6.9189   20.5087 C   0  0  0  0  0  0  0  0  0  0  0  0
   10.8618   -7.3380   18.5108 C   0  0  0  0  0  0  0  0  0  0  0  0
   11.8490   -6.6614   19.2773 O   0  0  0  0  0  0  0  0  0  0  0  0
   13.2817   -6.3625   21.6264 O   0  0  0  0  0  0  0  0  0  0  0  0
   13.8972   -5.3795   22.4491 C   0  0  0  0  0  0  0  0  0  0  0  0
   14.2808   -5.9904   23.7854 C   0  0  0  0  0  0  0  0  0  0  0  0
   14.0521   -5.0345   24.8570 N   0  0  0  0  0  0  0  0  0  0  0  0
   12.6117   -4.8970   25.0138 C   0  0  0  0  0  0  0  0  0  0  0  0
   12.3229   -4.7510   26.4915 C   0  0  0  0  0  0  0  0  0  0  0  0
   13.5627   -5.2478   27.1925 C   0  0  0  0  0  0  0  0  0  0  0  0
   14.5118   -5.6579   26.0878 C   0  0  0  0  0  0  0  0  0  0  0  0
 24 25  1  0  0  0
 25 18  1  0  0  0
 18 19  2  0  0  0
 19 20  1  0  0  0
 20  1  1  0  0  0
 20 21  2  0  0  0
  1  2  1  0  0  0
  2  3  2  0  0  0
  3  4  1  0  0  0
  4  5  1  0  0  0
  5  6  2  0  0  0
  6 11  1  0  0  0
  6  7  1  0  0  0
 11 12  2  0  0  0
 12 13  1  0  0  0
 13 14  2  0  0  0
 14 15  1  0  0  0
 14 16  1  0  0  0
 16 17  2  0  0  0
 17 11  1  0  0  0
  7  8  1  0  0  0
  8  9  1  0  0  0
  8  4  2  0  0  0
  9 10  2  0  0  0
  9  1  1  0  0  0
 21 22  1  0  0  0
 22 23  2  0  0  0
 23 26  1  0  0  0
 23 18  1  0  0  0
 26 27  1  0  0  0
 27 28  1  0  0  0
 28 29  1  0  0  0
 29 30  1  0  0  0
 30 31  1  0  0  0
 31 32  1  0  0  0
 32 33  1  0  0  0
 33 29  1  0  0  0
M  END
>  <minimizedAffinity>
-7.49161

>  <minimizedRMSD>
1.90045

$$$$
CHEMBL2361867 PubChem-46942920


 37 40  0  0  0  0  0  0  0  0999 V2000
   16.2008  -10.3471   11.5259 N   0  0  0  0  0  0  0  0  0  0  0  0
   17.0585  -10.8343   12.5638 C   0  0  0  0  0  0  0  0  0  0  0  0
   17.9476  -11.6886   12.2955 O   0  0  0  0  0  0  0  0  0  0  0  0
   16.9083  -10.3512   13.9060 N   0  0  0  0  0  0  0  0  0  0  0  0
   17.7542  -10.9026   14.9672 C   0  0  0  0  0  0  0  0  0  0  0  0
   18.2244   -9.7879   15.8900 C   0  0  0  0  0  0  0  0  0  0  0  0
   17.0415   -9.0440   16.4170 C   0  0  0  0  0  0  0  0  0  0  0  0
   17.0602   -8.5523   17.6832 N   0  0  0  0  0  0  0  0  0  0  0  0
   16.0002   -7.8657   18.1861 C   0  0  0  0  0  0  0  0  0  0  0  0
   14.8984   -7.6665   17.4110 N   0  0  0  0  0  0  0  0  0  0  0  0
   14.8352   -8.1454   16.1416 C   0  0  0  0  0  0  0  0  0  0  0  0
   15.9098   -8.8553   15.6119 C   0  0  0  0  0  0  0  0  0  0  0  0
   15.8414   -9.3854   14.2063 C   0  0  0  0  0  0  0  0  0  0  0  0
   15.4768   -9.7250   11.7668 H   0  0  0  0  0  0  0  0  0  0  0  0
   16.0684   -7.3612   19.5268 N   0  0  0  0  0  0  0  0  0  0  0  0
   16.9673   -7.2945   19.9228 H   0  0  0  0  0  0  0  0  0  0  0  0
   14.9756   -6.9428   20.3564 C   0  0  0  0  0  0  0  0  0  0  0  0
   15.1851   -6.8155   21.7285 C   0  0  0  0  0  0  0  0  0  0  0  0
   14.1535   -6.4049   22.5881 C   0  0  0  0  0  0  0  0  0  0  0  0
   12.8738   -6.1151   22.0491 C   0  0  0  0  0  0  0  0  0  0  0  0
   12.6628   -6.2463   20.6662 C   0  0  0  0  0  0  0  0  0  0  0  0
   13.7126   -6.6565   19.8328 C   0  0  0  0  0  0  0  0  0  0  0  0
   14.3936   -6.2849   23.9619 O   0  0  0  0  0  0  0  0  0  0  0  0
   15.3821   -7.0446   24.6455 C   0  0  0  0  0  0  0  0  0  0  0  0
   11.7836   -5.6962   22.8301 O   0  0  0  0  0  0  0  0  0  0  0  0
   11.5369   -4.3577   23.2365 C   0  0  0  0  0  0  0  0  0  0  0  0
   11.3975   -5.9612   20.1395 O   0  0  0  0  0  0  0  0  0  0  0  0
   10.9131   -6.5477   18.9390 C   0  0  0  0  0  0  0  0  0  0  0  0
   16.3525  -10.7315   10.1293 C   0  0  0  0  0  0  0  0  0  0  0  0
   18.6564   -7.7713    8.0338 C   0  0  0  0  0  0  0  0  0  0  0  0
   17.6990   -8.5390    7.3496 C   0  0  0  0  0  0  0  0  0  0  0  0
   16.9540   -9.5054    8.0309 C   0  0  0  0  0  0  0  0  0  0  0  0
   17.1617   -9.7145    9.3982 C   0  0  0  0  0  0  0  0  0  0  0  0
   18.1119   -8.9505   10.0833 C   0  0  0  0  0  0  0  0  0  0  0  0
   18.8570   -7.9838    9.4019 C   0  0  0  0  0  0  0  0  0  0  0  0
   19.9213   -6.9691    6.0650 C   0  0  0  0  0  0  0  0  0  0  0  0
   19.4166   -6.7964    7.3823 O   0  0  0  0  0  0  0  0  0  0  0  0
 36 37  1  0  0  0
 37 30  1  0  0  0
 30 31  2  0  0  0
 31 32  1  0  0  0
 32 33  2  0  0  0
 33 29  1  0  0  0
 33 34  1  0  0  0
 29  1  1  0  0  0
  1  2  1  0  0  0
  2  3  2  0  0  0
  2  4  1  0  0  0
  4  5  1  0  0  0
  5  6  1  0  0  0
  6  7  1  0  0  0
  7  8  2  0  0  0
  8  9  1  0  0  0
  9 15  1  0  0  0
  9 10  2  0  0  0
 15 17  1  0  0  0
 17 18  2  0  0  0
 18 19  1  0  0  0
 19 23  1  0  0  0
 19 20  2  0  0  0
 23 24  1  0  0  0
 20 25  1  0  0  0
 20 21  1  0  0  0
 25 26  1  0  0  0
 21 27  1  0  0  0
 21 22  2  0  0  0
 27 28  1  0  0  0
 22 17  1  0  0  0
 10 11  1  0  0  0
 11 12  2  0  0  0
 12 13  1  0  0  0
 12  7  1  0  0  0
 13  4  1  0  0  0
 34 35  2  0  0  0
 35 30  1  0  0  0
  1 14  1  0  0  0
 15 16  1  0  0  0
M  END
>  <minimizedAffinity>
-7.49141

>  <minimizedRMSD>
1.33176

$$$$
CHEMBL4519869 PubChem-135335104 PubChem-135335105


 35 39  0  0  0  0  0  0  0  0999 V2000
   16.5595   -9.3659   15.0961 C   0  0  0  0  0  0  0  0  0  0  0  0
   15.4445   -8.5927   15.4855 C   0  0  0  0  0  0  0  0  0  0  0  0
   15.3253   -8.2468   16.8285 C   0  0  0  0  0  0  0  0  0  0  0  0
   14.3331   -7.5197   17.3693 N   0  0  0  0  0  0  0  0  0  0  0  0
   14.6707   -7.4639   18.6835 C   0  0  0  0  0  0  0  0  0  0  0  0
   15.8581   -8.1555   18.9173 C   0  0  0  0  0  0  0  0  0  0  0  0
   16.2405   -8.6347   17.7261 N   0  0  0  0  0  0  0  0  0  0  0  0
   17.3300   -9.3757   17.4131 C   0  0  0  0  0  0  0  0  0  0  0  0
   17.5048   -9.7551   16.0750 C   0  0  0  0  0  0  0  0  0  0  0  0
   13.8552   -6.7512   19.6959 C   0  0  0  0  0  0  0  0  0  0  0  0
   12.5408   -6.4003   19.3565 C   0  0  0  0  0  0  0  0  0  0  0  0
   11.7153   -5.7285   20.2589 C   0  0  0  0  0  0  0  0  0  0  0  0
   12.1939   -5.3916   21.5303 C   0  0  0  0  0  0  0  0  0  0  0  0
   13.5064   -5.7377   21.8800 C   0  0  0  0  0  0  0  0  0  0  0  0
   14.3456   -6.4140   20.9792 C   0  0  0  0  0  0  0  0  0  0  0  0
   10.0802   -5.3176   19.7735 Cl  0  0  0  0  0  0  0  0  0  0  0  0
   15.6534   -6.7498   21.3498 O   0  0  0  0  0  0  0  0  0  0  0  0
   16.2024   -6.4343   22.6224 C   0  0  0  0  0  0  0  0  0  0  0  0
   11.3579   -4.7179   22.4277 O   0  0  0  0  0  0  0  0  0  0  0  0
   11.7501   -4.4037   23.7570 C   0  0  0  0  0  0  0  0  0  0  0  0
   17.2065   -9.5747   10.9780 N   0  0  0  0  0  0  0  0  0  0  0  0
   18.0265  -10.5154   11.7453 C   0  0  0  0  0  0  0  0  0  0  0  0
   18.0709  -10.0956   13.2136 C   0  0  0  0  0  0  0  0  0  0  0  0
   16.7351   -9.7507   13.7186 N   0  0  0  0  0  0  0  0  0  0  0  0
   15.5771   -9.8420   12.8257 C   0  0  0  0  0  0  0  0  0  0  0  0
   15.8912   -9.1689   11.4910 C   0  0  0  0  0  0  0  0  0  0  0  0
   18.5377   -8.1595    7.2482 C   0  0  0  0  0  0  0  0  0  0  0  0
   17.5765   -9.1173    7.3097 N   0  0  0  0  0  0  0  0  0  0  0  0
   17.1337   -9.5881    8.5043 C   0  0  0  0  0  0  0  0  0  0  0  0
   17.6642   -9.0912    9.7009 C   0  0  0  0  0  0  0  0  0  0  0  0
   18.6529   -8.1039    9.6105 C   0  0  0  0  0  0  0  0  0  0  0  0
   19.0689   -7.6593    8.3967 N   0  0  0  0  0  0  0  0  0  0  0  0
   20.3761   -7.3851    5.7054 C   0  0  0  0  0  0  0  0  0  0  0  0
   18.9806   -7.6869    5.9759 N   0  0  0  0  0  0  0  0  0  0  0  0
   18.3186   -7.5614    5.2581 H   0  0  0  0  0  0  0  0  0  0  0  0
 33 34  1  0  0  0
 34 27  1  0  0  0
 27 28  2  0  0  0
 28 29  1  0  0  0
 29 30  2  0  0  0
 30 31  1  0  0  0
 31 32  2  0  0  0
 30 21  1  0  0  0
 21 22  1  0  0  0
 22 23  1  0  0  0
 23 24  1  0  0  0
 24 25  1  0  0  0
 25 26  1  0  0  0
 24  1  1  0  0  0
  1  2  2  0  0  0
  2  3  1  0  0  0
  3  4  2  0  0  0
  4  5  1  0  0  0
  5  6  2  0  0  0
  6  7  1  0  0  0
  7  8  1  0  0  0
  8  9  2  0  0  0
  5 10  1  0  0  0
 10 11  2  0  0  0
 11 12  1  0  0  0
 12 13  2  0  0  0
 13 14  1  0  0  0
 14 15  2  0  0  0
 15 17  1  0  0  0
 17 18  1  0  0  0
 13 19  1  0  0  0
 19 20  1  0  0  0
 12 16  1  0  0  0
 32 27  1  0  0  0
 26 21  1  0  0  0
  9  1  1  0  0  0
  7  3  1  0  0  0
 15 10  1  0  0  0
 34 35  1  0  0  0
M  END
>  <minimizedAffinity>
-7.48703

>  <minimizedRMSD>
1.40636

$$$$
CHEMBL4994454 113704460 CSC027473660 MCULE-7843101085 MolPort-044-505-523 PubChem-126787875 Z1197677908 ZINC000113704460


 28 31  0  0  0  0  0  0  0  0999 V2000
   15.9124   -8.5630   17.3302 C   0  0  0  0  0  0  0  0  0  0  0  0
   15.8641   -8.4154   18.6671 N   0  0  0  0  0  0  0  0  0  0  0  0
   14.8406   -7.5443   18.8003 C   0  0  0  0  0  0  0  0  0  0  0  0
   14.3063   -7.1902   17.6139 N   0  0  0  0  0  0  0  0  0  0  0  0
   14.9974   -7.8419   16.7298 O   0  0  0  0  0  0  0  0  0  0  0  0
   16.5091   -9.2535   13.8028 N   0  0  0  0  0  0  0  0  0  0  0  0
   15.5483  -10.0397   14.5717 C   0  0  0  0  0  0  0  0  0  0  0  0
   16.2096  -10.5679   15.8440 C   0  0  0  0  0  0  0  0  0  0  0  0
   16.8978   -9.4472   16.6313 C   0  0  0  0  0  0  0  0  0  0  0  0
   17.8640   -8.6492   15.7489 C   0  0  0  0  0  0  0  0  0  0  0  0
   17.1818   -8.1453   14.4778 C   0  0  0  0  0  0  0  0  0  0  0  0
   17.0309  -10.1493    8.1934 C   0  0  0  0  0  0  0  0  0  0  0  0
   16.9141   -9.9092    9.6550 C   0  0  0  0  0  0  0  0  0  0  0  0
   15.7034  -10.1336   10.3116 C   0  0  0  0  0  0  0  0  0  0  0  0
   15.6033   -9.9118   11.6499 N   0  0  0  0  0  0  0  0  0  0  0  0
   16.6600   -9.4687   12.3900 C   0  0  0  0  0  0  0  0  0  0  0  0
   17.8908   -9.2363   11.7573 C   0  0  0  0  0  0  0  0  0  0  0  0
   18.0135   -9.4581   10.3849 C   0  0  0  0  0  0  0  0  0  0  0  0
   14.3616   -7.0381   20.0959 C   0  0  0  0  0  0  0  0  0  0  0  0
   13.1357   -6.3675   20.1830 C   0  0  0  0  0  0  0  0  0  0  0  0
   12.6690   -5.8800   21.4150 C   0  0  0  0  0  0  0  0  0  0  0  0
   13.4414   -6.0679   22.5715 C   0  0  0  0  0  0  0  0  0  0  0  0
   14.6708   -6.7408   22.4819 C   0  0  0  0  0  0  0  0  0  0  0  0
   15.1266   -7.2219   21.2531 C   0  0  0  0  0  0  0  0  0  0  0  0
   12.9698   -5.5796   23.7950 O   0  0  0  0  0  0  0  0  0  0  0  0
   13.7920   -5.4726   24.9492 C   0  0  0  0  0  0  0  0  0  0  0  0
   11.4452   -5.2088   21.5119 O   0  0  0  0  0  0  0  0  0  0  0  0
   10.6091   -4.9679   20.3883 C   0  0  0  0  0  0  0  0  0  0  0  0
 12 13  1  0  0  0
 13 14  2  0  0  0
 14 15  1  0  0  0
 15 16  2  0  0  0
 16 17  1  0  0  0
 17 18  2  0  0  0
 16  6  1  0  0  0
  6  7  1  0  0  0
  7  8  1  0  0  0
  8  9  1  0  0  0
  9 10  1  0  0  0
 10 11  1  0  0  0
  9  1  1  0  0  0
  1  2  2  0  0  0
  2  3  1  0  0  0
  3  4  2  0  0  0
  4  5  1  0  0  0
  3 19  1  0  0  0
 19 20  2  0  0  0
 20 21  1  0  0  0
 21 22  2  0  0  0
 22 23  1  0  0  0
 23 24  2  0  0  0
 22 25  1  0  0  0
 25 26  1  0  0  0
 21 27  1  0  0  0
 27 28  1  0  0  0
 18 13  1  0  0  0
 11  6  1  0  0  0
  5  1  1  0  0  0
 24 19  1  0  0  0
M  END
>  <minimizedAffinity>
-7.48155

>  <minimizedRMSD>
1.79512

$$$$
CHEMBL1707151 6558399 CSC026382811 MCULE-7249210232 MolPort-005-318-466 PubChem-4787798 Z30455685 ZINC000006558399 ZINC06558399


 27 28  0  0  0  0  0  0  0  0999 V2000
   16.1424   -8.1913   15.5246 C   0  0  0  0  0  0  0  0  0  0  0  0
   16.7666   -7.1132   15.3397 O   0  0  0  0  0  0  0  0  0  0  0  0
   15.7911   -9.0298   14.4228 N   0  0  0  0  0  0  0  0  0  0  0  0
   15.2434   -9.8295   14.5953 H   0  0  0  0  0  0  0  0  0  0  0  0
   15.7190   -8.5688   16.8984 C   0  0  0  0  0  0  0  0  0  0  0  0
   14.7035   -7.6798   17.3442 O   0  0  0  0  0  0  0  0  0  0  0  0
   13.3834   -6.6247   19.0718 C   0  0  0  0  0  0  0  0  0  0  0  0
   13.1903   -6.2959   20.4236 C   0  0  0  0  0  0  0  0  0  0  0  0
   14.1162   -6.6890   21.3992 C   0  0  0  0  0  0  0  0  0  0  0  0
   15.2467   -7.4194   21.0104 C   0  0  0  0  0  0  0  0  0  0  0  0
   15.4468   -7.7506   19.6691 C   0  0  0  0  0  0  0  0  0  0  0  0
   14.5185   -7.3563   18.6925 C   0  0  0  0  0  0  0  0  0  0  0  0
   13.8974   -6.3347   22.8151 C   0  0  0  0  0  0  0  0  0  0  0  0
   14.8577   -6.7615   23.8735 C   0  0  0  0  0  0  0  0  0  0  0  0
   12.8869   -5.6611   23.1509 O   0  0  0  0  0  0  0  0  0  0  0  0
   11.5463   -5.1656   18.2803 C   0  0  0  0  0  0  0  0  0  0  0  0
   12.4628   -6.2354   18.0927 O   0  0  0  0  0  0  0  0  0  0  0  0
   16.2080   -8.7528   13.0556 C   0  0  0  0  0  0  0  0  0  0  0  0
   16.5746  -10.0453   12.3406 C   0  0  0  0  0  0  0  0  0  0  0  0
   17.9494   -9.9524   11.6923 C   0  0  0  0  0  0  0  0  0  0  0  0
   17.8531   -9.3775   10.3561 N   0  0  0  0  0  0  0  0  0  0  0  0
   18.7670   -8.5762    9.8421 N   0  0  0  0  0  0  0  0  0  0  0  0
   18.3588   -8.2684    8.5968 C   0  0  0  0  0  0  0  0  0  0  0  0
   19.1180   -7.3789    7.6796 C   0  0  0  0  0  0  0  0  0  0  0  0
   17.1579   -8.8894    8.2881 C   0  0  0  0  0  0  0  0  0  0  0  0
   16.8807   -9.5879    9.4482 C   0  0  0  0  0  0  0  0  0  0  0  0
   15.6914  -10.4617    9.6558 C   0  0  0  0  0  0  0  0  0  0  0  0
 16 17  1  0  0  0
 17  7  1  0  0  0
  7  8  2  0  0  0
  8  9  1  0  0  0
  9 10  2  0  0  0
  9 13  1  0  0  0
 10 11  1  0  0  0
 11 12  2  0  0  0
 12  6  1  0  0  0
 12  7  1  0  0  0
  6  5  1  0  0  0
  5  1  1  0  0  0
  1  2  2  0  0  0
  1  3  1  0  0  0
  3 18  1  0  0  0
 18 19  1  0  0  0
 19 20  1  0  0  0
 20 21  1  0  0  0
 21 22  1  0  0  0
 22 23  2  0  0  0
 23 24  1  0  0  0
 23 25  1  0  0  0
 25 26  2  0  0  0
 26 27  1  0  0  0
 26 21  1  0  0  0
 13 14  1  0  0  0
 13 15  2  0  0  0
  3  4  1  0  0  0
M  END
>  <minimizedAffinity>
-7.47974

>  <minimizedRMSD>
1.98574

$$$$
CHEMBL3618454 PubChem-45279230


 35 38  0  0  0  0  0  0  0  0999 V2000
   13.9846   -6.8126   21.0299 C   0  0  0  0  0  0  0  0  0  0  0  0
   13.1758   -7.0647   19.8949 C   0  0  0  0  0  0  0  0  0  0  0  0
   13.7665   -7.6004   18.7385 C   0  0  0  0  0  0  0  0  0  0  0  0
   15.1392   -7.8822   18.6793 C   0  0  0  0  0  0  0  0  0  0  0  0
   15.9233   -7.6309   19.8142 C   0  0  0  0  0  0  0  0  0  0  0  0
   15.3514   -7.1005   20.9705 C   0  0  0  0  0  0  0  0  0  0  0  0
   15.7337   -8.4532   17.4907 N   0  0  0  0  0  0  0  0  0  0  0  0
   16.6772   -9.4398   17.6457 C   0  0  0  0  0  0  0  0  0  0  0  0
   17.2614  -10.0208   16.5608 N   0  0  0  0  0  0  0  0  0  0  0  0
   16.9037   -9.6169   15.3471 N   0  0  0  0  0  0  0  0  0  0  0  0
   17.3664  -10.0638   14.1729 C   0  0  0  0  0  0  0  0  0  0  0  0
   16.7062   -9.3367   13.1848 C   0  0  0  0  0  0  0  0  0  0  0  0
   15.8267   -8.4297   13.7850 C   0  0  0  0  0  0  0  0  0  0  0  0
   15.9994   -8.6588   15.1358 C   0  0  0  0  0  0  0  0  0  0  0  0
   15.3876   -8.0406   16.2216 C   0  0  0  0  0  0  0  0  0  0  0  0
   14.5541   -7.1125   16.0321 O   0  0  0  0  0  0  0  0  0  0  0  0
   16.9052   -9.4964   11.7324 C   0  0  0  0  0  0  0  0  0  0  0  0
   18.1400   -9.1810   11.1457 C   0  0  0  0  0  0  0  0  0  0  0  0
   18.3283   -9.3327    9.7690 C   0  0  0  0  0  0  0  0  0  0  0  0
   17.2832   -9.8008    8.9684 C   0  0  0  0  0  0  0  0  0  0  0  0
   16.0498  -10.1175    9.5438 C   0  0  0  0  0  0  0  0  0  0  0  0
   15.8615   -9.9659   10.9206 C   0  0  0  0  0  0  0  0  0  0  0  0
   17.5189   -9.9906    7.2447 Cl  0  0  0  0  0  0  0  0  0  0  0  0
   11.8050   -6.7824   19.9174 O   0  0  0  0  0  0  0  0  0  0  0  0
   10.9624   -6.9425   18.7839 C   0  0  0  0  0  0  0  0  0  0  0  0
   13.4962   -6.2785   22.2317 O   0  0  0  0  0  0  0  0  0  0  0  0
   13.2418   -4.8971   22.4618 C   0  0  0  0  0  0  0  0  0  0  0  0
   14.6832   -5.4167   24.4278 C   0  0  0  0  0  0  0  0  0  0  0  0
   13.5821   -4.5138   23.8975 C   0  0  0  0  0  0  0  0  0  0  0  0
   14.0264   -3.1898   23.9299 O   0  0  0  0  0  0  0  0  0  0  0  0
   14.8168   -3.1003   23.3748 H   0  0  0  0  0  0  0  0  0  0  0  0
   12.3586   -4.6613   24.7543 C   0  0  0  0  0  0  0  0  0  0  0  0
   12.3758   -5.4184   25.7619 O   0  0  0  0  0  0  0  0  0  0  0  0
   11.1943   -3.9670   24.4453 O   0  0  0  0  0  0  0  0  0  0  0  0
   11.1703   -3.4014   23.6986 H   0  0  0  0  0  0  0  0  0  0  0  0
 29 28  1  0  0  0
 29 27  1  0  0  0
 29 32  1  0  0  0
 29 30  1  0  0  0
 27 26  1  0  0  0
 26  1  1  0  0  0
  1  2  2  0  0  0
  2  3  1  0  0  0
  2 24  1  0  0  0
  3  4  2  0  0  0
  4  5  1  0  0  0
  4  7  1  0  0  0
  5  6  2  0  0  0
  6  1  1  0  0  0
  7  8  1  0  0  0
  8  9  2  0  0  0
  9 10  1  0  0  0
 10 11  1  0  0  0
 11 12  2  0  0  0
 12 13  1  0  0  0
 12 17  1  0  0  0
 13 14  2  0  0  0
 14 15  1  0  0  0
 14 10  1  0  0  0
 15 16  2  0  0  0
 15  7  1  0  0  0
 17 18  2  0  0  0
 18 19  1  0  0  0
 19 20  2  0  0  0
 20 21  1  0  0  0
 20 23  1  0  0  0
 21 22  2  0  0  0
 22 17  1  0  0  0
 24 25  1  0  0  0
 32 33  2  0  0  0
 32 34  1  0  0  0
 34 35  1  0  0  0
 30 31  1  0  0  0
M  END
>  <minimizedAffinity>
-7.47963

>  <minimizedRMSD>
1.55717

$$$$
CHEMBL1803049 PubChem-53361302


 36 39  0  0  0  0  0  0  0  0999 V2000
   14.3745   -7.5963   18.2674 C   0  0  0  0  0  0  0  0  0  0  0  0
   15.3339   -7.7663   19.2795 C   0  0  0  0  0  0  0  0  0  0  0  0
   15.0148   -7.4913   20.6106 C   0  0  0  0  0  0  0  0  0  0  0  0
   13.7331   -7.0479   20.9439 C   0  0  0  0  0  0  0  0  0  0  0  0
   12.7752   -6.8698   19.9422 C   0  0  0  0  0  0  0  0  0  0  0  0
   13.0877   -7.1449   18.6005 C   0  0  0  0  0  0  0  0  0  0  0  0
   12.1389   -6.9770   17.5862 O   0  0  0  0  0  0  0  0  0  0  0  0
   10.8123   -7.4774   17.6832 C   0  0  0  0  0  0  0  0  0  0  0  0
   14.6774   -7.8680   16.9289 O   0  0  0  0  0  0  0  0  0  0  0  0
   15.9655   -7.6428   16.3694 C   0  0  0  0  0  0  0  0  0  0  0  0
   16.7213   -8.9577   16.2602 C   0  0  0  0  0  0  0  0  0  0  0  0
   15.9124   -9.9963   15.4954 C   0  0  0  0  0  0  0  0  0  0  0  0
   17.2542   -9.7876   12.1552 N   0  0  0  0  0  0  0  0  0  0  0  0
   17.4810   -9.8411   13.4791 C   0  0  0  0  0  0  0  0  0  0  0  0
   16.2226   -9.9453   14.0376 C   0  0  0  0  0  0  0  0  0  0  0  0
   15.2920   -9.9320   13.0633 N   0  0  0  0  0  0  0  0  0  0  0  0
   15.9532   -9.8371   11.9215 N   0  0  0  0  0  0  0  0  0  0  0  0
   18.2727   -9.6597   11.1247 C   0  0  0  0  0  0  0  0  0  0  0  0
   17.7546   -8.8256    9.9600 C   0  0  0  0  0  0  0  0  0  0  0  0
   17.6984   -8.8613    7.4659 C   0  0  0  0  0  0  0  0  0  0  0  0
   17.5233   -9.6851    8.7277 C   0  0  0  0  0  0  0  0  0  0  0  0
   13.3983   -6.7328   22.3617 C   0  0  0  0  0  0  0  0  0  0  0  0
   13.1407   -5.3024   22.5156 N   0  0  0  0  0  0  0  0  0  0  0  0
   14.4045   -4.5679   22.6934 C   0  0  0  0  0  0  0  0  0  0  0  0
   15.0927   -4.9101   24.0166 C   0  0  0  0  0  0  0  0  0  0  0  0
   14.1465   -4.7157   25.1080 N   0  0  0  0  0  0  0  0  0  0  0  0
   12.8736   -5.4162   24.9976 C   0  0  0  0  0  0  0  0  0  0  0  0
   12.2284   -5.0813   23.6484 C   0  0  0  0  0  0  0  0  0  0  0  0
   14.5071   -3.9435   26.2715 C   0  0  0  0  0  0  0  0  0  0  0  0
   15.8326   -3.4980   26.4137 C   0  0  0  0  0  0  0  0  0  0  0  0
   16.2260   -2.7550   27.5270 C   0  0  0  0  0  0  0  0  0  0  0  0
   15.2967   -2.4412   28.5173 C   0  0  0  0  0  0  0  0  0  0  0  0
   13.9734   -2.8631   28.3888 C   0  0  0  0  0  0  0  0  0  0  0  0
   13.5613   -3.6087   27.2708 C   0  0  0  0  0  0  0  0  0  0  0  0
   12.2233   -3.9969   27.1347 O   0  0  0  0  0  0  0  0  0  0  0  0
   11.2475   -3.7745   28.1431 C   0  0  0  0  0  0  0  0  0  0  0  0
 20 21  1  0  0  0
 21 19  1  0  0  0
 19 18  1  0  0  0
 18 13  1  0  0  0
 13 14  1  0  0  0
 14 15  2  0  0  0
 15 12  1  0  0  0
 15 16  1  0  0  0
 12 11  1  0  0  0
 11 10  1  0  0  0
 10  9  1  0  0  0
  9  1  1  0  0  0
  1  2  2  0  0  0
  2  3  1  0  0  0
  3  4  2  0  0  0
  4 22  1  0  0  0
  4  5  1  0  0  0
 22 23  1  0  0  0
 23 24  1  0  0  0
 24 25  1  0  0  0
 25 26  1  0  0  0
 26 29  1  0  0  0
 26 27  1  0  0  0
 29 30  2  0  0  0
 30 31  1  0  0  0
 31 32  2  0  0  0
 32 33  1  0  0  0
 33 34  2  0  0  0
 34 35  1  0  0  0
 34 29  1  0  0  0
 35 36  1  0  0  0
 27 28  1  0  0  0
 28 23  1  0  0  0
  5  6  2  0  0  0
  6  7  1  0  0  0
  6  1  1  0  0  0
  7  8  1  0  0  0
 16 17  2  0  0  0
 17 13  1  0  0  0
M  END
>  <minimizedAffinity>
-7.46348

>  <minimizedRMSD>
1.82628

$$$$
CHEMBL1564402 CSC048896473 ChemDiv-D353-0425 MCULE-2203742550 MolPort-007-701-174 PubChem-8277414 ZINC000007161217 ZINC07161217


 29 31  0  0  0  0  0  0  0  0999 V2000
   15.7242   -8.1545   17.1654 C   0  0  0  0  0  0  0  0  0  0  0  0
   15.4986   -7.7958   15.8856 N   0  0  0  0  0  0  0  0  0  0  0  0
   16.4900   -8.3098   15.1747 N   0  0  0  0  0  0  0  0  0  0  0  0
   17.2785   -8.9612   16.0487 C   0  0  0  0  0  0  0  0  0  0  0  0
   16.8183   -8.8708   17.2721 O   0  0  0  0  0  0  0  0  0  0  0  0
   14.5663   -7.3700   20.6711 C   0  0  0  0  0  0  0  0  0  0  0  0
   15.3819   -7.7155   19.5840 C   0  0  0  0  0  0  0  0  0  0  0  0
   14.8572   -7.7908   18.2940 C   0  0  0  0  0  0  0  0  0  0  0  0
   13.5037   -7.5182   18.0885 C   0  0  0  0  0  0  0  0  0  0  0  0
   12.6640   -7.1697   19.1584 C   0  0  0  0  0  0  0  0  0  0  0  0
   13.2027   -7.0945   20.4686 C   0  0  0  0  0  0  0  0  0  0  0  0
   16.2392   -6.5215   22.2892 C   0  0  0  0  0  0  0  0  0  0  0  0
   15.0904   -7.2937   21.9667 O   0  0  0  0  0  0  0  0  0  0  0  0
   11.3100   -6.9010   18.9260 O   0  0  0  0  0  0  0  0  0  0  0  0
   10.4477   -7.7994   18.2401 C   0  0  0  0  0  0  0  0  0  0  0  0
   12.4396   -6.7543   21.5986 O   0  0  0  0  0  0  0  0  0  0  0  0
   12.1245   -5.4294   22.0020 C   0  0  0  0  0  0  0  0  0  0  0  0
   18.7703   -9.8364   15.5935 S   0  0  0  0  0  0  0  0  0  0  0  0
   17.8561  -11.1817   14.7745 C   0  0  0  0  0  0  0  0  0  0  0  0
   18.3528  -11.3865   13.3534 C   0  0  0  0  0  0  0  0  0  0  0  0
   18.6237  -10.1298   12.7449 O   0  0  0  0  0  0  0  0  0  0  0  0
   18.0904   -9.7627   11.5062 C   0  0  0  0  0  0  0  0  0  0  0  0
   16.8112  -10.1802   11.1029 C   0  0  0  0  0  0  0  0  0  0  0  0
   16.3016   -9.7912    9.8613 C   0  0  0  0  0  0  0  0  0  0  0  0
   14.9463  -10.2342    9.4434 C   0  0  0  0  0  0  0  0  0  0  0  0
   17.0664   -8.9843    9.0145 C   0  0  0  0  0  0  0  0  0  0  0  0
   18.3406   -8.5670    9.4098 C   0  0  0  0  0  0  0  0  0  0  0  0
   19.1536   -7.7092    8.5093 C   0  0  0  0  0  0  0  0  0  0  0  0
   18.8499   -8.9554   10.6528 C   0  0  0  0  0  0  0  0  0  0  0  0
 12 13  1  0  0  0
 13  6  1  0  0  0
  6  7  2  0  0  0
  7  8  1  0  0  0
  8  9  2  0  0  0
  8  1  1  0  0  0
  9 10  1  0  0  0
 10 14  1  0  0  0
 10 11  2  0  0  0
 14 15  1  0  0  0
 11 16  1  0  0  0
 11  6  1  0  0  0
 16 17  1  0  0  0
  1  2  2  0  0  0
  2  3  1  0  0  0
  3  4  2  0  0  0
  4  5  1  0  0  0
  4 18  1  0  0  0
  5  1  1  0  0  0
 18 19  1  0  0  0
 19 20  1  0  0  0
 20 21  1  0  0  0
 21 22  1  0  0  0
 22 23  2  0  0  0
 23 24  1  0  0  0
 24 25  1  0  0  0
 24 26  2  0  0  0
 26 27  1  0  0  0
 27 28  1  0  0  0
 27 29  2  0  0  0
 29 22  1  0  0  0
M  END
>  <minimizedAffinity>
-7.44758

>  <minimizedRMSD>
1.78353

$$$$
CHEMBL3661431 PubChem-58522540


 36 39  0  0  0  0  0  0  0  0999 V2000
   15.7226   -8.4805   16.3067 C   0  0  0  0  0  0  0  0  0  0  0  0
   16.6316   -9.1460   17.0671 N   0  0  0  0  0  0  0  0  0  0  0  0
   17.7046   -9.7542   16.5017 C   0  0  0  0  0  0  0  0  0  0  0  0
   17.8961   -9.7062   15.1178 C   0  0  0  0  0  0  0  0  0  0  0  0
   16.9490   -9.0148   14.3444 C   0  0  0  0  0  0  0  0  0  0  0  0
   15.8900   -8.4215   14.9606 N   0  0  0  0  0  0  0  0  0  0  0  0
   19.0850  -10.3785   14.4840 C   0  0  0  0  0  0  0  0  0  0  0  0
   18.9887  -11.7478   14.6532 F   0  0  0  0  0  0  0  0  0  0  0  0
   19.1158  -10.0891   13.1320 F   0  0  0  0  0  0  0  0  0  0  0  0
   20.2676   -9.9428   15.0578 F   0  0  0  0  0  0  0  0  0  0  0  0
   14.5875   -7.8325   16.8968 N   0  0  0  0  0  0  0  0  0  0  0  0
   13.8518   -7.6022   16.2845 H   0  0  0  0  0  0  0  0  0  0  0  0
   12.0769   -6.6668   17.7117 C   0  0  0  0  0  0  0  0  0  0  0  0
   13.1766   -6.9135   18.6868 C   0  0  0  0  0  0  0  0  0  0  0  0
   14.3976   -7.4797   18.2775 C   0  0  0  0  0  0  0  0  0  0  0  0
   15.4027   -7.6915   19.2327 C   0  0  0  0  0  0  0  0  0  0  0  0
   15.1992   -7.3442   20.5699 C   0  0  0  0  0  0  0  0  0  0  0  0
   13.9848   -6.7786   20.9769 C   0  0  0  0  0  0  0  0  0  0  0  0
   12.9773   -6.5673   20.0266 C   0  0  0  0  0  0  0  0  0  0  0  0
   13.7692   -6.4113   22.3876 C   0  0  0  0  0  0  0  0  0  0  0  0
   12.6668   -5.9148   22.7489 O   0  0  0  0  0  0  0  0  0  0  0  0
   14.8086   -6.6162   23.3482 N   0  0  0  0  0  0  0  0  0  0  0  0
   14.6422   -6.2705   24.7497 C   0  0  0  0  0  0  0  0  0  0  0  0
   15.6634   -7.0036   23.0507 H   0  0  0  0  0  0  0  0  0  0  0  0
   17.1136   -8.9497   12.9508 O   0  0  0  0  0  0  0  0  0  0  0  0
   16.2245   -9.4253   11.9736 C   0  0  0  0  0  0  0  0  0  0  0  0
   14.9381   -9.9194   12.2713 C   0  0  0  0  0  0  0  0  0  0  0  0
   14.0891  -10.3824   11.2475 C   0  0  0  0  0  0  0  0  0  0  0  0
   14.5100  -10.3604    9.9081 C   0  0  0  0  0  0  0  0  0  0  0  0
   15.7831   -9.8705    9.6232 C   0  0  0  0  0  0  0  0  0  0  0  0
   16.6111   -9.4178   10.6311 C   0  0  0  0  0  0  0  0  0  0  0  0
   17.8371   -8.9836   10.0065 C   0  0  0  0  0  0  0  0  0  0  0  0
   18.8413   -8.5015   10.5944 O   0  0  0  0  0  0  0  0  0  0  0  0
   17.7445   -9.1784    8.6020 N   0  0  0  0  0  0  0  0  0  0  0  0
   16.4393   -9.7524    8.2777 C   0  0  0  0  0  0  0  0  0  0  0  0
   18.7774   -8.8612    7.6325 C   0  0  0  0  0  0  0  0  0  0  0  0
 13 14  1  0  0  0
 14 15  2  0  0  0
 15 16  1  0  0  0
 15 11  1  0  0  0
 16 17  2  0  0  0
 17 18  1  0  0  0
 18 19  2  0  0  0
 18 20  1  0  0  0
 19 14  1  0  0  0
 20 21  2  0  0  0
 20 22  1  0  0  0
 22 23  1  0  0  0
 11  1  1  0  0  0
  1  2  2  0  0  0
  2  3  1  0  0  0
  3  4  2  0  0  0
  4  5  1  0  0  0
  4  7  1  0  0  0
  5  6  2  0  0  0
  5 25  1  0  0  0
  6  1  1  0  0  0
 25 26  1  0  0  0
 26 27  2  0  0  0
 27 28  1  0  0  0
 28 29  2  0  0  0
 29 30  1  0  0  0
 30 31  2  0  0  0
 31 32  1  0  0  0
 31 26  1  0  0  0
 32 33  2  0  0  0
 32 34  1  0  0  0
 34 35  1  0  0  0
 34 36  1  0  0  0
 35 30  1  0  0  0
  7  8  1  0  0  0
  7  9  1  0  0  0
  7 10  1  0  0  0
 22 24  1  0  0  0
 11 12  1  0  0  0
M  END
>  <minimizedAffinity>
-7.43099

>  <minimizedRMSD>
1.91765

$$$$
CHEMBL3211444 LN00690604 MolPort-000-780-159 PubChem-6887652 ZINC02356457


 37 40  0  0  0  0  0  0  0  0999 V2000
   14.7455   -7.2820   20.2543 C   0  0  0  0  0  0  0  0  0  0  0  0
   13.8646   -6.5699   21.0541 C   0  0  0  0  0  0  0  0  0  0  0  0
   14.2493   -6.7853   22.3310 N   0  0  0  0  0  0  0  0  0  0  0  0
   15.3070   -7.5817   22.3086 N   0  0  0  0  0  0  0  0  0  0  0  0
   15.6280   -7.9016   21.0633 N   0  0  0  0  0  0  0  0  0  0  0  0
   13.7051   -6.2221   23.5355 C   0  0  0  0  0  0  0  0  0  0  0  0
   12.4840   -5.6733   23.6534 N   0  0  0  0  0  0  0  0  0  0  0  0
   12.4107   -5.2519   24.8879 O   0  0  0  0  0  0  0  0  0  0  0  0
   13.4895   -5.4738   25.5898 N   0  0  0  0  0  0  0  0  0  0  0  0
   14.3317   -6.0883   24.7461 C   0  0  0  0  0  0  0  0  0  0  0  0
   15.6456   -6.5160   25.0879 N   0  0  0  0  0  0  0  0  0  0  0  0
   15.9917   -6.3646   25.9970 H   0  0  0  0  0  0  0  0  0  0  0  0
   16.2082   -6.9633   24.4151 H   0  0  0  0  0  0  0  0  0  0  0  0
   12.7155   -5.7576   20.6208 C   0  0  0  0  0  0  0  0  0  0  0  0
   11.5424   -6.3798   20.1747 C   0  0  0  0  0  0  0  0  0  0  0  0
   10.4521   -5.6092   19.7605 C   0  0  0  0  0  0  0  0  0  0  0  0
   10.5312   -4.2138   19.7896 C   0  0  0  0  0  0  0  0  0  0  0  0
    9.3722   -3.3949   19.3493 C   0  0  0  0  0  0  0  0  0  0  0  0
   11.7006   -3.5888   20.2323 C   0  0  0  0  0  0  0  0  0  0  0  0
   12.7910   -4.3590   20.6469 C   0  0  0  0  0  0  0  0  0  0  0  0
   15.8357   -8.1144   18.1565 N   0  0  0  0  0  0  0  0  0  0  0  0
   14.7398   -7.4355   18.7901 C   0  0  0  0  0  0  0  0  0  0  0  0
   13.7777   -6.9903   18.1098 O   0  0  0  0  0  0  0  0  0  0  0  0
   16.5511   -8.4544   18.7411 H   0  0  0  0  0  0  0  0  0  0  0  0
   16.9149   -9.0690   16.2595 C   0  0  0  0  0  0  0  0  0  0  0  0
   15.9773   -8.3367   16.7731 N   0  0  0  0  0  0  0  0  0  0  0  0
   17.1842   -9.6290   12.0209 C   0  0  0  0  0  0  0  0  0  0  0  0
   18.1498  -10.1931   12.8714 C   0  0  0  0  0  0  0  0  0  0  0  0
   18.0710  -10.0158   14.2552 C   0  0  0  0  0  0  0  0  0  0  0  0
   17.0224   -9.2715   14.8113 C   0  0  0  0  0  0  0  0  0  0  0  0
   16.0561   -8.7092   13.9735 C   0  0  0  0  0  0  0  0  0  0  0  0
   16.1354   -8.8868   12.5895 C   0  0  0  0  0  0  0  0  0  0  0  0
   17.2630   -9.8164   10.5909 N   0  0  0  0  0  0  0  0  0  0  0  0
   16.3916  -10.1709    8.3372 C   0  0  0  0  0  0  0  0  0  0  0  0
   16.1215  -10.3039    9.8249 C   0  0  0  0  0  0  0  0  0  0  0  0
   18.5289   -9.6889    9.8780 C   0  0  0  0  0  0  0  0  0  0  0  0
   18.8799   -8.2244    9.6895 C   0  0  0  0  0  0  0  0  0  0  0  0
 34 35  1  0  0  0
 35 33  1  0  0  0
 33 36  1  0  0  0
 33 27  1  0  0  0
 36 37  1  0  0  0
 27 28  2  0  0  0
 28 29  1  0  0  0
 29 30  2  0  0  0
 30 25  1  0  0  0
 30 31  1  0  0  0
 25 26  2  0  0  0
 26 21  1  0  0  0
 21 22  1  0  0  0
 22 23  2  0  0  0
 22  1  1  0  0  0
  1  2  2  0  0  0
  2  3  1  0  0  0
  2 14  1  0  0  0
  3  4  1  0  0  0
  3  6  1  0  0  0
  4  5  2  0  0  0
  5  1  1  0  0  0
  6  7  2  0  0  0
  7  8  1  0  0  0
  8  9  1  0  0  0
  9 10  2  0  0  0
 10 11  1  0  0  0
 10  6  1  0  0  0
 14 15  2  0  0  0
 15 16  1  0  0  0
 16 17  2  0  0  0
 17 18  1  0  0  0
 17 19  1  0  0  0
 19 20  2  0  0  0
 20 14  1  0  0  0
 31 32  2  0  0  0
 32 27  1  0  0  0
 21 24  1  0  0  0
 11 12  1  0  0  0
 11 13  1  0  0  0
M  END
>  <minimizedAffinity>
-7.41715

>  <minimizedRMSD>
1.97298

$$$$
CHEMBL520625 PubChem-24879531


 30 32  0  0  0  0  0  0  0  0999 V2000
   16.7754   -8.8732   16.9170 C   0  0  0  0  0  0  0  0  0  0  0  0
   17.8117   -9.7926   17.0811 C   0  0  0  0  0  0  0  0  0  0  0  0
   18.0911  -10.6717   16.0841 N   0  0  0  0  0  0  0  0  0  0  0  0
   17.3801  -10.6717   14.9265 C   0  0  0  0  0  0  0  0  0  0  0  0
   16.3408   -9.7480   14.7486 C   0  0  0  0  0  0  0  0  0  0  0  0
   16.0655   -8.8772   15.7558 N   0  0  0  0  0  0  0  0  0  0  0  0
   16.4808   -7.9507   17.9745 N   0  0  0  0  0  0  0  0  0  0  0  0
   17.2468   -7.4637   18.3559 H   0  0  0  0  0  0  0  0  0  0  0  0
   12.8155   -7.1893   18.3121 C   0  0  0  0  0  0  0  0  0  0  0  0
   14.0601   -7.4761   17.7473 C   0  0  0  0  0  0  0  0  0  0  0  0
   15.1948   -7.6579   18.5388 C   0  0  0  0  0  0  0  0  0  0  0  0
   15.0795   -7.5490   19.9208 C   0  0  0  0  0  0  0  0  0  0  0  0
   13.8483   -7.2626   20.5296 C   0  0  0  0  0  0  0  0  0  0  0  0
   12.6931   -7.0784   19.7232 C   0  0  0  0  0  0  0  0  0  0  0  0
   10.5259   -7.7523   17.4556 C   0  0  0  0  0  0  0  0  0  0  0  0
   11.7461   -7.0265   17.4169 O   0  0  0  0  0  0  0  0  0  0  0  0
   13.7707   -7.1625   21.9239 O   0  0  0  0  0  0  0  0  0  0  0  0
   14.8137   -7.5853   22.7929 C   0  0  0  0  0  0  0  0  0  0  0  0
   11.4312   -6.7906   20.2719 O   0  0  0  0  0  0  0  0  0  0  0  0
   10.8747   -5.4929   20.4282 C   0  0  0  0  0  0  0  0  0  0  0  0
   15.5550   -9.7024   13.5851 O   0  0  0  0  0  0  0  0  0  0  0  0
   16.0061   -9.6400   12.2565 C   0  0  0  0  0  0  0  0  0  0  0  0
   15.0870   -9.8950   11.2335 C   0  0  0  0  0  0  0  0  0  0  0  0
   15.4788   -9.8305    9.8933 C   0  0  0  0  0  0  0  0  0  0  0  0
   16.7997   -9.5052    9.5544 C   0  0  0  0  0  0  0  0  0  0  0  0
   17.7205   -9.2414   10.5781 C   0  0  0  0  0  0  0  0  0  0  0  0
   17.3265   -9.3058   11.9171 C   0  0  0  0  0  0  0  0  0  0  0  0
   17.2078   -9.4403    8.1376 C   0  0  0  0  0  0  0  0  0  0  0  0
   18.1676   -8.4035    7.6591 C   0  0  0  0  0  0  0  0  0  0  0  0
   16.7475  -10.2684    7.3069 O   0  0  0  0  0  0  0  0  0  0  0  0
 15 16  1  0  0  0
 16  9  1  0  0  0
  9 10  2  0  0  0
 10 11  1  0  0  0
 11  7  1  0  0  0
 11 12  2  0  0  0
  7  1  1  0  0  0
  1  2  2  0  0  0
  2  3  1  0  0  0
  3  4  2  0  0  0
  4  5  1  0  0  0
  5 21  1  0  0  0
  5  6  2  0  0  0
 21 22  1  0  0  0
 22 23  2  0  0  0
 23 24  1  0  0  0
 24 25  2  0  0  0
 25 28  1  0  0  0
 25 26  1  0  0  0
 28 29  1  0  0  0
 28 30  2  0  0  0
 26 27  2  0  0  0
 27 22  1  0  0  0
  6  1  1  0  0  0
 12 13  1  0  0  0
 13 17  1  0  0  0
 13 14  2  0  0  0
 17 18  1  0  0  0
 14 19  1  0  0  0
 14  9  1  0  0  0
 19 20  1  0  0  0
  7  8  1  0  0  0
M  END
>  <minimizedAffinity>
-7.41450

>  <minimizedRMSD>
1.83285

$$$$
CHEMBL4086665 PubChem-137645044


 35 38  0  0  0  0  0  0  0  0999 V2000
   16.9080   -8.9792   18.1212 N   0  0  0  0  0  0  0  0  0  0  0  0
   15.7764   -8.1697   17.7614 C   0  0  0  0  0  0  0  0  0  0  0  0
   15.4578   -8.0136   16.5521 O   0  0  0  0  0  0  0  0  0  0  0  0
   17.0976   -9.0563   19.0841 H   0  0  0  0  0  0  0  0  0  0  0  0
   14.9871   -7.5201   18.8215 C   0  0  0  0  0  0  0  0  0  0  0  0
   15.5397   -7.2715   20.4037 S   0  0  0  0  0  0  0  0  0  0  0  0
   14.1315   -6.5272   20.9246 C   0  0  0  0  0  0  0  0  0  0  0  0
   13.8777   -6.0469   22.1629 N   0  0  0  0  0  0  0  0  0  0  0  0
   12.6972   -5.4771   22.4209 N   0  0  0  0  0  0  0  0  0  0  0  0
   11.7263   -5.3613   21.4667 C   0  0  0  0  0  0  0  0  0  0  0  0
   11.9585   -5.8525   20.1632 C   0  0  0  0  0  0  0  0  0  0  0  0
   13.2034   -6.4493   19.9048 C   0  0  0  0  0  0  0  0  0  0  0  0
   13.6849   -7.0122   18.7074 C   0  0  0  0  0  0  0  0  0  0  0  0
   12.9311   -7.0641   17.4982 N   0  0  0  0  0  0  0  0  0  0  0  0
   10.9082   -5.7352   19.1045 C   0  0  0  0  0  0  0  0  0  0  0  0
   10.4341   -4.7123   21.8325 C   0  0  0  0  0  0  0  0  0  0  0  0
   12.0197   -6.6930   17.4699 H   0  0  0  0  0  0  0  0  0  0  0  0
   13.3221   -7.4712   16.6915 H   0  0  0  0  0  0  0  0  0  0  0  0
   17.3988   -9.7712   15.0654 N   0  0  0  0  0  0  0  0  0  0  0  0
   18.1376   -8.9129   16.0056 C   0  0  0  0  0  0  0  0  0  0  0  0
   17.8136   -9.7038   17.2244 C   0  0  0  0  0  0  0  0  0  0  0  0
   17.0709  -10.5631   16.2620 C   0  0  0  0  0  0  0  0  0  0  0  0
   16.5512   -9.8771   10.9258 C   0  0  0  0  0  0  0  0  0  0  0  0
   17.8307  -10.2035   11.3888 C   0  0  0  0  0  0  0  0  0  0  0  0
   18.1111  -10.1684   12.7577 C   0  0  0  0  0  0  0  0  0  0  0  0
   17.1138   -9.8039   13.6692 C   0  0  0  0  0  0  0  0  0  0  0  0
   15.8351   -9.4741   13.2060 C   0  0  0  0  0  0  0  0  0  0  0  0
   15.5548   -9.5093   11.8370 C   0  0  0  0  0  0  0  0  0  0  0  0
   16.4238  -11.2943    8.6721 O   0  0  0  0  0  0  0  0  0  0  0  0
   16.2034   -9.9064    9.2059 S   0  0  0  0  0  0  0  0  0  0  0  0
   14.7684   -9.5224    8.9765 O   0  0  0  0  0  0  0  0  0  0  0  0
   17.2712   -8.7629    8.3559 C   0  0  0  0  0  0  0  0  0  0  0  0
   16.5130   -7.9283    7.5571 F   0  0  0  0  0  0  0  0  0  0  0  0
   17.9674   -8.0056    9.2787 F   0  0  0  0  0  0  0  0  0  0  0  0
   18.1660   -9.4623    7.5684 F   0  0  0  0  0  0  0  0  0  0  0  0
 29 30  2  0  0  0
 30 31  2  0  0  0
 30 23  1  0  0  0
 23 24  2  0  0  0
 24 25  1  0  0  0
 25 26  2  0  0  0
 26 19  1  0  0  0
 19 20  1  0  0  0
 20 21  1  0  0  0
 21  1  1  0  0  0
  1  2  1  0  0  0
  2  3  2  0  0  0
  2  5  1  0  0  0
  5  6  1  0  0  0
  6  7  1  0  0  0
  7  8  2  0  0  0
  8  9  1  0  0  0
  9 10  2  0  0  0
 10 11  1  0  0  0
 11 12  2  0  0  0
 12 13  1  0  0  0
 13 14  1  0  0  0
 11 15  1  0  0  0
 10 16  1  0  0  0
 21 22  1  0  0  0
 26 27  1  0  0  0
 27 28  2  0  0  0
 30 32  1  0  0  0
 32 33  1  0  0  0
 32 34  1  0  0  0
 32 35  1  0  0  0
 28 23  1  0  0  0
 22 19  1  0  0  0
 13  5  2  0  0  0
 12  7  1  0  0  0
  1  4  1  0  0  0
 14 17  1  0  0  0
 14 18  1  0  0  0
M  END
>  <minimizedAffinity>
-7.41181

>  <minimizedRMSD>
1.63252

$$$$
CHEMBL4087947 PubChem-137643654


 33 36  0  0  0  0  0  0  0  0999 V2000
   15.5667   -8.6920   16.8776 C   0  0  0  0  0  0  0  0  0  0  0  0
   16.5845   -9.4926   16.5184 N   0  0  0  0  0  0  0  0  0  0  0  0
   17.2776   -8.7442   15.6446 C   0  0  0  0  0  0  0  0  0  0  0  0
   16.7150   -7.5312   15.4813 N   0  0  0  0  0  0  0  0  0  0  0  0
   15.6413   -7.4969   16.2597 N   0  0  0  0  0  0  0  0  0  0  0  0
   16.8723  -10.8441   16.9719 C   0  0  0  0  0  0  0  0  0  0  0  0
   14.5236   -9.0400   17.8883 C   0  0  0  0  0  0  0  0  0  0  0  0
   11.1050   -6.4128   18.2403 C   0  0  0  0  0  0  0  0  0  0  0  0
   11.0890   -5.4064   19.2088 C   0  0  0  0  0  0  0  0  0  0  0  0
   12.1742   -5.2507   20.0749 C   0  0  0  0  0  0  0  0  0  0  0  0
   13.2854   -6.1022   19.9780 C   0  0  0  0  0  0  0  0  0  0  0  0
   13.3020   -7.1187   18.9999 C   0  0  0  0  0  0  0  0  0  0  0  0
   12.2061   -7.2661   18.1355 C   0  0  0  0  0  0  0  0  0  0  0  0
   14.4207   -7.9599   18.9190 C   0  0  0  0  0  0  0  0  0  0  0  0
   15.4579   -7.7688   19.7755 N   0  0  0  0  0  0  0  0  0  0  0  0
   15.4494   -6.8105   20.7043 N   0  0  0  0  0  0  0  0  0  0  0  0
   14.3860   -5.9628   20.8349 C   0  0  0  0  0  0  0  0  0  0  0  0
   14.3940   -5.0604   21.7189 O   0  0  0  0  0  0  0  0  0  0  0  0
   16.6070   -6.6866   21.5768 C   0  0  0  0  0  0  0  0  0  0  0  0
   18.7701   -9.2714   14.8032 S   0  0  0  0  0  0  0  0  0  0  0  0
   17.8777  -10.4469   13.7374 C   0  0  0  0  0  0  0  0  0  0  0  0
   17.5070   -9.8069   12.4442 C   0  0  0  0  0  0  0  0  0  0  0  0
   16.3884   -9.2380   12.3392 O   0  0  0  0  0  0  0  0  0  0  0  0
   18.4216   -9.8592   11.3410 N   0  0  0  0  0  0  0  0  0  0  0  0
   19.2592  -10.3559   11.4859 H   0  0  0  0  0  0  0  0  0  0  0  0
   18.2434   -9.2629   10.0477 C   0  0  0  0  0  0  0  0  0  0  0  0
   17.1645   -9.6084    9.2187 C   0  0  0  0  0  0  0  0  0  0  0  0
   17.0127   -9.0086    7.9659 C   0  0  0  0  0  0  0  0  0  0  0  0
   17.9382   -8.0571    7.5314 C   0  0  0  0  0  0  0  0  0  0  0  0
   19.0144   -7.7057    8.3500 C   0  0  0  0  0  0  0  0  0  0  0  0
   19.1677   -8.3049    9.6042 C   0  0  0  0  0  0  0  0  0  0  0  0
   20.2171   -7.9516   10.3869 F   0  0  0  0  0  0  0  0  0  0  0  0
   17.7923   -7.4751    6.3171 F   0  0  0  0  0  0  0  0  0  0  0  0
  8  9  2  0  0  0
  9 10  1  0  0  0
 10 11  2  0  0  0
 11 12  1  0  0  0
 12 13  2  0  0  0
 12 14  1  0  0  0
 14 15  2  0  0  0
 15 16  1  0  0  0
 16 17  1  0  0  0
 17 18  2  0  0  0
 16 19  1  0  0  0
 14  7  1  0  0  0
  7  1  1  0  0  0
  1  2  1  0  0  0
  2  3  1  0  0  0
  3  4  2  0  0  0
  4  5  1  0  0  0
  3 20  1  0  0  0
 20 21  1  0  0  0
 21 22  1  0  0  0
 22 23  2  0  0  0
 22 24  1  0  0  0
 24 26  1  0  0  0
 26 27  2  0  0  0
 27 28  1  0  0  0
 28 29  2  0  0  0
 29 30  1  0  0  0
 30 31  2  0  0  0
 31 32  1  0  0  0
 29 33  1  0  0  0
  2  6  1  0  0  0
 13  8  1  0  0  0
  5  1  2  0  0  0
 31 26  1  0  0  0
 17 11  1  0  0  0
 24 25  1  0  0  0
M  END
>  <minimizedAffinity>
-7.41143

>  <minimizedRMSD>
1.82844

$$$$
CHEMBL2095045 4270861 ChemDiv-6652-0360 MCULE-1241194805 MolPort-002-263-968 PubChem-9587675 ZINC000004270861 ZINC04270861


 30 31  0  0  0  0  0  0  0  0999 V2000
   15.6146   -8.4138   18.0886 O   0  0  0  0  0  0  0  0  0  0  0  0
   15.9178   -8.5676   16.7534 N   0  0  0  0  0  0  0  0  0  0  0  0
   16.7109   -9.5089   16.3458 C   0  0  0  0  0  0  0  0  0  0  0  0
   17.2885  -10.4110   17.2896 N   0  0  0  0  0  0  0  0  0  0  0  0
   17.0843  -10.3179   18.2482 H   0  0  0  0  0  0  0  0  0  0  0  0
   17.8910  -11.1262   16.9819 H   0  0  0  0  0  0  0  0  0  0  0  0
   17.0177   -9.6494   14.9092 C   0  0  0  0  0  0  0  0  0  0  0  0
   16.0434   -9.3777   13.9404 C   0  0  0  0  0  0  0  0  0  0  0  0
   16.3226   -9.5076   12.5693 C   0  0  0  0  0  0  0  0  0  0  0  0
   17.6160   -9.9217   12.1640 C   0  0  0  0  0  0  0  0  0  0  0  0
   18.5825  -10.1907   13.1391 C   0  0  0  0  0  0  0  0  0  0  0  0
   18.2897  -10.0570   14.4966 C   0  0  0  0  0  0  0  0  0  0  0  0
   15.3312   -9.2299   11.6212 O   0  0  0  0  0  0  0  0  0  0  0  0
   14.4041  -10.2048   11.1616 C   0  0  0  0  0  0  0  0  0  0  0  0
   17.9997  -10.0830   10.8242 O   0  0  0  0  0  0  0  0  0  0  0  0
   18.3723   -9.0250    9.9529 C   0  0  0  0  0  0  0  0  0  0  0  0
   14.5974   -7.5517   18.5008 C   0  0  0  0  0  0  0  0  0  0  0  0
   13.8123   -7.0602   17.6450 O   0  0  0  0  0  0  0  0  0  0  0  0
   14.3201   -6.6157   22.6894 C   0  0  0  0  0  0  0  0  0  0  0  0
   13.1516   -6.6941   21.9189 C   0  0  0  0  0  0  0  0  0  0  0  0
   13.2023   -6.9971   20.5489 C   0  0  0  0  0  0  0  0  0  0  0  0
   14.4554   -7.2270   19.9379 C   0  0  0  0  0  0  0  0  0  0  0  0
   15.6177   -7.1465   20.7162 C   0  0  0  0  0  0  0  0  0  0  0  0
   15.5614   -6.8434   22.0841 C   0  0  0  0  0  0  0  0  0  0  0  0
   13.4898   -5.2472   24.5784 C   0  0  0  0  0  0  0  0  0  0  0  0
   14.2695   -6.3136   24.0548 O   0  0  0  0  0  0  0  0  0  0  0  0
   12.0235   -7.0709   19.7964 O   0  0  0  0  0  0  0  0  0  0  0  0
   11.1727   -5.9529   19.5804 C   0  0  0  0  0  0  0  0  0  0  0  0
   16.7248   -6.7639   22.8574 O   0  0  0  0  0  0  0  0  0  0  0  0
   17.9620   -6.2938   22.3395 C   0  0  0  0  0  0  0  0  0  0  0  0
 25 26  1  0  0  0
 26 19  1  0  0  0
 19 20  2  0  0  0
 20 21  1  0  0  0
 21 27  1  0  0  0
 21 22  2  0  0  0
 27 28  1  0  0  0
 22 23  1  0  0  0
 22 17  1  0  0  0
 23 24  2  0  0  0
 24 29  1  0  0  0
 24 19  1  0  0  0
 29 30  1  0  0  0
 17 18  2  0  0  0
 17  1  1  0  0  0
  1  2  1  0  0  0
  2  3  2  0  0  0
  3  4  1  0  0  0
  3  7  1  0  0  0
  7  8  2  0  0  0
  8  9  1  0  0  0
  9 13  1  0  0  0
  9 10  2  0  0  0
 13 14  1  0  0  0
 10 15  1  0  0  0
 10 11  1  0  0  0
 15 16  1  0  0  0
 11 12  2  0  0  0
 12  7  1  0  0  0
  4  5  1  0  0  0
  4  6  1  0  0  0
M  END
>  <minimizedAffinity>
-7.40985

>  <minimizedRMSD>
1.81642

$$$$
CHEMBL2381136 PubChem-52933306


 33 35  0  0  0  0  0  0  0  0999 V2000
   15.7663   -8.5003   17.5439 O   0  0  0  0  0  0  0  0  0  0  0  0
   16.4820   -9.2373   13.4502 C   0  0  0  0  0  0  0  0  0  0  0  0
   15.9958   -7.9955   13.8951 C   0  0  0  0  0  0  0  0  0  0  0  0
   15.7618   -7.7615   15.2528 C   0  0  0  0  0  0  0  0  0  0  0  0
   16.0129   -8.7624   16.1939 C   0  0  0  0  0  0  0  0  0  0  0  0
   16.5056  -10.0028   15.7630 C   0  0  0  0  0  0  0  0  0  0  0  0
   16.7388  -10.2342   14.4052 C   0  0  0  0  0  0  0  0  0  0  0  0
   15.7754  -10.0189   11.1201 C   0  0  0  0  0  0  0  0  0  0  0  0
   16.1022  -10.2102    9.7664 C   0  0  0  0  0  0  0  0  0  0  0  0
   17.3571   -9.8532    9.2748 C   0  0  0  0  0  0  0  0  0  0  0  0
   17.6474  -10.0457    7.9650 F   0  0  0  0  0  0  0  0  0  0  0  0
   18.3042   -9.2930   10.1314 C   0  0  0  0  0  0  0  0  0  0  0  0
   19.5247   -8.9365    9.6624 F   0  0  0  0  0  0  0  0  0  0  0  0
   17.9958   -9.1006   11.4780 C   0  0  0  0  0  0  0  0  0  0  0  0
   16.7401   -9.4612   11.9987 C   0  0  0  0  0  0  0  0  0  0  0  0
   13.3299  -10.2661   10.7886 C   0  0  0  0  0  0  0  0  0  0  0  0
   14.5012  -10.3625   11.5881 O   0  0  0  0  0  0  0  0  0  0  0  0
   14.5744   -7.8723   17.9983 C   0  0  0  0  0  0  0  0  0  0  0  0
   14.7884   -7.3184   19.3614 C   0  0  0  0  0  0  0  0  0  0  0  0
   15.9809   -7.5762   20.0422 C   0  0  0  0  0  0  0  0  0  0  0  0
   16.1919   -7.0308   21.3105 C   0  0  0  0  0  0  0  0  0  0  0  0
   15.2112   -6.2255   21.8967 C   0  0  0  0  0  0  0  0  0  0  0  0
   14.0075   -5.9613   21.2247 C   0  0  0  0  0  0  0  0  0  0  0  0
   13.8135   -6.5043   19.9456 C   0  0  0  0  0  0  0  0  0  0  0  0
   12.9972   -5.0750   21.8525 C   0  0  0  0  0  0  0  0  0  0  0  0
   13.2460   -4.5970   22.9937 O   0  0  0  0  0  0  0  0  0  0  0  0
   11.7531   -4.7327   21.2060 N   0  0  0  0  0  0  0  0  0  0  0  0
   11.1932   -5.5338   20.1282 C   0  0  0  0  0  0  0  0  0  0  0  0
   10.9680   -3.5936   21.6661 C   0  0  0  0  0  0  0  0  0  0  0  0
   10.3724   -3.8736   23.0046 C   0  0  0  0  0  0  0  0  0  0  0  0
    9.8887   -2.9342   23.6872 O   0  0  0  0  0  0  0  0  0  0  0  0
   10.3626   -5.1690   23.5043 O   0  0  0  0  0  0  0  0  0  0  0  0
   10.7226   -5.8697   22.9969 H   0  0  0  0  0  0  0  0  0  0  0  0
 16 17  1  0  0  0
 17  8  1  0  0  0
  8  9  2  0  0  0
  9 10  1  0  0  0
 10 11  1  0  0  0
 10 12  2  0  0  0
 12 13  1  0  0  0
 12 14  1  0  0  0
 14 15  2  0  0  0
 15  2  1  0  0  0
 15  8  1  0  0  0
  2  3  2  0  0  0
  3  4  1  0  0  0
  4  5  2  0  0  0
  5  1  1  0  0  0
  5  6  1  0  0  0
  1 18  1  0  0  0
 18 19  1  0  0  0
 19 20  2  0  0  0
 20 21  1  0  0  0
 21 22  2  0  0  0
 22 23  1  0  0  0
 23 25  1  0  0  0
 23 24  2  0  0  0
 25 26  2  0  0  0
 25 27  1  0  0  0
 27 28  1  0  0  0
 27 29  1  0  0  0
 29 30  1  0  0  0
 30 31  2  0  0  0
 30 32  1  0  0  0
 24 19  1  0  0  0
  6  7  2  0  0  0
  7  2  1  0  0  0
 32 33  1  0  0  0
M  END
>  <minimizedAffinity>
-7.40829

>  <minimizedRMSD>
1.64233

$$$$
CHEMBL2314645 CHEMBL2364827 PubChem-71520834 PubChem-71520835


 27 29  0  0  0  0  0  0  0  0999 V2000
   16.4077   -8.7753   15.0568 C   0  0  0  0  0  0  0  0  0  0  0  0
   16.2413   -8.5343   13.7082 C   0  0  0  0  0  0  0  0  0  0  0  0
   16.5436   -9.7053   13.1207 N   0  0  0  0  0  0  0  0  0  0  0  0
   16.8770  -10.5946   14.0402 N   0  0  0  0  0  0  0  0  0  0  0  0
   16.7952  -10.0524   15.2441 N   0  0  0  0  0  0  0  0  0  0  0  0
   16.1665   -7.7908   16.1516 C   0  0  0  0  0  0  0  0  0  0  0  0
   15.3360   -8.4015   17.2731 C   0  0  0  0  0  0  0  0  0  0  0  0
   14.0575   -7.6089   17.5246 C   0  0  0  0  0  0  0  0  0  0  0  0
   13.2119   -5.9665   20.7341 C   0  0  0  0  0  0  0  0  0  0  0  0
   14.5047   -6.8598   21.3240 S   0  0  0  0  0  0  0  0  0  0  0  0
   14.8697   -7.5782   19.8452 C   0  0  0  0  0  0  0  0  0  0  0  0
   14.0020   -7.1383   18.9036 N   0  0  0  0  0  0  0  0  0  0  0  0
   13.0795   -6.2515   19.3790 C   0  0  0  0  0  0  0  0  0  0  0  0
   12.0152   -5.6503   18.5192 C   0  0  0  0  0  0  0  0  0  0  0  0
   12.3553   -5.0592   21.5565 C   0  0  0  0  0  0  0  0  0  0  0  0
   13.0913   -3.7732   21.8942 C   0  0  0  0  0  0  0  0  0  0  0  0
   14.1728   -3.9358   23.8105 C   0  0  0  0  0  0  0  0  0  0  0  0
   12.9706   -3.4997   23.2569 O   0  0  0  0  0  0  0  0  0  0  0  0
   16.5589   -9.9624   11.6917 C   0  0  0  0  0  0  0  0  0  0  0  0
   17.9319   -9.6475   11.1245 C   0  0  0  0  0  0  0  0  0  0  0  0
   17.8197   -9.2489    9.6913 C   0  0  0  0  0  0  0  0  0  0  0  0
   16.5910   -9.7311    8.6540 S   0  0  0  0  0  0  0  0  0  0  0  0
   17.1726   -8.8682    7.3291 C   0  0  0  0  0  0  0  0  0  0  0  0
   18.2996   -8.2096    7.6828 N   0  0  0  0  0  0  0  0  0  0  0  0
   19.0294   -7.3734    6.7438 C   0  0  0  0  0  0  0  0  0  0  0  0
   18.6679   -8.4050    8.9816 C   0  0  0  0  0  0  0  0  0  0  0  0
   19.8692   -7.7566    9.5889 C   0  0  0  0  0  0  0  0  0  0  0  0
 17 18  1  0  0  0
 18 16  1  0  0  0
 16 15  1  0  0  0
 15  9  1  0  0  0
  9 10  1  0  0  0
 10 11  1  0  0  0
 11 12  2  0  0  0
 12  8  1  0  0  0
 12 13  1  0  0  0
  8  7  1  0  0  0
  7  6  1  0  0  0
  6  1  1  0  0  0
  1  2  2  0  0  0
  2  3  1  0  0  0
  3 19  1  0  0  0
  3  4  1  0  0  0
 19 20  1  0  0  0
 20 21  1  0  0  0
 21 22  1  0  0  0
 22 23  1  0  0  0
 23 24  2  0  0  0
 24 25  1  0  0  0
 24 26  1  0  0  0
 26 27  1  0  0  0
 26 21  2  0  0  0
  4  5  2  0  0  0
  5  1  1  0  0  0
 13 14  1  0  0  0
 13  9  2  0  0  0
M  CHG 1  12   1
M  CHG 1  24   1
M  END
>  <minimizedAffinity>
-7.40389

>  <minimizedRMSD>
1.96327

$$$$
CHEMBL4536595 PubChem-155548752


 40 43  0  0  0  0  0  0  0  0999 V2000
   16.3482   -9.4132   17.1614 N   0  0  0  0  0  0  0  0  0  0  0  0
   15.7732   -8.4163   16.4210 C   0  0  0  0  0  0  0  0  0  0  0  0
   16.0249   -8.3326   15.0764 N   0  0  0  0  0  0  0  0  0  0  0  0
   16.8428   -9.2246   14.4415 C   0  0  0  0  0  0  0  0  0  0  0  0
   17.4173  -10.2294   15.2091 C   0  0  0  0  0  0  0  0  0  0  0  0
   17.1598  -10.3003   16.5377 C   0  0  0  0  0  0  0  0  0  0  0  0
   17.7942  -11.3264   17.1185 N   0  0  0  0  0  0  0  0  0  0  0  0
   18.4742  -11.9157   16.1019 C   0  0  0  0  0  0  0  0  0  0  0  0
   18.2673  -11.2603   14.8835 C   0  0  0  0  0  0  0  0  0  0  0  0
   17.7726  -11.5928   18.0660 H   0  0  0  0  0  0  0  0  0  0  0  0
   17.1106   -9.1426   13.0340 N   0  0  0  0  0  0  0  0  0  0  0  0
   17.9837   -8.7652   12.7802 H   0  0  0  0  0  0  0  0  0  0  0  0
   16.2563   -9.5458   11.9504 C   0  0  0  0  0  0  0  0  0  0  0  0
   16.7403   -9.5412   10.6165 C   0  0  0  0  0  0  0  0  0  0  0  0
   15.8814   -9.9409    9.5799 C   0  0  0  0  0  0  0  0  0  0  0  0
   14.5706  -10.3386    9.8438 C   0  0  0  0  0  0  0  0  0  0  0  0
   14.0966  -10.3427   11.1535 C   0  0  0  0  0  0  0  0  0  0  0  0
   14.9341   -9.9492   12.1967 C   0  0  0  0  0  0  0  0  0  0  0  0
   18.1220   -9.1311   10.2584 C   0  0  0  0  0  0  0  0  0  0  0  0
   19.1202   -9.6615   10.8176 O   0  0  0  0  0  0  0  0  0  0  0  0
   18.3266   -8.1207    9.2661 N   0  0  0  0  0  0  0  0  0  0  0  0
   19.6549   -7.6794    8.8753 C   0  0  0  0  0  0  0  0  0  0  0  0
   17.5423   -7.7114    8.8342 H   0  0  0  0  0  0  0  0  0  0  0  0
   14.9057   -7.4480   17.0256 N   0  0  0  0  0  0  0  0  0  0  0  0
   14.5626   -6.7414   16.4321 H   0  0  0  0  0  0  0  0  0  0  0  0
   14.4783   -7.3879   18.3959 C   0  0  0  0  0  0  0  0  0  0  0  0
   13.1209   -7.1563   18.6776 C   0  0  0  0  0  0  0  0  0  0  0  0
   12.6893   -7.0953   20.0131 C   0  0  0  0  0  0  0  0  0  0  0  0
   13.5970   -7.2648   21.0608 C   0  0  0  0  0  0  0  0  0  0  0  0
   14.9461   -7.4910   20.7809 C   0  0  0  0  0  0  0  0  0  0  0  0
   15.3827   -7.5536   19.4563 C   0  0  0  0  0  0  0  0  0  0  0  0
   12.2200   -6.9885   17.6195 O   0  0  0  0  0  0  0  0  0  0  0  0
   10.8734   -7.4390   17.6764 C   0  0  0  0  0  0  0  0  0  0  0  0
   13.1296   -7.1781   22.4741 C   0  0  0  0  0  0  0  0  0  0  0  0
   13.8527   -6.1318   23.1844 N   0  0  0  0  0  0  0  0  0  0  0  0
   13.4098   -4.7734   23.2234 C   0  0  0  0  0  0  0  0  0  0  0  0
   12.3295   -4.4331   22.6713 O   0  0  0  0  0  0  0  0  0  0  0  0
   14.6821   -6.3707   23.6580 H   0  0  0  0  0  0  0  0  0  0  0  0
   14.2464   -3.7463   23.9000 C   0  0  0  0  0  0  0  0  0  0  0  0
   15.5000   -4.3904   24.4575 C   0  0  0  0  0  0  0  0  0  0  0  0
  1  2  2  0  0  0
  2  3  1  0  0  0
  3  4  2  0  0  0
  4  5  1  0  0  0
  5  6  2  0  0  0
  6  7  1  0  0  0
  7  8  1  0  0  0
  8  9  2  0  0  0
  4 11  1  0  0  0
 11 13  1  0  0  0
 13 14  2  0  0  0
 14 15  1  0  0  0
 15 16  2  0  0  0
 16 17  1  0  0  0
 17 18  2  0  0  0
 14 19  1  0  0  0
 19 20  2  0  0  0
 19 21  1  0  0  0
 21 22  1  0  0  0
  2 24  1  0  0  0
 24 26  1  0  0  0
 26 27  2  0  0  0
 27 28  1  0  0  0
 28 29  2  0  0  0
 29 30  1  0  0  0
 30 31  2  0  0  0
 29 34  1  0  0  0
 34 35  1  0  0  0
 35 36  1  0  0  0
 36 37  2  0  0  0
 36 39  1  0  0  0
 39 40  1  0  0  0
 27 32  1  0  0  0
 32 33  1  0  0  0
  6  1  1  0  0  0
 18 13  1  0  0  0
 31 26  1  0  0  0
  9  5  1  0  0  0
  7 10  1  0  0  0
 11 12  1  0  0  0
 21 23  1  0  0  0
 24 25  1  0  0  0
 35 38  1  0  0  0
M  END
>  <minimizedAffinity>
-7.39956

>  <minimizedRMSD>
1.94045

$$$$
CHEMBL4539124 PubChem-135335516


 33 36  0  0  0  0  0  0  0  0999 V2000
   14.6715   -7.5820   18.4054 C   0  0  0  0  0  0  0  0  0  0  0  0
   15.8537   -8.2694   18.6783 C   0  0  0  0  0  0  0  0  0  0  0  0
   16.2829   -8.7332   17.4969 N   0  0  0  0  0  0  0  0  0  0  0  0
   17.3880   -9.4642   17.2167 C   0  0  0  0  0  0  0  0  0  0  0  0
   17.6150   -9.8280   15.8822 C   0  0  0  0  0  0  0  0  0  0  0  0
   16.7042   -9.4340   14.8728 C   0  0  0  0  0  0  0  0  0  0  0  0
   15.5713   -8.6707   15.2283 C   0  0  0  0  0  0  0  0  0  0  0  0
   15.3996   -8.3405   16.5694 C   0  0  0  0  0  0  0  0  0  0  0  0
   14.3832   -7.6247   17.0798 N   0  0  0  0  0  0  0  0  0  0  0  0
   12.5154   -6.4726   19.1500 C   0  0  0  0  0  0  0  0  0  0  0  0
   11.7801   -5.8267   20.1574 C   0  0  0  0  0  0  0  0  0  0  0  0
   12.3332   -5.5938   21.4242 C   0  0  0  0  0  0  0  0  0  0  0  0
   13.6426   -6.0146   21.6848 C   0  0  0  0  0  0  0  0  0  0  0  0
   14.3815   -6.6571   20.6905 C   0  0  0  0  0  0  0  0  0  0  0  0
   13.8369   -6.8948   19.4197 C   0  0  0  0  0  0  0  0  0  0  0  0
   14.3799   -5.7463   23.2540 Cl  0  0  0  0  0  0  0  0  0  0  0  0
   10.7832   -7.4922   17.6982 C   0  0  0  0  0  0  0  0  0  0  0  0
   11.9447   -6.6959   17.8910 O   0  0  0  0  0  0  0  0  0  0  0  0
   11.6011   -4.9504   22.4283 O   0  0  0  0  0  0  0  0  0  0  0  0
   11.2001   -3.5900   22.3364 C   0  0  0  0  0  0  0  0  0  0  0  0
   16.9350   -9.8003   13.4984 N   0  0  0  0  0  0  0  0  0  0  0  0
   15.9269   -9.4966   12.4763 C   0  0  0  0  0  0  0  0  0  0  0  0
   16.4568   -9.8077   11.0827 C   0  0  0  0  0  0  0  0  0  0  0  0
   17.8282   -9.3110   10.9789 N   0  0  0  0  0  0  0  0  0  0  0  0
   18.7487  -10.0956   11.8177 C   0  0  0  0  0  0  0  0  0  0  0  0
   18.1208  -10.5831   13.1347 C   0  0  0  0  0  0  0  0  0  0  0  0
   18.2690   -9.3641    9.5821 C   0  0  0  0  0  0  0  0  0  0  0  0
   17.2131   -8.8545    8.5962 C   0  0  0  0  0  0  0  0  0  0  0  0
   17.5889   -9.2342    7.1730 C   0  0  0  0  0  0  0  0  0  0  0  0
   18.5165   -8.2293    6.5764 C   0  0  0  0  0  0  0  0  0  0  0  0
   18.6500   -7.0951    7.1064 O   0  0  0  0  0  0  0  0  0  0  0  0
   19.2237   -8.5414    5.4235 O   0  0  0  0  0  0  0  0  0  0  0  0
   19.1256   -9.3850    5.0277 H   0  0  0  0  0  0  0  0  0  0  0  0
 17 18  1  0  0  0
 18 10  1  0  0  0
 10 11  2  0  0  0
 11 12  1  0  0  0
 12 13  2  0  0  0
 13 14  1  0  0  0
 14 15  2  0  0  0
 15  1  1  0  0  0
  1  2  2  0  0  0
  2  3  1  0  0  0
  3  4  1  0  0  0
  4  5  2  0  0  0
  5  6  1  0  0  0
  6  7  2  0  0  0
  7  8  1  0  0  0
  8  9  2  0  0  0
  6 21  1  0  0  0
 21 22  1  0  0  0
 22 23  1  0  0  0
 23 24  1  0  0  0
 24 25  1  0  0  0
 25 26  1  0  0  0
 24 27  1  0  0  0
 27 28  1  0  0  0
 28 29  1  0  0  0
 29 30  1  0  0  0
 30 31  2  0  0  0
 30 32  1  0  0  0
 13 16  1  0  0  0
 12 19  1  0  0  0
 19 20  1  0  0  0
 15 10  1  0  0  0
  9  1  1  0  0  0
  8  3  1  0  0  0
 26 21  1  0  0  0
 32 33  1  0  0  0
M  END
>  <minimizedAffinity>
-7.39526

>  <minimizedRMSD>
1.54060

$$$$
CHEMBL4566660 CHEMBL4596114 PubChem-135335289 PubChem-135335290


 35 39  0  0  0  0  0  0  0  0999 V2000
   14.8302   -7.6084   18.4007 C   0  0  0  0  0  0  0  0  0  0  0  0
   15.8702   -8.5037   18.6480 C   0  0  0  0  0  0  0  0  0  0  0  0
   16.2651   -8.9404   17.4445 N   0  0  0  0  0  0  0  0  0  0  0  0
   17.2444   -9.8232   17.1353 C   0  0  0  0  0  0  0  0  0  0  0  0
   17.4628  -10.1158   15.7818 C   0  0  0  0  0  0  0  0  0  0  0  0
   16.6723   -9.4971   14.7839 C   0  0  0  0  0  0  0  0  0  0  0  0
   15.6670   -8.5844   15.1702 C   0  0  0  0  0  0  0  0  0  0  0  0
   15.4975   -8.3344   16.5289 C   0  0  0  0  0  0  0  0  0  0  0  0
   14.5933   -7.4997   17.0688 N   0  0  0  0  0  0  0  0  0  0  0  0
   12.7822   -6.3574   19.2221 C   0  0  0  0  0  0  0  0  0  0  0  0
   12.1276   -5.6682   20.2560 C   0  0  0  0  0  0  0  0  0  0  0  0
   12.7380   -5.4810   21.5041 C   0  0  0  0  0  0  0  0  0  0  0  0
   14.0234   -5.9923   21.7184 C   0  0  0  0  0  0  0  0  0  0  0  0
   14.6821   -6.6787   20.6974 C   0  0  0  0  0  0  0  0  0  0  0  0
   14.0798   -6.8711   19.4452 C   0  0  0  0  0  0  0  0  0  0  0  0
   14.8300   -5.7844   23.2625 Cl  0  0  0  0  0  0  0  0  0  0  0  0
   11.0029   -7.3472   17.8071 C   0  0  0  0  0  0  0  0  0  0  0  0
   12.1552   -6.5338   17.9824 O   0  0  0  0  0  0  0  0  0  0  0  0
   12.0864   -4.7944   22.5345 O   0  0  0  0  0  0  0  0  0  0  0  0
   10.6728   -4.6609   22.5964 C   0  0  0  0  0  0  0  0  0  0  0  0
   16.8942   -9.7916   13.3908 N   0  0  0  0  0  0  0  0  0  0  0  0
   15.7663   -9.8178   12.4555 C   0  0  0  0  0  0  0  0  0  0  0  0
   16.1316   -9.0761   11.1712 C   0  0  0  0  0  0  0  0  0  0  0  0
   17.4589   -9.4683   10.6853 N   0  0  0  0  0  0  0  0  0  0  0  0
   18.2498  -10.4541   11.4223 C   0  0  0  0  0  0  0  0  0  0  0  0
   18.2446  -10.1191   12.9128 C   0  0  0  0  0  0  0  0  0  0  0  0
   17.9627   -8.9183    9.4588 C   0  0  0  0  0  0  0  0  0  0  0  0
   18.9379   -7.9667    9.4824 N   0  0  0  0  0  0  0  0  0  0  0  0
   19.4261   -7.4328    8.3326 C   0  0  0  0  0  0  0  0  0  0  0  0
   18.9266   -7.8593    7.1048 C   0  0  0  0  0  0  0  0  0  0  0  0
   17.9299   -8.8315    7.0907 C   0  0  0  0  0  0  0  0  0  0  0  0
   17.4673   -9.3414    8.2619 N   0  0  0  0  0  0  0  0  0  0  0  0
   19.4242   -7.3130    5.8897 N   0  0  0  0  0  0  0  0  0  0  0  0
   20.1291   -6.6260    5.9112 H   0  0  0  0  0  0  0  0  0  0  0  0
   19.0639   -7.6218    5.0272 H   0  0  0  0  0  0  0  0  0  0  0  0
 17 18  1  0  0  0
 18 10  1  0  0  0
 10 11  2  0  0  0
 11 12  1  0  0  0
 12 13  2  0  0  0
 13 14  1  0  0  0
 14 15  2  0  0  0
 15  1  1  0  0  0
  1  2  2  0  0  0
  2  3  1  0  0  0
  3  4  1  0  0  0
  4  5  2  0  0  0
  5  6  1  0  0  0
  6  7  2  0  0  0
  7  8  1  0  0  0
  8  9  2  0  0  0
  6 21  1  0  0  0
 21 22  1  0  0  0
 22 23  1  0  0  0
 23 24  1  0  0  0
 24 25  1  0  0  0
 25 26  1  0  0  0
 24 27  1  0  0  0
 27 28  2  0  0  0
 28 29  1  0  0  0
 29 30  2  0  0  0
 30 31  1  0  0  0
 31 32  2  0  0  0
 30 33  1  0  0  0
 13 16  1  0  0  0
 12 19  1  0  0  0
 19 20  1  0  0  0
 15 10  1  0  0  0
  9  1  1  0  0  0
  8  3  1  0  0  0
 26 21  1  0  0  0
 32 27  1  0  0  0
 33 34  1  0  0  0
 33 35  1  0  0  0
M  END
>  <minimizedAffinity>
-7.39451

>  <minimizedRMSD>
1.03927

$$$$
CHEMBL1443187 ChemDiv-C200-3637 MCULE-4703778221 MolPort-005-281-244 PubChem-7245567 ZINC000004483407


 29 32  0  0  0  0  0  0  0  0999 V2000
   13.8600   -7.8462   18.7668 C   0  0  0  0  0  0  0  0  0  0  0  0
   14.6741   -6.1365   21.7947 C   0  0  0  0  0  0  0  0  0  0  0  0
   15.7947   -6.8695   21.6483 N   0  0  0  0  0  0  0  0  0  0  0  0
   15.6216   -7.5879   20.5411 N   0  0  0  0  0  0  0  0  0  0  0  0
   14.4011   -7.2844   20.0420 C   0  0  0  0  0  0  0  0  0  0  0  0
   13.7902   -6.3676   20.8122 N   0  0  0  0  0  0  0  0  0  0  0  0
   12.5984   -5.7252   20.7617 C   0  0  0  0  0  0  0  0  0  0  0  0
   12.3051   -4.8157   21.7565 C   0  0  0  0  0  0  0  0  0  0  0  0
   10.7884   -4.1718   21.4630 S   0  0  0  0  0  0  0  0  0  0  0  0
   10.4913   -5.0611   20.0474 C   0  0  0  0  0  0  0  0  0  0  0  0
   11.5985   -5.8794   19.7959 C   0  0  0  0  0  0  0  0  0  0  0  0
   13.2199   -4.5636   22.7923 C   0  0  0  0  0  0  0  0  0  0  0  0
   12.9417   -3.7297   23.6967 O   0  0  0  0  0  0  0  0  0  0  0  0
   14.4187   -5.2411   22.7987 N   0  0  0  0  0  0  0  0  0  0  0  0
   15.4025   -5.0133   23.8492 C   0  0  0  0  0  0  0  0  0  0  0  0
   14.7163   -7.4236   17.5808 C   0  0  0  0  0  0  0  0  0  0  0  0
   15.6848   -8.4938   17.2044 C   0  0  0  0  0  0  0  0  0  0  0  0
   16.5254   -8.8951   18.0526 O   0  0  0  0  0  0  0  0  0  0  0  0
   15.6536   -9.0525   15.8885 N   0  0  0  0  0  0  0  0  0  0  0  0
   14.9689   -8.7331   15.2574 H   0  0  0  0  0  0  0  0  0  0  0  0
   16.5912  -10.0738   15.4413 C   0  0  0  0  0  0  0  0  0  0  0  0
   16.8758   -9.9188   13.9856 C   0  0  0  0  0  0  0  0  0  0  0  0
   15.8937   -9.4119   13.1282 C   0  0  0  0  0  0  0  0  0  0  0  0
   16.1670   -9.2562   11.7662 C   0  0  0  0  0  0  0  0  0  0  0  0
   17.4271   -9.6050   11.2525 C   0  0  0  0  0  0  0  0  0  0  0  0
   18.4054  -10.1091   12.1164 C   0  0  0  0  0  0  0  0  0  0  0  0
   18.1321  -10.2651   13.4784 C   0  0  0  0  0  0  0  0  0  0  0  0
   17.7315   -9.4613    9.8961 O   0  0  0  0  0  0  0  0  0  0  0  0
   16.7705   -9.6610    8.8684 C   0  0  0  0  0  0  0  0  0  0  0  0
  2  3  2  0  0  0
  3  4  1  0  0  0
  4  5  2  0  0  0
  5  1  1  0  0  0
  1 16  1  0  0  0
 16 17  1  0  0  0
 17 18  2  0  0  0
 17 19  1  0  0  0
 19 21  1  0  0  0
 21 22  1  0  0  0
 22 23  2  0  0  0
 23 24  1  0  0  0
 24 25  2  0  0  0
 25 26  1  0  0  0
 26 27  2  0  0  0
 25 28  1  0  0  0
 28 29  1  0  0  0
  5  6  1  0  0  0
  6  7  1  0  0  0
  7  8  2  0  0  0
  8  9  1  0  0  0
  9 10  1  0  0  0
 10 11  2  0  0  0
  8 12  1  0  0  0
 12 13  2  0  0  0
 12 14  1  0  0  0
 14 15  1  0  0  0
  6  2  1  0  0  0
 11  7  1  0  0  0
 14  2  1  0  0  0
 27 22  1  0  0  0
 19 20  1  0  0  0
M  END
>  <minimizedAffinity>
-7.39208

>  <minimizedRMSD>
1.91823

$$$$
CHEMBL106738 PubChem-11001603


 26 27  0  0  0  0  0  0  0  0999 V2000
   14.2504   -7.2232   18.1432 N   0  0  0  0  0  0  0  0  0  0  0  0
   14.8981   -7.2167   19.4269 C   0  0  0  0  0  0  0  0  0  0  0  0
   16.0795   -7.6396   19.5533 O   0  0  0  0  0  0  0  0  0  0  0  0
   13.3280   -6.8810   18.1048 H   0  0  0  0  0  0  0  0  0  0  0  0
   14.1743   -6.7106   20.6066 C   0  0  0  0  0  0  0  0  0  0  0  0
   14.7386   -6.8152   21.8852 C   0  0  0  0  0  0  0  0  0  0  0  0
   14.0510   -6.3350   23.0022 C   0  0  0  0  0  0  0  0  0  0  0  0
   12.7928   -5.7455   22.8526 C   0  0  0  0  0  0  0  0  0  0  0  0
   12.1206   -5.2723   23.9726 O   0  0  0  0  0  0  0  0  0  0  0  0
   12.2142   -5.6331   21.5807 C   0  0  0  0  0  0  0  0  0  0  0  0
   12.9122   -6.1184   20.4626 C   0  0  0  0  0  0  0  0  0  0  0  0
   12.5112   -5.3496   24.8208 H   0  0  0  0  0  0  0  0  0  0  0  0
   10.9540   -5.0399   21.4503 O   0  0  0  0  0  0  0  0  0  0  0  0
   10.2414   -5.0115   20.2211 C   0  0  0  0  0  0  0  0  0  0  0  0
   15.8092   -8.5075   16.8800 C   0  0  0  0  0  0  0  0  0  0  0  0
   14.8176   -7.6752   16.9361 N   0  0  0  0  0  0  0  0  0  0  0  0
   17.4795   -9.8232   13.1689 C   0  0  0  0  0  0  0  0  0  0  0  0
   16.2874   -9.0805   13.1774 C   0  0  0  0  0  0  0  0  0  0  0  0
   15.7343   -8.6465   14.3847 C   0  0  0  0  0  0  0  0  0  0  0  0
   16.3665   -8.9497   15.5979 C   0  0  0  0  0  0  0  0  0  0  0  0
   17.5529   -9.6887   15.5919 C   0  0  0  0  0  0  0  0  0  0  0  0
   18.1090  -10.1246   14.3854 C   0  0  0  0  0  0  0  0  0  0  0  0
   19.2889  -10.8579   14.4007 O   0  0  0  0  0  0  0  0  0  0  0  0
   19.7062  -11.0570   15.2157 H   0  0  0  0  0  0  0  0  0  0  0  0
   18.0018   -9.5133   10.7691 C   0  0  0  0  0  0  0  0  0  0  0  0
   18.0514  -10.2682   11.9722 O   0  0  0  0  0  0  0  0  0  0  0  0
 25 26  1  0  0  0
 26 17  1  0  0  0
 17 18  2  0  0  0
 18 19  1  0  0  0
 19 20  2  0  0  0
 20 15  1  0  0  0
 20 21  1  0  0  0
 15 16  2  0  0  0
 16  1  1  0  0  0
  1  2  1  0  0  0
  2  3  2  0  0  0
  2  5  1  0  0  0
  5  6  2  0  0  0
  6  7  1  0  0  0
  7  8  2  0  0  0
  8  9  1  0  0  0
  8 10  1  0  0  0
 10 13  1  0  0  0
 10 11  2  0  0  0
 13 14  1  0  0  0
 11  5  1  0  0  0
 21 22  2  0  0  0
 22 23  1  0  0  0
 22 17  1  0  0  0
  1  4  1  0  0  0
  9 12  1  0  0  0
 23 24  1  0  0  0
M  END
>  <minimizedAffinity>
-7.39093

>  <minimizedRMSD>
1.99424

$$$$
CHEMBL5208106


 38 41  0  0  0  0  0  0  0  0999 V2000
   17.7457  -10.2237   12.8550 C   0  0  0  0  0  0  0  0  0  0  0  0
   18.6358  -11.0453   13.4769 N   0  0  0  0  0  0  0  0  0  0  0  0
   18.7765  -11.0453   14.8293 C   0  0  0  0  0  0  0  0  0  0  0  0
   18.0218  -10.2146   15.5950 N   0  0  0  0  0  0  0  0  0  0  0  0
   17.1191   -9.3752   15.0229 C   0  0  0  0  0  0  0  0  0  0  0  0
   16.9598   -9.3612   13.6276 C   0  0  0  0  0  0  0  0  0  0  0  0
   16.0564   -8.5210   13.0567 N   0  0  0  0  0  0  0  0  0  0  0  0
   15.3013   -7.6900   13.8223 C   0  0  0  0  0  0  0  0  0  0  0  0
   15.4415   -7.6894   15.1747 N   0  0  0  0  0  0  0  0  0  0  0  0
   16.3324   -8.5124   15.7926 C   0  0  0  0  0  0  0  0  0  0  0  0
   16.4616   -8.4935   17.2150 N   0  0  0  0  0  0  0  0  0  0  0  0
   17.2313   -8.9392   17.6372 H   0  0  0  0  0  0  0  0  0  0  0  0
   15.5124   -7.8522   18.0184 N   0  0  0  0  0  0  0  0  0  0  0  0
   15.5275   -8.0229   19.2995 C   0  0  0  0  0  0  0  0  0  0  0  0
   14.5472   -7.3655   20.1697 C   0  0  0  0  0  0  0  0  0  0  0  0
   14.7113   -7.4381   21.5556 C   0  0  0  0  0  0  0  0  0  0  0  0
   13.7909   -6.8201   22.4059 C   0  0  0  0  0  0  0  0  0  0  0  0
   12.7001   -6.1251   21.8753 C   0  0  0  0  0  0  0  0  0  0  0  0
   12.5236   -6.0444   20.4865 C   0  0  0  0  0  0  0  0  0  0  0  0
   13.4532   -6.6684   19.6383 C   0  0  0  0  0  0  0  0  0  0  0  0
   11.7932   -5.5156   22.7334 O   0  0  0  0  0  0  0  0  0  0  0  0
   11.9150   -5.5721   23.6608 H   0  0  0  0  0  0  0  0  0  0  0  0
   11.4262   -5.3446   19.9737 O   0  0  0  0  0  0  0  0  0  0  0  0
   11.4605   -4.6711   18.7227 C   0  0  0  0  0  0  0  0  0  0  0  0
   17.6028  -10.2294   11.4258 N   0  0  0  0  0  0  0  0  0  0  0  0
   16.9978  -10.9098   11.0513 H   0  0  0  0  0  0  0  0  0  0  0  0
   18.2399   -9.3579   10.4811 C   0  0  0  0  0  0  0  0  0  0  0  0
   19.4597   -8.7227   10.7568 C   0  0  0  0  0  0  0  0  0  0  0  0
   20.0489   -7.8815    9.8100 C   0  0  0  0  0  0  0  0  0  0  0  0
   19.4218   -7.6688    8.5804 C   0  0  0  0  0  0  0  0  0  0  0  0
   18.1998   -8.2971    8.2922 C   0  0  0  0  0  0  0  0  0  0  0  0
   17.6191   -9.1389    9.2466 C   0  0  0  0  0  0  0  0  0  0  0  0
   17.5464   -8.1077    7.0694 O   0  0  0  0  0  0  0  0  0  0  0  0
   17.9535   -8.7403    5.8611 C   0  0  0  0  0  0  0  0  0  0  0  0
   19.2128   -8.0813    5.3236 C   0  0  0  0  0  0  0  0  0  0  0  0
   19.1850   -8.0555    3.8070 C   0  0  0  0  0  0  0  0  0  0  0  0
   17.8705   -8.1630    3.3518 O   0  0  0  0  0  0  0  0  0  0  0  0
   17.4888   -8.9997    3.6605 H   0  0  0  0  0  0  0  0  0  0  0  0
  1  2  2  0  0  0
  2  3  1  0  0  0
  3  4  2  0  0  0
  4  5  1  0  0  0
  5  6  2  0  0  0
  6  7  1  0  0  0
  7  8  2  0  0  0
  8  9  1  0  0  0
  9 10  2  0  0  0
 10 11  1  0  0  0
 11 13  1  0  0  0
 13 14  2  0  0  0
 14 15  1  0  0  0
 15 16  2  0  0  0
 16 17  1  0  0  0
 17 18  2  0  0  0
 18 19  1  0  0  0
 19 20  2  0  0  0
 19 23  1  0  0  0
 23 24  1  0  0  0
 18 21  1  0  0  0
  1 25  1  0  0  0
 25 27  1  0  0  0
 27 28  2  0  0  0
 28 29  1  0  0  0
 29 30  2  0  0  0
 30 31  1  0  0  0
 31 32  2  0  0  0
 31 33  1  0  0  0
 33 34  1  0  0  0
 34 35  1  0  0  0
 35 36  1  0  0  0
 36 37  1  0  0  0
  6  1  1  0  0  0
 20 15  1  0  0  0
 32 27  1  0  0  0
 10  5  1  0  0  0
 11 12  1  0  0  0
 21 22  1  0  0  0
 25 26  1  0  0  0
 37 38  1  0  0  0
M  END
>  <minimizedAffinity>
-7.37845

>  <minimizedRMSD>
1.95384

$$$$
CHEMBL1569941 ChemDiv-C920-1190 MCULE-8350697738 MolPort-007-684-132 PubChem-16012285 ZINC000008611171 ZINC08611171


 32 34  0  0  0  0  0  0  0  0999 V2000
   16.4043   -8.3657   16.4787 S   0  0  0  0  0  0  0  0  0  0  0  0
   17.8723   -8.4728   16.7867 O   0  0  0  0  0  0  0  0  0  0  0  0
   16.2090   -7.3673   15.3720 O   0  0  0  0  0  0  0  0  0  0  0  0
   14.0747   -6.5664   22.6142 C   0  0  0  0  0  0  0  0  0  0  0  0
   13.4442   -6.5507   21.2951 N   0  0  0  0  0  0  0  0  0  0  0  0
   12.1543   -6.1167   21.1801 C   0  0  0  0  0  0  0  0  0  0  0  0
   11.5159   -5.7327   22.2000 O   0  0  0  0  0  0  0  0  0  0  0  0
   11.5305   -6.0972   19.9253 C   0  0  0  0  0  0  0  0  0  0  0  0
   10.3358   -5.6985   19.8293 O   0  0  0  0  0  0  0  0  0  0  0  0
   12.2120   -6.5116   18.8160 N   0  0  0  0  0  0  0  0  0  0  0  0
   11.5426   -6.4834   17.5160 C   0  0  0  0  0  0  0  0  0  0  0  0
   13.5048   -6.9479   18.9211 C   0  0  0  0  0  0  0  0  0  0  0  0
   14.2216   -7.3789   17.7902 C   0  0  0  0  0  0  0  0  0  0  0  0
   15.5396   -7.8237   17.9048 C   0  0  0  0  0  0  0  0  0  0  0  0
   16.1581   -7.8454   19.1559 C   0  0  0  0  0  0  0  0  0  0  0  0
   15.4632   -7.4205   20.2888 C   0  0  0  0  0  0  0  0  0  0  0  0
   14.1351   -6.9689   20.1894 C   0  0  0  0  0  0  0  0  0  0  0  0
   15.7778   -9.9638   15.9884 C   0  0  0  0  0  0  0  0  0  0  0  0
   16.6855  -10.6193   14.9575 C   0  0  0  0  0  0  0  0  0  0  0  0
   16.3202  -10.1990   13.5746 C   0  0  0  0  0  0  0  0  0  0  0  0
   15.1695   -9.7385   13.3459 O   0  0  0  0  0  0  0  0  0  0  0  0
   17.2870  -10.3396   12.5262 N   0  0  0  0  0  0  0  0  0  0  0  0
   18.1490  -10.7466   12.7723 H   0  0  0  0  0  0  0  0  0  0  0  0
   17.1285   -9.9488   11.1559 C   0  0  0  0  0  0  0  0  0  0  0  0
   16.0285  -10.3584   10.3890 C   0  0  0  0  0  0  0  0  0  0  0  0
   15.9056   -9.9536    9.0581 C   0  0  0  0  0  0  0  0  0  0  0  0
   16.8818   -9.1358    8.4845 C   0  0  0  0  0  0  0  0  0  0  0  0
   17.9879   -8.7163    9.2377 C   0  0  0  0  0  0  0  0  0  0  0  0
   18.1003   -9.1287   10.5738 C   0  0  0  0  0  0  0  0  0  0  0  0
   19.0234   -7.8519    8.6392 C   0  0  0  0  0  0  0  0  0  0  0  0
   18.8489   -7.2704    7.2767 C   0  0  0  0  0  0  0  0  0  0  0  0
   20.0779   -7.5919    9.2777 O   0  0  0  0  0  0  0  0  0  0  0  0
  4  5  1  0  0  0
  5  6  1  0  0  0
  6  7  2  0  0  0
  6  8  1  0  0  0
  8  9  2  0  0  0
  8 10  1  0  0  0
 10 11  1  0  0  0
 10 12  1  0  0  0
 12 13  2  0  0  0
 13 14  1  0  0  0
 14 15  2  0  0  0
 14  1  1  0  0  0
 15 16  1  0  0  0
 16 17  2  0  0  0
 17  5  1  0  0  0
 17 12  1  0  0  0
  1  2  2  0  0  0
  1  3  2  0  0  0
  1 18  1  0  0  0
 18 19  1  0  0  0
 19 20  1  0  0  0
 20 21  2  0  0  0
 20 22  1  0  0  0
 22 24  1  0  0  0
 24 25  2  0  0  0
 25 26  1  0  0  0
 26 27  2  0  0  0
 27 28  1  0  0  0
 28 29  2  0  0  0
 28 30  1  0  0  0
 29 24  1  0  0  0
 30 31  1  0  0  0
 30 32  2  0  0  0
 22 23  1  0  0  0
M  END
>  <minimizedAffinity>
-7.36449

>  <minimizedRMSD>
1.79989

$$$$
CHEMBL1394286 ChemDiv-E854-2574 MCULE-8888445859 MolPort-007-767-050 PubChem-16022876 ZINC000008593999 ZINC08593999


 35 38  0  0  0  0  0  0  0  0999 V2000
   17.1534  -10.2359   13.9186 N   0  0  0  0  0  0  0  0  0  0  0  0
   15.8810  -10.3384   13.4964 N   0  0  0  0  0  0  0  0  0  0  0  0
   15.5160  -10.0780   12.2070 C   0  0  0  0  0  0  0  0  0  0  0  0
   14.0904  -10.2013   11.7961 C   0  0  0  0  0  0  0  0  0  0  0  0
   16.5203   -9.7035   11.3187 C   0  0  0  0  0  0  0  0  0  0  0  0
   16.5490   -9.3723    9.9792 C   0  0  0  0  0  0  0  0  0  0  0  0
   15.3710   -9.3310    9.0615 C   0  0  0  0  0  0  0  0  0  0  0  0
   17.8417   -9.0938    9.6474 N   0  0  0  0  0  0  0  0  0  0  0  0
   18.6146   -9.2381   10.7219 N   0  0  0  0  0  0  0  0  0  0  0  0
   17.8115   -9.6077   11.7354 C   0  0  0  0  0  0  0  0  0  0  0  0
   18.1568   -9.8775   13.0529 C   0  0  0  0  0  0  0  0  0  0  0  0
   19.3556   -9.7915   13.4361 O   0  0  0  0  0  0  0  0  0  0  0  0
   18.3706   -8.7012    8.3640 C   0  0  0  0  0  0  0  0  0  0  0  0
   17.9302   -9.2991    7.1721 C   0  0  0  0  0  0  0  0  0  0  0  0
   18.4561   -8.9038    5.9389 C   0  0  0  0  0  0  0  0  0  0  0  0
   19.4300   -7.9044    5.8833 C   0  0  0  0  0  0  0  0  0  0  0  0
   19.8773   -7.3006    7.0605 C   0  0  0  0  0  0  0  0  0  0  0  0
   19.3503   -7.6972    8.2929 C   0  0  0  0  0  0  0  0  0  0  0  0
   17.4633  -10.5499   15.3100 C   0  0  0  0  0  0  0  0  0  0  0  0
   17.8103   -9.2889   16.0923 C   0  0  0  0  0  0  0  0  0  0  0  0
   15.6870   -8.4861   17.2002 N   0  0  0  0  0  0  0  0  0  0  0  0
   16.6506   -8.3547   16.1524 C   0  0  0  0  0  0  0  0  0  0  0  0
   16.5211   -7.4668   15.2679 O   0  0  0  0  0  0  0  0  0  0  0  0
   15.8033   -9.2084   17.8590 H   0  0  0  0  0  0  0  0  0  0  0  0
   14.5406   -7.5975   17.3354 C   0  0  0  0  0  0  0  0  0  0  0  0
   13.8164   -6.6878   21.4796 C   0  0  0  0  0  0  0  0  0  0  0  0
   14.9579   -7.3988   21.0904 C   0  0  0  0  0  0  0  0  0  0  0  0
   15.1939   -7.6993   19.7483 C   0  0  0  0  0  0  0  0  0  0  0  0
   14.2840   -7.2929   18.7723 C   0  0  0  0  0  0  0  0  0  0  0  0
   13.1423   -6.5805   19.1421 C   0  0  0  0  0  0  0  0  0  0  0  0
   12.8912   -6.2694   20.4896 C   0  0  0  0  0  0  0  0  0  0  0  0
   14.0821   -5.2442   23.5069 C   0  0  0  0  0  0  0  0  0  0  0  0
   13.6616   -6.4313   22.8503 O   0  0  0  0  0  0  0  0  0  0  0  0
   11.7413   -5.5540   20.8427 O   0  0  0  0  0  0  0  0  0  0  0  0
   10.7228   -5.2159   19.9105 C   0  0  0  0  0  0  0  0  0  0  0  0
 32 33  1  0  0  0
 33 26  1  0  0  0
 26 27  2  0  0  0
 27 28  1  0  0  0
 28 29  2  0  0  0
 29 25  1  0  0  0
 29 30  1  0  0  0
 25 21  1  0  0  0
 21 22  1  0  0  0
 22 23  2  0  0  0
 22 20  1  0  0  0
 20 19  1  0  0  0
 19  1  1  0  0  0
  1  2  1  0  0  0
  2  3  2  0  0  0
  3  4  1  0  0  0
  3  5  1  0  0  0
  5  6  2  0  0  0
  6  7  1  0  0  0
  6  8  1  0  0  0
  8  9  1  0  0  0
  8 13  1  0  0  0
  9 10  2  0  0  0
 10 11  1  0  0  0
 10  5  1  0  0  0
 11 12  2  0  0  0
 11  1  1  0  0  0
 13 14  2  0  0  0
 14 15  1  0  0  0
 15 16  2  0  0  0
 16 17  1  0  0  0
 17 18  2  0  0  0
 18 13  1  0  0  0
 30 31  2  0  0  0
 31 34  1  0  0  0
 31 26  1  0  0  0
 34 35  1  0  0  0
 21 24  1  0  0  0
M  END
>  <minimizedAffinity>
-7.36129

>  <minimizedRMSD>
1.54495

$$$$
CHEMBL1579159 CHEMBL1625874 19549846 CSC046225379 LN00915031 MCULE-2114373634 MCULE-4809039884 MolPort-001-504-793 MolPort-001-519-596 PubChem-1222765 PubChem-17367277 ZINC000019549846


 30 32  0  0  0  0  0  0  0  0999 V2000
   15.7395   -8.3204   16.3852 N   0  0  0  0  0  0  0  0  0  0  0  0
   15.6856   -9.7873   16.4400 C   0  0  0  0  0  0  0  0  0  0  0  0
   16.7655  -10.4188   15.5624 C   0  0  0  0  0  0  0  0  0  0  0  0
   16.5582  -10.0974   14.1427 N   0  0  0  0  0  0  0  0  0  0  0  0
   15.9438   -8.7766   13.9288 C   0  0  0  0  0  0  0  0  0  0  0  0
   16.2084   -7.8028   15.0875 C   0  0  0  0  0  0  0  0  0  0  0  0
   14.3813   -7.8393   16.5890 C   0  0  0  0  0  0  0  0  0  0  0  0
   15.0501   -7.2580   20.2797 C   0  0  0  0  0  0  0  0  0  0  0  0
   15.2096   -7.6404   18.9380 C   0  0  0  0  0  0  0  0  0  0  0  0
   14.1846   -7.4495   18.0137 C   0  0  0  0  0  0  0  0  0  0  0  0
   12.9890   -6.8605   18.4177 C   0  0  0  0  0  0  0  0  0  0  0  0
   12.8026   -6.4689   19.7514 C   0  0  0  0  0  0  0  0  0  0  0  0
   13.8287   -6.6650   20.6930 C   0  0  0  0  0  0  0  0  0  0  0  0
   17.0436   -6.4579   21.5194 C   0  0  0  0  0  0  0  0  0  0  0  0
   16.0908   -7.4613   21.1935 O   0  0  0  0  0  0  0  0  0  0  0  0
   11.6026   -5.8796   20.1660 O   0  0  0  0  0  0  0  0  0  0  0  0
   11.0810   -4.6961   19.5766 C   0  0  0  0  0  0  0  0  0  0  0  0
   13.5790   -6.2525   22.0129 O   0  0  0  0  0  0  0  0  0  0  0  0
   13.8400   -4.9539   22.5255 C   0  0  0  0  0  0  0  0  0  0  0  0
   17.8683  -10.0734   13.5081 C   0  0  0  0  0  0  0  0  0  0  0  0
   17.7323   -9.8187   12.0444 C   0  0  0  0  0  0  0  0  0  0  0  0
   18.7963   -9.2503   11.3384 C   0  0  0  0  0  0  0  0  0  0  0  0
   18.6744   -9.0016    9.9684 C   0  0  0  0  0  0  0  0  0  0  0  0
   17.4903   -9.3281    9.2911 C   0  0  0  0  0  0  0  0  0  0  0  0
   16.4169   -9.8737   10.0103 C   0  0  0  0  0  0  0  0  0  0  0  0
   16.5385  -10.1225   11.3803 C   0  0  0  0  0  0  0  0  0  0  0  0
   17.3414   -9.0127    7.8311 C   0  0  0  0  0  0  0  0  0  0  0  0
   18.5502   -8.5955    7.3014 F   0  0  0  0  0  0  0  0  0  0  0  0
   16.9187  -10.1327    7.1359 F   0  0  0  0  0  0  0  0  0  0  0  0
   16.4079   -8.0052    7.6744 F   0  0  0  0  0  0  0  0  0  0  0  0
 14 15  1  0  0  0
 15  8  1  0  0  0
  8  9  2  0  0  0
  9 10  1  0  0  0
 10  7  1  0  0  0
 10 11  2  0  0  0
  7  1  1  0  0  0
  1  2  1  0  0  0
  2  3  1  0  0  0
  3  4  1  0  0  0
  4 20  1  0  0  0
  4  5  1  0  0  0
 20 21  1  0  0  0
 21 22  2  0  0  0
 22 23  1  0  0  0
 23 24  2  0  0  0
 24 25  1  0  0  0
 24 27  1  0  0  0
 25 26  2  0  0  0
 26 21  1  0  0  0
 27 28  1  0  0  0
 27 29  1  0  0  0
 27 30  1  0  0  0
  5  6  1  0  0  0
  6  1  1  0  0  0
 11 12  1  0  0  0
 12 16  1  0  0  0
 12 13  2  0  0  0
 16 17  1  0  0  0
 13 18  1  0  0  0
 13  8  1  0  0  0
 18 19  1  0  0  0
M  END
>  <minimizedAffinity>
-7.34676

>  <minimizedRMSD>
1.88507

$$$$
CHEMBL4554728 PubChem-135335400


 32 35  0  0  0  0  0  0  0  0999 V2000
   16.4022   -9.6032   13.7559 C   0  0  0  0  0  0  0  0  0  0  0  0
   15.5482   -8.7050   14.4273 C   0  0  0  0  0  0  0  0  0  0  0  0
   15.6687   -8.6006   15.8102 C   0  0  0  0  0  0  0  0  0  0  0  0
   14.9402   -7.7994   16.6057 N   0  0  0  0  0  0  0  0  0  0  0  0
   15.4323   -8.0631   17.8428 C   0  0  0  0  0  0  0  0  0  0  0  0
   16.4480   -9.0165   17.7796 C   0  0  0  0  0  0  0  0  0  0  0  0
   16.5683   -9.3310   16.4828 N   0  0  0  0  0  0  0  0  0  0  0  0
   17.4136  -10.2087   15.8914 C   0  0  0  0  0  0  0  0  0  0  0  0
   17.3389  -10.3570   14.4994 C   0  0  0  0  0  0  0  0  0  0  0  0
   14.9495   -7.4200   19.0881 C   0  0  0  0  0  0  0  0  0  0  0  0
   15.8353   -7.2961   20.1688 C   0  0  0  0  0  0  0  0  0  0  0  0
   15.4363   -6.6996   21.3656 C   0  0  0  0  0  0  0  0  0  0  0  0
   14.1319   -6.2113   21.5052 C   0  0  0  0  0  0  0  0  0  0  0  0
   13.2392   -6.3303   20.4309 C   0  0  0  0  0  0  0  0  0  0  0  0
   13.6310   -6.9290   19.2224 C   0  0  0  0  0  0  0  0  0  0  0  0
   16.5909   -6.5744   22.6806 Cl  0  0  0  0  0  0  0  0  0  0  0  0
   12.7242   -7.0384   18.1610 O   0  0  0  0  0  0  0  0  0  0  0  0
   11.4294   -6.4528   18.1863 C   0  0  0  0  0  0  0  0  0  0  0  0
   13.7421   -5.6149   22.7095 O   0  0  0  0  0  0  0  0  0  0  0  0
   12.3854   -5.3322   23.0244 C   0  0  0  0  0  0  0  0  0  0  0  0
   16.9150   -9.9151   10.0692 N   0  0  0  0  0  0  0  0  0  0  0  0
   15.4635  -10.0146   10.0928 C   0  0  0  0  0  0  0  0  0  0  0  0
   15.0662   -9.9217   11.5831 C   0  0  0  0  0  0  0  0  0  0  0  0
   16.3121   -9.7432   12.3268 N   0  0  0  0  0  0  0  0  0  0  0  0
   17.3726   -9.7412   11.3888 C   0  0  0  0  0  0  0  0  0  0  0  0
   18.5880   -9.5978   11.6902 O   0  0  0  0  0  0  0  0  0  0  0  0
   17.7390   -9.8755    8.8721 C   0  0  0  0  0  0  0  0  0  0  0  0
   17.1057   -8.9644    7.8358 C   0  0  0  0  0  0  0  0  0  0  0  0
   18.0862   -8.7008    6.6886 C   0  0  0  0  0  0  0  0  0  0  0  0
   19.9985   -7.4520    5.9521 C   0  0  0  0  0  0  0  0  0  0  0  0
   18.8199   -7.4337    6.8055 N   0  0  0  0  0  0  0  0  0  0  0  0
   19.2566   -7.2370    8.1802 C   0  0  0  0  0  0  0  0  0  0  0  0
 30 31  1  0  0  0
 31 32  1  0  0  0
 31 29  1  0  0  0
 29 28  1  0  0  0
 28 27  1  0  0  0
 27 21  1  0  0  0
 21 22  1  0  0  0
 22 23  1  0  0  0
 23 24  1  0  0  0
 24 25  1  0  0  0
 25 26  2  0  0  0
 24  1  1  0  0  0
  1  2  2  0  0  0
  2  3  1  0  0  0
  3  4  2  0  0  0
  4  5  1  0  0  0
  5  6  2  0  0  0
  6  7  1  0  0  0
  7  8  1  0  0  0
  8  9  2  0  0  0
  5 10  1  0  0  0
 10 11  2  0  0  0
 11 12  1  0  0  0
 12 13  2  0  0  0
 13 14  1  0  0  0
 14 15  2  0  0  0
 15 17  1  0  0  0
 17 18  1  0  0  0
 13 19  1  0  0  0
 19 20  1  0  0  0
 12 16  1  0  0  0
 25 21  1  0  0  0
  9  1  1  0  0  0
  7  3  1  0  0  0
 15 10  1  0  0  0
M  END
>  <minimizedAffinity>
-7.33799

>  <minimizedRMSD>
1.86522

$$$$
CHEMBL5183828 PubChem-155230370


 29 31  0  0  0  0  0  0  0  0999 V2000
   15.5379   -8.4617   17.3210 C   0  0  0  0  0  0  0  0  0  0  0  0
   15.6467   -8.4197   15.9784 N   0  0  0  0  0  0  0  0  0  0  0  0
   16.5892   -9.3039   15.5185 C   0  0  0  0  0  0  0  0  0  0  0  0
   17.2440  -10.0576   16.4476 N   0  0  0  0  0  0  0  0  0  0  0  0
   16.6088   -9.5901   17.9098 S   0  0  0  0  0  0  0  0  0  0  0  0
   16.8851   -9.4374   14.0838 C   0  0  0  0  0  0  0  0  0  0  0  0
   18.0822   -9.9478   13.6813 N   0  0  0  0  0  0  0  0  0  0  0  0
   18.3972  -10.0891   12.3656 C   0  0  0  0  0  0  0  0  0  0  0  0
   17.4857   -9.7087   11.3783 C   0  0  0  0  0  0  0  0  0  0  0  0
   16.2486   -9.1795   11.7699 C   0  0  0  0  0  0  0  0  0  0  0  0
   15.9448   -9.0428   13.1246 C   0  0  0  0  0  0  0  0  0  0  0  0
   17.8332   -9.8610   10.0315 O   0  0  0  0  0  0  0  0  0  0  0  0
   17.6836   -8.8258    9.0660 C   0  0  0  0  0  0  0  0  0  0  0  0
   18.8992   -7.9243    9.1059 C   0  0  0  0  0  0  0  0  0  0  0  0
   17.5556   -9.4245    7.6779 C   0  0  0  0  0  0  0  0  0  0  0  0
   14.6278   -7.6402   18.0624 N   0  0  0  0  0  0  0  0  0  0  0  0
   13.9151   -7.1973   17.5475 H   0  0  0  0  0  0  0  0  0  0  0  0
   12.1942   -7.9879   19.5907 C   0  0  0  0  0  0  0  0  0  0  0  0
   13.4717   -7.5592   20.2272 C   0  0  0  0  0  0  0  0  0  0  0  0
   13.5005   -7.3181   21.6009 C   0  0  0  0  0  0  0  0  0  0  0  0
   14.6836   -6.9096   22.2311 C   0  0  0  0  0  0  0  0  0  0  0  0
   15.8336   -6.7664   21.4413 C   0  0  0  0  0  0  0  0  0  0  0  0
   15.7890   -7.0060   20.1041 N   0  0  0  0  0  0  0  0  0  0  0  0
   14.6453   -7.3948   19.4763 C   0  0  0  0  0  0  0  0  0  0  0  0
   14.7352   -6.6741   23.6561 N   0  0  0  0  0  0  0  0  0  0  0  0
   15.5628   -7.5457   24.4845 C   0  0  0  0  0  0  0  0  0  0  0  0
   14.0106   -5.6016   24.2948 C   0  0  0  0  0  0  0  0  0  0  0  0
   13.5100   -4.6671   23.6144 O   0  0  0  0  0  0  0  0  0  0  0  0
   13.8586   -5.5562   25.7788 C   0  0  0  0  0  0  0  0  0  0  0  0
 18 19  1  0  0  0
 19 20  2  0  0  0
 20 21  1  0  0  0
 21 22  2  0  0  0
 22 23  1  0  0  0
 23 24  2  0  0  0
 24 16  1  0  0  0
 16  1  1  0  0  0
  1  2  2  0  0  0
  2  3  1  0  0  0
  3  4  2  0  0  0
  4  5  1  0  0  0
  3  6  1  0  0  0
  6  7  2  0  0  0
  7  8  1  0  0  0
  8  9  2  0  0  0
  9 10  1  0  0  0
 10 11  2  0  0  0
  9 12  1  0  0  0
 12 13  1  0  0  0
 13 14  1  0  0  0
 13 15  1  0  0  0
 21 25  1  0  0  0
 25 26  1  0  0  0
 25 27  1  0  0  0
 27 28  2  0  0  0
 27 29  1  0  0  0
 24 19  1  0  0  0
  5  1  1  0  0  0
 11  6  1  0  0  0
 16 17  1  0  0  0
M  END
>  <minimizedAffinity>
-7.33400

>  <minimizedRMSD>
1.45667

$$$$
CHEMBL3884114 PubChem-134130910


 29 32  0  0  0  0  0  0  0  0999 V2000
   12.1150   -6.2909   19.7236 C   0  0  0  0  0  0  0  0  0  0  0  0
   12.7807   -6.7076   20.8995 C   0  0  0  0  0  0  0  0  0  0  0  0
   14.0038   -7.4058   20.8074 C   0  0  0  0  0  0  0  0  0  0  0  0
   14.5334   -7.6768   19.5483 C   0  0  0  0  0  0  0  0  0  0  0  0
   13.8786   -7.2706   18.4073 C   0  0  0  0  0  0  0  0  0  0  0  0
   12.6739   -6.5750   18.4603 C   0  0  0  0  0  0  0  0  0  0  0  0
   14.6489   -7.6669   17.2543 C   0  0  0  0  0  0  0  0  0  0  0  0
   14.3857   -7.3512   16.0645 O   0  0  0  0  0  0  0  0  0  0  0  0
   15.8326   -8.3865   17.7439 C   0  0  0  0  0  0  0  0  0  0  0  0
   16.8397   -8.9279   17.0476 C   0  0  0  0  0  0  0  0  0  0  0  0
   15.8173   -8.3871   19.2479 C   0  0  0  0  0  0  0  0  0  0  0  0
   16.9485   -9.0806   15.5871 C   0  0  0  0  0  0  0  0  0  0  0  0
   18.0109   -9.8310   15.0752 C   0  0  0  0  0  0  0  0  0  0  0  0
   18.1186  -10.0591   13.7006 C   0  0  0  0  0  0  0  0  0  0  0  0
   17.1524   -9.5554   12.8150 C   0  0  0  0  0  0  0  0  0  0  0  0
   16.0723   -8.8260   13.3371 C   0  0  0  0  0  0  0  0  0  0  0  0
   15.9665   -8.5997   14.7117 C   0  0  0  0  0  0  0  0  0  0  0  0
   17.2689   -9.7800   11.3973 N   0  0  0  0  0  0  0  0  0  0  0  0
   16.1798  -10.4073   10.6476 C   0  0  0  0  0  0  0  0  0  0  0  0
   16.0625   -9.7520    9.2739 C   0  0  0  0  0  0  0  0  0  0  0  0
   17.3518   -9.8022    8.5873 N   0  0  0  0  0  0  0  0  0  0  0  0
   18.2991   -8.9750    9.3346 C   0  0  0  0  0  0  0  0  0  0  0  0
   18.5470   -9.5850   10.7119 C   0  0  0  0  0  0  0  0  0  0  0  0
   17.1600   -9.1682    7.2942 C   0  0  0  0  0  0  0  0  0  0  0  0
   18.2925   -8.1960    7.0245 C   0  0  0  0  0  0  0  0  0  0  0  0
   12.2093   -6.4155   22.1428 O   0  0  0  0  0  0  0  0  0  0  0  0
   12.6922   -5.3794   22.9871 C   0  0  0  0  0  0  0  0  0  0  0  0
   10.9048   -5.5978   19.8374 O   0  0  0  0  0  0  0  0  0  0  0  0
   10.7933   -4.2007   19.6023 C   0  0  0  0  0  0  0  0  0  0  0  0
  1  2  2  0  0  0
  2  3  1  0  0  0
  3  4  2  0  0  0
  4  5  1  0  0  0
  5  6  2  0  0  0
  5  7  1  0  0  0
  7  8  2  0  0  0
  7  9  1  0  0  0
  9 10  2  0  0  0
 10 12  1  0  0  0
 12 13  2  0  0  0
 13 14  1  0  0  0
 14 15  2  0  0  0
 15 16  1  0  0  0
 16 17  2  0  0  0
 15 18  1  0  0  0
 18 19  1  0  0  0
 19 20  1  0  0  0
 20 21  1  0  0  0
 21 22  1  0  0  0
 22 23  1  0  0  0
 21 24  1  0  0  0
 24 25  1  0  0  0
  9 11  1  0  0  0
  2 26  1  0  0  0
 26 27  1  0  0  0
  1 28  1  0  0  0
 28 29  1  0  0  0
  6  1  1  0  0  0
 17 12  1  0  0  0
 23 18  1  0  0  0
 11  4  1  0  0  0
M  END
>  <minimizedAffinity>
-7.33341

>  <minimizedRMSD>
1.46180

$$$$
CHEMBL4526470 PubChem-135281212


 35 39  0  0  0  0  0  0  0  0999 V2000
   14.4143   -7.3089   18.8440 C   0  0  0  0  0  0  0  0  0  0  0  0
   15.5940   -7.9858   19.1496 C   0  0  0  0  0  0  0  0  0  0  0  0
   16.0355   -8.4893   17.9894 N   0  0  0  0  0  0  0  0  0  0  0  0
   17.1435   -9.2287   17.7455 C   0  0  0  0  0  0  0  0  0  0  0  0
   17.3841   -9.6374   16.4263 C   0  0  0  0  0  0  0  0  0  0  0  0
   16.4835   -9.2781   15.3952 C   0  0  0  0  0  0  0  0  0  0  0  0
   15.3463   -8.5048   15.7134 C   0  0  0  0  0  0  0  0  0  0  0  0
   15.1612   -8.1291   17.0408 C   0  0  0  0  0  0  0  0  0  0  0  0
   14.1397   -7.3976   17.5170 N   0  0  0  0  0  0  0  0  0  0  0  0
   13.9932   -6.1562   21.0738 C   0  0  0  0  0  0  0  0  0  0  0  0
   13.1065   -5.4698   21.9197 C   0  0  0  0  0  0  0  0  0  0  0  0
   11.7895   -5.1975   21.5246 C   0  0  0  0  0  0  0  0  0  0  0  0
   11.3549   -5.6194   20.2627 C   0  0  0  0  0  0  0  0  0  0  0  0
   12.2279   -6.3019   19.4147 C   0  0  0  0  0  0  0  0  0  0  0  0
   13.5471   -6.5795   19.8000 C   0  0  0  0  0  0  0  0  0  0  0  0
    9.7162   -5.3029   19.7217 Cl  0  0  0  0  0  0  0  0  0  0  0  0
   15.6261   -6.8725   22.7970 C   0  0  0  0  0  0  0  0  0  0  0  0
   15.3046   -6.4174   21.4893 O   0  0  0  0  0  0  0  0  0  0  0  0
   10.9059   -4.5138   22.3673 O   0  0  0  0  0  0  0  0  0  0  0  0
   11.1509   -4.3336   23.7555 C   0  0  0  0  0  0  0  0  0  0  0  0
   16.7270   -9.6927   14.0368 N   0  0  0  0  0  0  0  0  0  0  0  0
   18.0826  -10.0707   13.6126 C   0  0  0  0  0  0  0  0  0  0  0  0
   18.1037  -10.5223   12.1543 C   0  0  0  0  0  0  0  0  0  0  0  0
   17.3522   -9.5705   11.3339 N   0  0  0  0  0  0  0  0  0  0  0  0
   16.0080   -9.1557   11.7513 C   0  0  0  0  0  0  0  0  0  0  0  0
   15.6153   -9.7902   13.0854 C   0  0  0  0  0  0  0  0  0  0  0  0
   17.9429   -8.9905   10.1579 C   0  0  0  0  0  0  0  0  0  0  0  0
   17.4057   -9.2379    8.9307 N   0  0  0  0  0  0  0  0  0  0  0  0
   17.9441   -8.7032    7.8036 C   0  0  0  0  0  0  0  0  0  0  0  0
   19.0397   -7.9045    7.8856 N   0  0  0  0  0  0  0  0  0  0  0  0
   19.6109   -7.6294    9.0863 C   0  0  0  0  0  0  0  0  0  0  0  0
   19.0731   -8.1686   10.2536 C   0  0  0  0  0  0  0  0  0  0  0  0
   17.3599   -8.9800    6.5368 N   0  0  0  0  0  0  0  0  0  0  0  0
   16.5658   -9.5588    6.4768 H   0  0  0  0  0  0  0  0  0  0  0  0
   17.7497   -8.5929    5.7198 H   0  0  0  0  0  0  0  0  0  0  0  0
 17 18  1  0  0  0
 18 10  1  0  0  0
 10 11  2  0  0  0
 11 12  1  0  0  0
 12 13  2  0  0  0
 13 14  1  0  0  0
 14 15  2  0  0  0
 15  1  1  0  0  0
  1  2  2  0  0  0
  2  3  1  0  0  0
  3  4  1  0  0  0
  4  5  2  0  0  0
  5  6  1  0  0  0
  6  7  2  0  0  0
  7  8  1  0  0  0
  8  9  2  0  0  0
  6 21  1  0  0  0
 21 22  1  0  0  0
 22 23  1  0  0  0
 23 24  1  0  0  0
 24 25  1  0  0  0
 25 26  1  0  0  0
 24 27  1  0  0  0
 27 28  2  0  0  0
 28 29  1  0  0  0
 29 30  2  0  0  0
 30 31  1  0  0  0
 31 32  2  0  0  0
 29 33  1  0  0  0
 13 16  1  0  0  0
 12 19  1  0  0  0
 19 20  1  0  0  0
 15 10  1  0  0  0
  9  1  1  0  0  0
  8  3  1  0  0  0
 26 21  1  0  0  0
 32 27  1  0  0  0
 33 34  1  0  0  0
 33 35  1  0  0  0
M  END
>  <minimizedAffinity>
-7.33005

>  <minimizedRMSD>
1.76949

$$$$
CHEMBL589190 19890925 ChemDiv-D144-0747 LN01975253 MCULE-2644751186 MolPort-000-685-899 PubChem-4913898 ZINC000019890925 ZINC19890925


 29 32  0  0  0  0  0  0  0  0999 V2000
   11.9436   -4.1478   22.1654 C   0  0  0  0  0  0  0  0  0  0  0  0
   11.8676   -4.7016   20.8756 C   0  0  0  0  0  0  0  0  0  0  0  0
   10.6914   -4.4063   19.9933 C   0  0  0  0  0  0  0  0  0  0  0  0
   12.9046   -5.5370   20.4287 C   0  0  0  0  0  0  0  0  0  0  0  0
   12.8795   -6.1229   19.1547 C   0  0  0  0  0  0  0  0  0  0  0  0
   13.9283   -6.9422   18.7387 C   0  0  0  0  0  0  0  0  0  0  0  0
   15.0038   -7.2073   19.5976 C   0  0  0  0  0  0  0  0  0  0  0  0
   16.0369   -8.0379   19.1490 O   0  0  0  0  0  0  0  0  0  0  0  0
   15.9226   -8.7322   17.9064 C   0  0  0  0  0  0  0  0  0  0  0  0
   15.2541   -7.8813   16.9189 N   0  0  0  0  0  0  0  0  0  0  0  0
   13.8956   -7.6046   17.3934 C   0  0  0  0  0  0  0  0  0  0  0  0
   15.0458   -6.6251   20.8730 C   0  0  0  0  0  0  0  0  0  0  0  0
   16.2014   -6.8977   21.7792 C   0  0  0  0  0  0  0  0  0  0  0  0
   13.9964   -5.7884   21.2927 C   0  0  0  0  0  0  0  0  0  0  0  0
   14.0301   -5.2332   22.5010 O   0  0  0  0  0  0  0  0  0  0  0  0
   13.0691   -4.4376   22.9583 C   0  0  0  0  0  0  0  0  0  0  0  0
   13.1813   -3.9427   24.1116 O   0  0  0  0  0  0  0  0  0  0  0  0
   10.0738   -3.9115   23.7832 C   0  0  0  0  0  0  0  0  0  0  0  0
   10.8610   -3.2388   22.6734 C   0  0  0  0  0  0  0  0  0  0  0  0
   15.1196   -8.6631   15.7024 C   0  0  0  0  0  0  0  0  0  0  0  0
   16.2528   -9.6718   15.6103 C   0  0  0  0  0  0  0  0  0  0  0  0
   16.7898   -9.7302   14.2212 C   0  0  0  0  0  0  0  0  0  0  0  0
   16.0358   -9.2457   13.1453 C   0  0  0  0  0  0  0  0  0  0  0  0
   16.5553   -9.2907   11.8483 C   0  0  0  0  0  0  0  0  0  0  0  0
   17.8315   -9.8147   11.6162 C   0  0  0  0  0  0  0  0  0  0  0  0
   18.5880  -10.2929   12.6990 C   0  0  0  0  0  0  0  0  0  0  0  0
   18.0688  -10.2481   13.9960 C   0  0  0  0  0  0  0  0  0  0  0  0
   18.3220   -9.8469   10.3079 O   0  0  0  0  0  0  0  0  0  0  0  0
   18.2605   -8.7255    9.4372 C   0  0  0  0  0  0  0  0  0  0  0  0
 18 19  1  0  0  0
 19  1  1  0  0  0
  1  2  2  0  0  0
  2  3  1  0  0  0
  2  4  1  0  0  0
  4  5  2  0  0  0
  5  6  1  0  0  0
  6  7  2  0  0  0
  7  8  1  0  0  0
  7 12  1  0  0  0
  8  9  1  0  0  0
  9 10  1  0  0  0
 10 20  1  0  0  0
 10 11  1  0  0  0
 20 21  1  0  0  0
 21 22  1  0  0  0
 22 23  2  0  0  0
 23 24  1  0  0  0
 24 25  2  0  0  0
 25 28  1  0  0  0
 25 26  1  0  0  0
 28 29  1  0  0  0
 26 27  2  0  0  0
 27 22  1  0  0  0
 11  6  1  0  0  0
 12 13  1  0  0  0
 12 14  2  0  0  0
 14 15  1  0  0  0
 14  4  1  0  0  0
 15 16  1  0  0  0
 16 17  2  0  0  0
 16  1  1  0  0  0
M  END
>  <minimizedAffinity>
-7.32500

>  <minimizedRMSD>
1.98056

$$$$
CHEMBL4579635 PubChem-135334991


 33 37  0  0  0  0  0  0  0  0999 V2000
   16.4696   -9.2056   15.4135 C   0  0  0  0  0  0  0  0  0  0  0  0
   15.3328   -8.4224   15.7089 C   0  0  0  0  0  0  0  0  0  0  0  0
   15.1023   -8.0794   17.0380 C   0  0  0  0  0  0  0  0  0  0  0  0
   14.0745   -7.3440   17.4945 N   0  0  0  0  0  0  0  0  0  0  0  0
   14.2989   -7.2952   18.8330 C   0  0  0  0  0  0  0  0  0  0  0  0
   15.4551   -7.9994   19.1651 C   0  0  0  0  0  0  0  0  0  0  0  0
   15.9335   -8.4789   18.0093 N   0  0  0  0  0  0  0  0  0  0  0  0
   17.0387   -9.2297   17.7880 C   0  0  0  0  0  0  0  0  0  0  0  0
   17.3238   -9.6071   16.4684 C   0  0  0  0  0  0  0  0  0  0  0  0
   13.4066   -6.5775   19.7746 C   0  0  0  0  0  0  0  0  0  0  0  0
   12.4710   -5.6792   19.2420 C   0  0  0  0  0  0  0  0  0  0  0  0
   11.5989   -4.9685   20.0677 C   0  0  0  0  0  0  0  0  0  0  0  0
   11.6468   -5.1451   21.4554 C   0  0  0  0  0  0  0  0  0  0  0  0
   12.5784   -6.0408   21.9983 C   0  0  0  0  0  0  0  0  0  0  0  0
   13.4606   -6.7610   21.1761 C   0  0  0  0  0  0  0  0  0  0  0  0
   10.4512   -3.8593   19.3396 Cl  0  0  0  0  0  0  0  0  0  0  0  0
   14.3832   -7.6505   21.7402 O   0  0  0  0  0  0  0  0  0  0  0  0
   15.0072   -7.4245   22.9971 C   0  0  0  0  0  0  0  0  0  0  0  0
   10.7679   -4.4276   22.2744 O   0  0  0  0  0  0  0  0  0  0  0  0
   11.0204   -4.1914   23.6529 C   0  0  0  0  0  0  0  0  0  0  0  0
   17.4500   -9.4105   11.3629 N   0  0  0  0  0  0  0  0  0  0  0  0
   18.2125  -10.3441   12.1930 C   0  0  0  0  0  0  0  0  0  0  0  0
   18.1335   -9.9254   13.6603 C   0  0  0  0  0  0  0  0  0  0  0  0
   16.7590   -9.5881   14.0547 N   0  0  0  0  0  0  0  0  0  0  0  0
   15.6778   -9.6848   13.0706 C   0  0  0  0  0  0  0  0  0  0  0  0
   16.0958   -9.0100   11.7657 C   0  0  0  0  0  0  0  0  0  0  0  0
   17.3752   -9.1281    6.4051 C   0  0  0  0  0  0  0  0  0  0  0  0
   17.9907   -8.7863    7.7137 C   0  0  0  0  0  0  0  0  0  0  0  0
   17.4253   -9.2626    8.8971 C   0  0  0  0  0  0  0  0  0  0  0  0
   18.0140   -8.9349   10.1283 C   0  0  0  0  0  0  0  0  0  0  0  0
   19.1313   -8.1524   10.1435 N   0  0  0  0  0  0  0  0  0  0  0  0
   19.6962   -7.6789    9.0002 C   0  0  0  0  0  0  0  0  0  0  0  0
   19.1339   -7.9888    7.7612 C   0  0  0  0  0  0  0  0  0  0  0  0
 27 28  1  0  0  0
 28 29  2  0  0  0
 29 30  1  0  0  0
 30 31  2  0  0  0
 31 32  1  0  0  0
 32 33  2  0  0  0
 30 21  1  0  0  0
 21 22  1  0  0  0
 22 23  1  0  0  0
 23 24  1  0  0  0
 24 25  1  0  0  0
 25 26  1  0  0  0
 24  1  1  0  0  0
  1  2  2  0  0  0
  2  3  1  0  0  0
  3  4  2  0  0  0
  4  5  1  0  0  0
  5  6  2  0  0  0
  6  7  1  0  0  0
  7  8  1  0  0  0
  8  9  2  0  0  0
  5 10  1  0  0  0
 10 11  2  0  0  0
 11 12  1  0  0  0
 12 13  2  0  0  0
 13 14  1  0  0  0
 14 15  2  0  0  0
 15 17  1  0  0  0
 17 18  1  0  0  0
 13 19  1  0  0  0
 19 20  1  0  0  0
 12 16  1  0  0  0
 33 28  1  0  0  0
 26 21  1  0  0  0
  9  1  1  0  0  0
  7  3  1  0  0  0
 15 10  1  0  0  0
M  END
>  <minimizedAffinity>
-7.32434

>  <minimizedRMSD>
1.86732

$$$$
CHEMBL1381258 PubChem-3220759


 33 35  0  0  0  0  0  0  0  0999 V2000
   17.5097   -9.8362   16.8314 C   0  0  0  0  0  0  0  0  0  0  0  0
   18.3409   -8.8165   16.0506 C   0  0  0  0  0  0  0  0  0  0  0  0
   18.8852   -9.4675   14.7833 C   0  0  0  0  0  0  0  0  0  0  0  0
   17.8094   -9.8629   13.8592 N   0  0  0  0  0  0  0  0  0  0  0  0
   16.5609  -10.2841   14.5226 C   0  0  0  0  0  0  0  0  0  0  0  0
   16.7766  -10.8416   15.9344 C   0  0  0  0  0  0  0  0  0  0  0  0
   15.6337   -8.1744   17.3889 C   0  0  0  0  0  0  0  0  0  0  0  0
   15.5564   -7.7778   16.1941 O   0  0  0  0  0  0  0  0  0  0  0  0
   16.5925   -9.1762   17.7561 N   0  0  0  0  0  0  0  0  0  0  0  0
   16.6354   -9.4387   18.7040 H   0  0  0  0  0  0  0  0  0  0  0  0
   13.0285   -6.5126   20.3630 C   0  0  0  0  0  0  0  0  0  0  0  0
   14.3698   -6.7950   20.6680 C   0  0  0  0  0  0  0  0  0  0  0  0
   15.2176   -7.3356   19.6995 C   0  0  0  0  0  0  0  0  0  0  0  0
   14.7399   -7.6032   18.4111 C   0  0  0  0  0  0  0  0  0  0  0  0
   13.4018   -7.3212   18.1060 C   0  0  0  0  0  0  0  0  0  0  0  0
   12.5414   -6.7772   19.0739 C   0  0  0  0  0  0  0  0  0  0  0  0
   12.6136   -5.1151   22.3644 C   0  0  0  0  0  0  0  0  0  0  0  0
   12.1655   -5.9710   21.3220 O   0  0  0  0  0  0  0  0  0  0  0  0
   11.2040   -6.4933   18.7768 O   0  0  0  0  0  0  0  0  0  0  0  0
   10.2877   -7.4842   18.3316 C   0  0  0  0  0  0  0  0  0  0  0  0
   18.2989  -10.9973   13.0920 C   0  0  0  0  0  0  0  0  0  0  0  0
   18.5679  -10.5817   11.6876 C   0  0  0  0  0  0  0  0  0  0  0  0
   19.3892  -11.2378   10.9934 O   0  0  0  0  0  0  0  0  0  0  0  0
   17.9276   -9.4168   11.1570 N   0  0  0  0  0  0  0  0  0  0  0  0
   17.4554   -8.8281   11.7892 H   0  0  0  0  0  0  0  0  0  0  0  0
   17.9231   -9.0433    9.7702 C   0  0  0  0  0  0  0  0  0  0  0  0
   16.8654   -9.4094    8.9054 C   0  0  0  0  0  0  0  0  0  0  0  0
   15.6651  -10.1483    9.3914 C   0  0  0  0  0  0  0  0  0  0  0  0
   16.8936   -9.0155    7.5644 C   0  0  0  0  0  0  0  0  0  0  0  0
   17.9531   -8.2519    7.0737 C   0  0  0  0  0  0  0  0  0  0  0  0
   18.9853   -7.8631    7.9276 C   0  0  0  0  0  0  0  0  0  0  0  0
   18.9693   -8.2436    9.2721 C   0  0  0  0  0  0  0  0  0  0  0  0
   20.0903   -7.8062   10.1522 C   0  0  0  0  0  0  0  0  0  0  0  0
 17 18  1  0  0  0
 18 11  1  0  0  0
 11 12  2  0  0  0
 12 13  1  0  0  0
 13 14  2  0  0  0
 14  7  1  0  0  0
 14 15  1  0  0  0
  7  8  2  0  0  0
  7  9  1  0  0  0
  9  1  1  0  0  0
  1  2  1  0  0  0
  2  3  1  0  0  0
  3  4  1  0  0  0
  4 21  1  0  0  0
  4  5  1  0  0  0
 21 22  1  0  0  0
 22 23  2  0  0  0
 22 24  1  0  0  0
 24 26  1  0  0  0
 26 27  2  0  0  0
 27 28  1  0  0  0
 27 29  1  0  0  0
 29 30  2  0  0  0
 30 31  1  0  0  0
 31 32  2  0  0  0
 32 33  1  0  0  0
 32 26  1  0  0  0
  5  6  1  0  0  0
  6  1  1  0  0  0
 15 16  2  0  0  0
 16 19  1  0  0  0
 16 11  1  0  0  0
 19 20  1  0  0  0
  9 10  1  0  0  0
 24 25  1  0  0  0
M  END
>  <minimizedAffinity>
-7.32197

>  <minimizedRMSD>
1.19634

$$$$
CHEMBL4068645 PubChem-137632950


 34 38  0  0  0  0  0  0  0  0999 V2000
   15.4885   -8.4052   17.2062 C   0  0  0  0  0  0  0  0  0  0  0  0
   16.1036   -9.6430   17.5126 C   0  0  0  0  0  0  0  0  0  0  0  0
   16.7687  -10.2834   16.4759 C   0  0  0  0  0  0  0  0  0  0  0  0
   16.8313   -9.7579   15.2299 C   0  0  0  0  0  0  0  0  0  0  0  0
   16.2313   -8.5449   14.9208 C   0  0  0  0  0  0  0  0  0  0  0  0
   15.5712   -7.8985   15.9285 N   0  0  0  0  0  0  0  0  0  0  0  0
   17.5359  -10.6081   14.4679 N   0  0  0  0  0  0  0  0  0  0  0  0
   17.8877  -11.6251   15.2481 N   0  0  0  0  0  0  0  0  0  0  0  0
   17.4308  -11.4550   16.4894 N   0  0  0  0  0  0  0  0  0  0  0  0
   13.3535   -6.2138   20.2183 C   0  0  0  0  0  0  0  0  0  0  0  0
   14.5189   -6.9118   20.5516 C   0  0  0  0  0  0  0  0  0  0  0  0
   15.2163   -7.6260   19.5745 C   0  0  0  0  0  0  0  0  0  0  0  0
   14.7579   -7.6522   18.2482 C   0  0  0  0  0  0  0  0  0  0  0  0
   13.5894   -6.9496   17.9194 C   0  0  0  0  0  0  0  0  0  0  0  0
   12.8889   -6.2339   18.8944 C   0  0  0  0  0  0  0  0  0  0  0  0
   11.7632   -5.5636   18.5443 F   0  0  0  0  0  0  0  0  0  0  0  0
   11.0298   -5.2514   21.1113 O   0  0  0  0  0  0  0  0  0  0  0  0
   12.4898   -5.3175   21.4606 S   0  0  0  0  0  0  0  0  0  0  0  0
   12.6440   -6.0057   22.7880 O   0  0  0  0  0  0  0  0  0  0  0  0
   13.1548   -3.6737   21.5835 C   0  0  0  0  0  0  0  0  0  0  0  0
   17.8819  -10.4975   13.0557 C   0  0  0  0  0  0  0  0  0  0  0  0
   19.0841   -9.5692   12.8643 C   0  0  0  0  0  0  0  0  0  0  0  0
   19.3927   -9.4066   11.3776 C   0  0  0  0  0  0  0  0  0  0  0  0
   18.1877   -9.0655   10.6137 N   0  0  0  0  0  0  0  0  0  0  0  0
   16.9042   -8.9097   11.2991 C   0  0  0  0  0  0  0  0  0  0  0  0
   16.6490  -10.1003   12.2243 C   0  0  0  0  0  0  0  0  0  0  0  0
   18.2775   -8.8354    9.1998 C   0  0  0  0  0  0  0  0  0  0  0  0
   19.0371   -7.8122    8.7177 N   0  0  0  0  0  0  0  0  0  0  0  0
   19.1359   -7.5792    7.3831 C   0  0  0  0  0  0  0  0  0  0  0  0
   18.4498   -8.3929    6.4831 C   0  0  0  0  0  0  0  0  0  0  0  0
   17.6812   -9.4407    6.9877 C   0  0  0  0  0  0  0  0  0  0  0  0
   17.6077   -9.6415    8.3291 N   0  0  0  0  0  0  0  0  0  0  0  0
   18.5586   -8.1662    5.0155 C   0  0  0  0  0  0  0  0  0  0  0  0
   19.9684   -7.7377    4.6553 C   0  0  0  0  0  0  0  0  0  0  0  0
 17 18  2  0  0  0
 18 19  2  0  0  0
 18 10  1  0  0  0
 10 11  2  0  0  0
 11 12  1  0  0  0
 12 13  2  0  0  0
 13  1  1  0  0  0
  1  2  2  0  0  0
  2  3  1  0  0  0
  3  4  2  0  0  0
  4  5  1  0  0  0
  5  6  2  0  0  0
  4  7  1  0  0  0
  7  8  1  0  0  0
  8  9  2  0  0  0
  7 21  1  0  0  0
 21 22  1  0  0  0
 22 23  1  0  0  0
 23 24  1  0  0  0
 24 25  1  0  0  0
 25 26  1  0  0  0
 24 27  1  0  0  0
 27 28  2  0  0  0
 28 29  1  0  0  0
 29 30  2  0  0  0
 30 31  1  0  0  0
 31 32  2  0  0  0
 30 33  1  0  0  0
 33 34  1  0  0  0
 13 14  1  0  0  0
 14 15  2  0  0  0
 15 16  1  0  0  0
 18 20  1  0  0  0
 15 10  1  0  0  0
  6  1  1  0  0  0
 26 21  1  0  0  0
 32 27  1  0  0  0
  9  3  1  0  0  0
M  END
>  <minimizedAffinity>
-7.32119

>  <minimizedRMSD>
1.80793

$$$$
CHEMBL3126625 PubChem-44199450


 39 41  0  0  0  0  0  0  0  0999 V2000
   14.9810   -7.8495   18.3548 C   0  0  0  0  0  0  0  0  0  0  0  0
   15.5076   -7.7982   19.6479 C   0  0  0  0  0  0  0  0  0  0  0  0
   14.8686   -7.0706   20.6597 C   0  0  0  0  0  0  0  0  0  0  0  0
   13.6609   -6.3818   20.3730 C   0  0  0  0  0  0  0  0  0  0  0  0
   13.1290   -6.4574   19.0724 C   0  0  0  0  0  0  0  0  0  0  0  0
   13.7882   -7.1789   18.0758 C   0  0  0  0  0  0  0  0  0  0  0  0
   11.8586   -5.7602   18.7258 C   0  0  0  0  0  0  0  0  0  0  0  0
   16.3769   -9.2661   15.4497 C   0  0  0  0  0  0  0  0  0  0  0  0
   16.8591  -10.0663   16.3693 O   0  0  0  0  0  0  0  0  0  0  0  0
   16.4409   -9.6907   17.5390 N   0  0  0  0  0  0  0  0  0  0  0  0
   15.6699   -8.6105   17.3011 C   0  0  0  0  0  0  0  0  0  0  0  0
   15.6008   -8.3044   15.9876 N   0  0  0  0  0  0  0  0  0  0  0  0
   17.2081   -9.6649   11.2867 C   0  0  0  0  0  0  0  0  0  0  0  0
   15.8641   -9.6102   11.7279 C   0  0  0  0  0  0  0  0  0  0  0  0
   15.6013   -9.4794   13.0924 C   0  0  0  0  0  0  0  0  0  0  0  0
   16.6483   -9.4003   14.0123 C   0  0  0  0  0  0  0  0  0  0  0  0
   17.9610   -9.4381   13.5409 C   0  0  0  0  0  0  0  0  0  0  0  0
   18.2064   -9.5644   12.2105 N   0  0  0  0  0  0  0  0  0  0  0  0
   14.7017   -9.6192   10.7950 C   0  0  0  0  0  0  0  0  0  0  0  0
   17.5606   -9.8037    9.8929 N   0  0  0  0  0  0  0  0  0  0  0  0
   16.6438  -10.3490    8.8986 C   0  0  0  0  0  0  0  0  0  0  0  0
   16.8637   -9.6756    7.5563 C   0  0  0  0  0  0  0  0  0  0  0  0
   18.8786   -9.3921    9.4274 C   0  0  0  0  0  0  0  0  0  0  0  0
   18.9714   -7.8779    9.3724 C   0  0  0  0  0  0  0  0  0  0  0  0
   15.4632   -7.1220   22.0302 C   0  0  0  0  0  0  0  0  0  0  0  0
   16.8644   -6.5384   22.0252 C   0  0  0  0  0  0  0  0  0  0  0  0
   12.9427   -5.6440   21.3312 O   0  0  0  0  0  0  0  0  0  0  0  0
   13.1642   -5.6828   22.7368 C   0  0  0  0  0  0  0  0  0  0  0  0
   14.0866   -4.5487   23.1635 C   0  0  0  0  0  0  0  0  0  0  0  0
   13.6128   -3.3407   22.6515 O   0  0  0  0  0  0  0  0  0  0  0  0
   12.7224   -3.1704   22.9965 H   0  0  0  0  0  0  0  0  0  0  0  0
   14.1343   -4.4586   24.6785 C   0  0  0  0  0  0  0  0  0  0  0  0
   14.4888   -5.7483   25.2496 N   0  0  0  0  0  0  0  0  0  0  0  0
   15.8383   -6.0898   25.5654 C   0  0  0  0  0  0  0  0  0  0  0  0
   16.7715   -5.2661   25.3710 O   0  0  0  0  0  0  0  0  0  0  0  0
   13.7767   -6.4054   25.4236 H   0  0  0  0  0  0  0  0  0  0  0  0
   16.1405   -7.4177   26.1621 C   0  0  0  0  0  0  0  0  0  0  0  0
   17.5039   -7.6850   26.0436 O   0  0  0  0  0  0  0  0  0  0  0  0
   17.7520   -7.6903   25.1058 H   0  0  0  0  0  0  0  0  0  0  0  0
 13 14  2  0  0  0
 14 15  1  0  0  0
 15 16  2  0  0  0
 16 17  1  0  0  0
 17 18  2  0  0  0
 16  8  1  0  0  0
  8  9  1  0  0  0
  9 10  1  0  0  0
 10 11  2  0  0  0
 11 12  1  0  0  0
 11  1  1  0  0  0
  1  2  2  0  0  0
  2  3  1  0  0  0
  3  4  2  0  0  0
  4  5  1  0  0  0
  5  6  2  0  0  0
  5  7  1  0  0  0
  4 27  1  0  0  0
 27 28  1  0  0  0
 28 29  1  0  0  0
 29 32  1  0  0  0
 32 33  1  0  0  0
 33 34  1  0  0  0
 34 35  2  0  0  0
 34 37  1  0  0  0
 37 38  1  0  0  0
 29 30  1  0  0  0
  3 25  1  0  0  0
 25 26  1  0  0  0
 14 19  1  0  0  0
 13 20  1  0  0  0
 20 21  1  0  0  0
 21 22  1  0  0  0
 20 23  1  0  0  0
 23 24  1  0  0  0
 18 13  1  0  0  0
 12  8  2  0  0  0
  6  1  1  0  0  0
 33 36  1  0  0  0
 38 39  1  0  0  0
 30 31  1  0  0  0
M  END
>  <minimizedAffinity>
-7.31639

>  <minimizedRMSD>
1.72562

$$$$
CHEMBL4450891


 35 38  0  0  0  0  0  0  0  0999 V2000
   16.2966   -8.8896   14.4008 C   0  0  0  0  0  0  0  0  0  0  0  0
   15.3529   -8.2258   15.1304 N   0  0  0  0  0  0  0  0  0  0  0  0
   15.2760   -8.3375   16.4932 C   0  0  0  0  0  0  0  0  0  0  0  0
   16.1626   -9.1340   17.1627 N   0  0  0  0  0  0  0  0  0  0  0  0
   17.1048   -9.7994   16.4542 C   0  0  0  0  0  0  0  0  0  0  0  0
   17.1968   -9.7009   15.1027 C   0  0  0  0  0  0  0  0  0  0  0  0
   18.2492  -10.4935   14.7007 C   0  0  0  0  0  0  0  0  0  0  0  0
   18.7401  -11.0386   15.8896 C   0  0  0  0  0  0  0  0  0  0  0  0
   18.0369  -10.6123   16.9679 N   0  0  0  0  0  0  0  0  0  0  0  0
   18.1792  -10.8470   17.9134 H   0  0  0  0  0  0  0  0  0  0  0  0
   14.2569   -7.6103   17.1925 N   0  0  0  0  0  0  0  0  0  0  0  0
   13.4596   -7.3670   16.6688 H   0  0  0  0  0  0  0  0  0  0  0  0
   14.2630   -7.1950   18.5680 C   0  0  0  0  0  0  0  0  0  0  0  0
   15.2906   -7.5710   19.4446 C   0  0  0  0  0  0  0  0  0  0  0  0
   15.2761   -7.1565   20.7773 C   0  0  0  0  0  0  0  0  0  0  0  0
   14.2303   -6.3631   21.2640 C   0  0  0  0  0  0  0  0  0  0  0  0
   13.2099   -5.9767   20.3847 C   0  0  0  0  0  0  0  0  0  0  0  0
   13.2156   -6.3888   19.0419 C   0  0  0  0  0  0  0  0  0  0  0  0
   14.2103   -5.8883   22.6681 C   0  0  0  0  0  0  0  0  0  0  0  0
   13.5497   -4.8494   22.9460 O   0  0  0  0  0  0  0  0  0  0  0  0
   14.9270   -6.5626   23.7190 N   0  0  0  0  0  0  0  0  0  0  0  0
   15.2033   -7.9894   23.6693 C   0  0  0  0  0  0  0  0  0  0  0  0
   15.2139   -5.8675   24.9628 C   0  0  0  0  0  0  0  0  0  0  0  0
   12.1930   -6.0077   18.1656 O   0  0  0  0  0  0  0  0  0  0  0  0
   11.4203   -4.8294   18.3501 C   0  0  0  0  0  0  0  0  0  0  0  0
   16.3151   -8.7271   13.0090 O   0  0  0  0  0  0  0  0  0  0  0  0
   17.1848   -8.2857    8.3706 O   0  0  0  0  0  0  0  0  0  0  0  0
   17.0362   -9.4721    9.0880 C   0  0  0  0  0  0  0  0  0  0  0  0
   16.9764  -10.6273    8.1093 C   0  0  0  0  0  0  0  0  0  0  0  0
   18.2616   -9.6646    9.9940 C   0  0  0  0  0  0  0  0  0  0  0  0
   18.0529   -9.0221   11.3626 C   0  0  0  0  0  0  0  0  0  0  0  0
   16.8767   -9.6691   12.1057 C   0  0  0  0  0  0  0  0  0  0  0  0
   15.7838  -10.2083   11.1721 C   0  0  0  0  0  0  0  0  0  0  0  0
   15.7145   -9.4107    9.8706 C   0  0  0  0  0  0  0  0  0  0  0  0
   18.0162   -8.3116    7.8716 H   0  0  0  0  0  0  0  0  0  0  0  0
 27 28  1  0  0  0
 28 29  1  0  0  0
 28 30  1  0  0  0
 30 31  1  0  0  0
 31 32  1  0  0  0
 32 26  1  0  0  0
 26  1  1  0  0  0
  1  2  2  0  0  0
  2  3  1  0  0  0
  3  4  2  0  0  0
  4  5  1  0  0  0
  5  6  2  0  0  0
  6  7  1  0  0  0
  7  8  2  0  0  0
  8  9  1  0  0  0
  3 11  1  0  0  0
 11 13  1  0  0  0
 13 14  2  0  0  0
 14 15  1  0  0  0
 15 16  2  0  0  0
 16 17  1  0  0  0
 17 18  2  0  0  0
 18 24  1  0  0  0
 24 25  1  0  0  0
 16 19  1  0  0  0
 19 20  2  0  0  0
 19 21  1  0  0  0
 21 22  1  0  0  0
 21 23  1  0  0  0
 32 33  1  0  0  0
 33 34  1  0  0  0
 34 28  1  0  0  0
  6  1  1  0  0  0
 18 13  1  0  0  0
  9  5  1  0  0  0
 27 35  1  0  0  0
  9 10  1  0  0  0
 11 12  1  0  0  0
M  END
>  <minimizedAffinity>
-7.30947

>  <minimizedRMSD>
1.64813

$$$$
CHEMBL3753584 PubChem-124171486


 34 36  0  0  0  0  0  0  0  0999 V2000
   15.9032   -8.6362   16.2860 C   0  0  0  0  0  0  0  0  0  0  0  0
   14.7858   -7.9526   16.6015 N   0  0  0  0  0  0  0  0  0  0  0  0
   14.9252   -7.8020   17.9374 C   0  0  0  0  0  0  0  0  0  0  0  0
   16.0624   -8.3646   18.3935 N   0  0  0  0  0  0  0  0  0  0  0  0
   16.6377   -8.8685   17.3453 O   0  0  0  0  0  0  0  0  0  0  0  0
   13.9299   -7.0967   18.7807 C   0  0  0  0  0  0  0  0  0  0  0  0
   12.9419   -6.3448   18.1293 C   0  0  0  0  0  0  0  0  0  0  0  0
   11.9660   -5.6493   18.8447 C   0  0  0  0  0  0  0  0  0  0  0  0
   11.9622   -5.6956   20.2533 C   0  0  0  0  0  0  0  0  0  0  0  0
   12.9439   -6.4427   20.9075 C   0  0  0  0  0  0  0  0  0  0  0  0
   13.9235   -7.1411   20.1959 C   0  0  0  0  0  0  0  0  0  0  0  0
   15.0974   -8.0405   21.1469 Cl  0  0  0  0  0  0  0  0  0  0  0  0
   11.0407   -4.9418   18.1516 F   0  0  0  0  0  0  0  0  0  0  0  0
   11.0190   -5.0261   21.0441 O   0  0  0  0  0  0  0  0  0  0  0  0
   10.8654   -5.2203   22.4439 C   0  0  0  0  0  0  0  0  0  0  0  0
   11.8952   -4.3997   23.2020 C   0  0  0  0  0  0  0  0  0  0  0  0
   11.3031   -3.9201   24.4368 N   0  0  0  0  0  0  0  0  0  0  0  0
   10.4970   -3.3332   24.2218 H   0  0  0  0  0  0  0  0  0  0  0  0
   11.9921   -3.3748   24.9549 H   0  0  0  0  0  0  0  0  0  0  0  0
   12.3489   -3.2092   22.3732 C   0  0  0  0  0  0  0  0  0  0  0  0
   13.7376   -3.2161   22.2403 O   0  0  0  0  0  0  0  0  0  0  0  0
   14.1468   -3.1607   23.1180 H   0  0  0  0  0  0  0  0  0  0  0  0
   16.9355   -9.8873   12.3168 C   0  0  0  0  0  0  0  0  0  0  0  0
   17.6092  -10.4349   13.4394 C   0  0  0  0  0  0  0  0  0  0  0  0
   17.2604  -10.0158   14.7277 C   0  0  0  0  0  0  0  0  0  0  0  0
   16.2531   -9.0665   14.9256 C   0  0  0  0  0  0  0  0  0  0  0  0
   15.5769   -8.5424   13.8203 C   0  0  0  0  0  0  0  0  0  0  0  0
   15.9154   -8.9532   12.5301 C   0  0  0  0  0  0  0  0  0  0  0  0
   18.6108  -11.4627   13.3274 C   0  0  0  0  0  0  0  0  0  0  0  0
   19.4159  -12.2900   13.2422 N   0  0  0  0  0  0  0  0  0  0  0  0
   17.2126  -10.2348   10.9841 O   0  0  0  0  0  0  0  0  0  0  0  0
   17.7647   -9.7731    8.6989 C   0  0  0  0  0  0  0  0  0  0  0  0
   18.1627   -9.5853   10.1472 C   0  0  0  0  0  0  0  0  0  0  0  0
   18.2035   -8.1010   10.4611 C   0  0  0  0  0  0  0  0  0  0  0  0
 32 33  1  0  0  0
 33 34  1  0  0  0
 33 31  1  0  0  0
 31 23  1  0  0  0
 23 24  2  0  0  0
 24 25  1  0  0  0
 25 26  2  0  0  0
 26 27  1  0  0  0
 27 28  2  0  0  0
 26  1  1  0  0  0
  1  2  2  0  0  0
  2  3  1  0  0  0
  3  4  2  0  0  0
  4  5  1  0  0  0
  3  6  1  0  0  0
  6  7  2  0  0  0
  7  8  1  0  0  0
  8  9  2  0  0  0
  9 10  1  0  0  0
 10 11  2  0  0  0
 11 12  1  0  0  0
  9 14  1  0  0  0
 14 15  1  0  0  0
 16 15  1  0  0  0
 16 20  1  0  0  0
 20 21  1  0  0  0
 16 17  1  0  0  0
  8 13  1  0  0  0
 24 29  1  0  0  0
 29 30  3  0  0  0
 28 23  1  0  0  0
  5  1  1  0  0  0
 11  6  1  0  0  0
 21 22  1  0  0  0
 17 18  1  0  0  0
 17 19  1  0  0  0
M  END
>  <minimizedAffinity>
-7.30747

>  <minimizedRMSD>
1.77556

$$$$
CHEMBL5188222


 30 32  0  0  0  0  0  0  0  0999 V2000
   16.4811   -9.0925   15.6079 C   0  0  0  0  0  0  0  0  0  0  0  0
   15.4708   -8.3358   16.0875 N   0  0  0  0  0  0  0  0  0  0  0  0
   15.6716   -8.4359   17.4166 C   0  0  0  0  0  0  0  0  0  0  0  0
   16.7105   -9.1868   17.6913 O   0  0  0  0  0  0  0  0  0  0  0  0
   17.2438   -9.6162   16.5888 N   0  0  0  0  0  0  0  0  0  0  0  0
   16.7226   -9.3198   14.1746 C   0  0  0  0  0  0  0  0  0  0  0  0
   17.9114   -9.9247   13.7446 C   0  0  0  0  0  0  0  0  0  0  0  0
   18.1410  -10.1407   12.3828 C   0  0  0  0  0  0  0  0  0  0  0  0
   17.1859   -9.7551   11.4373 C   0  0  0  0  0  0  0  0  0  0  0  0
   15.9954   -9.1492   11.8649 C   0  0  0  0  0  0  0  0  0  0  0  0
   15.7658   -8.9333   13.2265 C   0  0  0  0  0  0  0  0  0  0  0  0
   17.4441   -9.9851   10.0507 N   0  0  0  0  0  0  0  0  0  0  0  0
   17.8810  -10.8269    9.7869 H   0  0  0  0  0  0  0  0  0  0  0  0
   17.0899   -9.0299    9.0114 C   0  0  0  0  0  0  0  0  0  0  0  0
   18.0661   -9.1424    7.8357 C   0  0  0  0  0  0  0  0  0  0  0  0
   19.0947   -8.0940    7.8046 N   0  0  0  0  0  0  0  0  0  0  0  0
   18.7089   -7.0429    6.8742 C   0  0  0  0  0  0  0  0  0  0  0  0
   19.2501   -7.5003    9.1239 C   0  0  0  0  0  0  0  0  0  0  0  0
   14.8310   -7.7847   18.4304 C   0  0  0  0  0  0  0  0  0  0  0  0
   13.5009   -7.4674   18.1498 C   0  0  0  0  0  0  0  0  0  0  0  0
   12.6862   -6.8451   19.1091 C   0  0  0  0  0  0  0  0  0  0  0  0
   13.2264   -6.5348   20.3836 C   0  0  0  0  0  0  0  0  0  0  0  0
   14.5664   -6.8560   20.6620 C   0  0  0  0  0  0  0  0  0  0  0  0
   15.3573   -7.4776   19.6850 C   0  0  0  0  0  0  0  0  0  0  0  0
   15.0920   -6.5468   21.9219 O   0  0  0  0  0  0  0  0  0  0  0  0
   16.4880   -6.5071   22.1861 C   0  0  0  0  0  0  0  0  0  0  0  0
   12.4874   -5.9132   21.4045 O   0  0  0  0  0  0  0  0  0  0  0  0
   12.2601   -4.5154   21.5126 C   0  0  0  0  0  0  0  0  0  0  0  0
   11.3555   -6.5373   18.8027 O   0  0  0  0  0  0  0  0  0  0  0  0
   10.4237   -7.5042   18.3358 C   0  0  0  0  0  0  0  0  0  0  0  0
  6  1  1  0  0  0
  1  2  1  0  0  0
  2  3  2  0  0  0
  3  4  1  0  0  0
  4  5  1  0  0  0
  3 19  1  0  0  0
 19 20  2  0  0  0
 20 21  1  0  0  0
 21 22  2  0  0  0
 22 23  1  0  0  0
 23 24  2  0  0  0
 23 25  1  0  0  0
 25 26  1  0  0  0
 22 27  1  0  0  0
 27 28  1  0  0  0
 21 29  1  0  0  0
 29 30  1  0  0  0
  6  7  2  0  0  0
  7  8  1  0  0  0
  8  9  2  0  0  0
  9 10  1  0  0  0
 10 11  2  0  0  0
  9 12  1  0  0  0
 12 14  1  0  0  0
 14 15  1  0  0  0
 15 16  1  0  0  0
 16 17  1  0  0  0
 16 18  1  0  0  0
 11  6  1  0  0  0
  5  1  2  0  0  0
 24 19  1  0  0  0
 12 13  1  0  0  0
M  END
>  <minimizedAffinity>
-7.29804

>  <minimizedRMSD>
1.31258

$$$$
CHEMBL3191712 LN00656100 MolPort-002-601-617 PubChem-6879169


 35 38  0  0  0  0  0  0  0  0999 V2000
   14.9570   -7.7875   19.4955 C   0  0  0  0  0  0  0  0  0  0  0  0
   15.8069   -8.7132   19.4035 O   0  0  0  0  0  0  0  0  0  0  0  0
   14.4041   -7.1786   18.3180 N   0  0  0  0  0  0  0  0  0  0  0  0
   13.7367   -6.4674   18.4527 H   0  0  0  0  0  0  0  0  0  0  0  0
   13.8009   -6.2058   21.1635 C   0  0  0  0  0  0  0  0  0  0  0  0
   14.5465   -7.3237   20.8308 C   0  0  0  0  0  0  0  0  0  0  0  0
   14.8605   -7.9652   21.9748 N   0  0  0  0  0  0  0  0  0  0  0  0
   14.3284   -7.2698   22.9700 N   0  0  0  0  0  0  0  0  0  0  0  0
   13.6980   -6.2016   22.5080 N   0  0  0  0  0  0  0  0  0  0  0  0
   12.9886   -5.2834   23.3508 C   0  0  0  0  0  0  0  0  0  0  0  0
   11.7951   -5.5446   23.9094 N   0  0  0  0  0  0  0  0  0  0  0  0
   11.5376   -4.5176   24.6740 O   0  0  0  0  0  0  0  0  0  0  0  0
   12.4773   -3.6110   24.6787 N   0  0  0  0  0  0  0  0  0  0  0  0
   13.4136   -4.0721   23.8359 C   0  0  0  0  0  0  0  0  0  0  0  0
   14.6952   -3.4771   23.6666 N   0  0  0  0  0  0  0  0  0  0  0  0
   14.8856   -2.5968   24.0642 H   0  0  0  0  0  0  0  0  0  0  0  0
   15.3915   -3.9459   23.1521 H   0  0  0  0  0  0  0  0  0  0  0  0
   13.1072   -5.2590   20.2329 C   0  0  0  0  0  0  0  0  0  0  0  0
   10.7908   -5.0860   20.5068 C   0  0  0  0  0  0  0  0  0  0  0  0
   11.8333   -5.8129   19.8017 N   0  0  0  0  0  0  0  0  0  0  0  0
   11.6901   -5.4750   18.3974 C   0  0  0  0  0  0  0  0  0  0  0  0
   14.7306   -7.5072   16.9886 N   0  0  0  0  0  0  0  0  0  0  0  0
   15.7053   -8.2976   16.6657 C   0  0  0  0  0  0  0  0  0  0  0  0
   16.0086   -8.6053   15.2647 C   0  0  0  0  0  0  0  0  0  0  0  0
   16.8053   -9.7144   14.9693 C   0  0  0  0  0  0  0  0  0  0  0  0
   17.1137  -10.0259   13.6419 C   0  0  0  0  0  0  0  0  0  0  0  0
   16.6284   -9.2324   12.5892 C   0  0  0  0  0  0  0  0  0  0  0  0
   15.8284   -8.1192   12.8948 C   0  0  0  0  0  0  0  0  0  0  0  0
   15.5210   -7.8068   14.2217 C   0  0  0  0  0  0  0  0  0  0  0  0
   16.9617   -9.5582   11.1816 C   0  0  0  0  0  0  0  0  0  0  0  0
   18.2399   -9.2819   10.6663 C   0  0  0  0  0  0  0  0  0  0  0  0
   18.5512   -9.5816    9.3372 C   0  0  0  0  0  0  0  0  0  0  0  0
   17.5885  -10.1616    8.5081 C   0  0  0  0  0  0  0  0  0  0  0  0
   16.3142  -10.4422    9.0075 C   0  0  0  0  0  0  0  0  0  0  0  0
   16.0020  -10.1403   10.3360 C   0  0  0  0  0  0  0  0  0  0  0  0
 19 20  1  0  0  0
 20 21  1  0  0  0
 20 18  1  0  0  0
 18  5  1  0  0  0
  5  6  2  0  0  0
  6  7  1  0  0  0
  6  1  1  0  0  0
  7  8  2  0  0  0
  8  9  1  0  0  0
  9 10  1  0  0  0
  9  5  1  0  0  0
 10 11  2  0  0  0
 11 12  1  0  0  0
 12 13  1  0  0  0
 13 14  2  0  0  0
 14 15  1  0  0  0
 14 10  1  0  0  0
  1  2  2  0  0  0
  1  3  1  0  0  0
  3 22  1  0  0  0
 22 23  2  0  0  0
 23 24  1  0  0  0
 24 25  2  0  0  0
 25 26  1  0  0  0
 26 27  2  0  0  0
 27 28  1  0  0  0
 27 30  1  0  0  0
 28 29  2  0  0  0
 29 24  1  0  0  0
 30 31  2  0  0  0
 31 32  1  0  0  0
 32 33  2  0  0  0
 33 34  1  0  0  0
 34 35  2  0  0  0
 35 30  1  0  0  0
 15 16  1  0  0  0
 15 17  1  0  0  0
  3  4  1  0  0  0
M  END
>  <minimizedAffinity>
-7.29747

>  <minimizedRMSD>
1.87439

$$$$
CHEMBL3665732 PubChem-69915163


 32 36  0  0  0  0  0  0  0  0999 V2000
   14.8049   -8.4023   17.6104 C   0  0  0  0  0  0  0  0  0  0  0  0
   13.4606   -7.8777   17.1288 C   0  0  0  0  0  0  0  0  0  0  0  0
   15.8946   -8.2223   16.6013 C   0  0  0  0  0  0  0  0  0  0  0  0
   16.0038   -7.1424   15.9598 O   0  0  0  0  0  0  0  0  0  0  0  0
   16.8189   -9.2889   16.3817 N   0  0  0  0  0  0  0  0  0  0  0  0
   16.7380  -10.1040   16.9278 H   0  0  0  0  0  0  0  0  0  0  0  0
   17.8764   -9.2194   15.3824 C   0  0  0  0  0  0  0  0  0  0  0  0
   18.8151  -10.4224   15.5585 C   0  0  0  0  0  0  0  0  0  0  0  0
   18.7129  -11.2964   14.3002 C   0  0  0  0  0  0  0  0  0  0  0  0
   17.7737  -10.5586   13.4331 C   0  0  0  0  0  0  0  0  0  0  0  0
   17.3125   -9.4117   14.0243 C   0  0  0  0  0  0  0  0  0  0  0  0
   16.4271   -8.5631   13.3564 C   0  0  0  0  0  0  0  0  0  0  0  0
   16.0056   -8.9122   12.0650 C   0  0  0  0  0  0  0  0  0  0  0  0
   16.4697  -10.0921   11.4556 C   0  0  0  0  0  0  0  0  0  0  0  0
   17.3688  -10.9264   12.1502 C   0  0  0  0  0  0  0  0  0  0  0  0
   16.0255  -10.4065   10.1684 O   0  0  0  0  0  0  0  0  0  0  0  0
   16.5650   -9.8015    9.0014 C   0  0  0  0  0  0  0  0  0  0  0  0
   15.1658   -7.9042   18.9027 O   0  0  0  0  0  0  0  0  0  0  0  0
   10.8432   -5.6732   19.9531 C   0  0  0  0  0  0  0  0  0  0  0  0
   12.1851   -6.1698   20.3632 C   0  0  0  0  0  0  0  0  0  0  0  0
   13.0265   -6.7923   19.4258 C   0  0  0  0  0  0  0  0  0  0  0  0
   14.3036   -7.2762   19.8152 C   0  0  0  0  0  0  0  0  0  0  0  0
   14.7128   -7.1417   21.1138 N   0  0  0  0  0  0  0  0  0  0  0  0
   13.8913   -6.5361   22.0071 C   0  0  0  0  0  0  0  0  0  0  0  0
   12.6630   -6.0534   21.6685 C   0  0  0  0  0  0  0  0  0  0  0  0
   12.1554   -5.5323   22.8506 C   0  0  0  0  0  0  0  0  0  0  0  0
   13.0642   -5.7292   23.8419 N   0  0  0  0  0  0  0  0  0  0  0  0
   14.1200   -6.3351   23.3123 N   0  0  0  0  0  0  0  0  0  0  0  0
   15.3049   -6.7182   24.0595 C   0  0  0  0  0  0  0  0  0  0  0  0
   10.8061   -4.9154   23.0532 C   0  0  0  0  0  0  0  0  0  0  0  0
   10.8622   -3.8542   24.1382 C   0  0  0  0  0  0  0  0  0  0  0  0
   10.8622   -3.4445   22.6836 C   0  0  0  0  0  0  0  0  0  0  0  0
 19 20  1  0  0  0
 20 21  2  0  0  0
 21 22  1  0  0  0
 22 23  2  0  0  0
 22 18  1  0  0  0
 23 24  1  0  0  0
 24 25  2  0  0  0
 25 26  1  0  0  0
 25 20  1  0  0  0
 26 27  2  0  0  0
 26 30  1  0  0  0
 27 28  1  0  0  0
 28 29  1  0  0  0
 28 24  1  0  0  0
 30 31  1  0  0  0
 31 32  1  0  0  0
 32 30  1  0  0  0
  1 18  1  0  0  0
  1  2  1  0  0  0
  1  3  1  0  0  0
  3  4  2  0  0  0
  3  5  1  0  0  0
  7  5  1  0  0  0
  7  8  1  0  0  0
  8  9  1  0  0  0
  9 10  1  0  0  0
 10 11  2  0  0  0
 11 12  1  0  0  0
 11  7  1  0  0  0
 12 13  2  0  0  0
 13 14  1  0  0  0
 14 15  2  0  0  0
 14 16  1  0  0  0
 15 10  1  0  0  0
 16 17  1  0  0  0
  5  6  1  0  0  0
M  END
>  <minimizedAffinity>
-7.28589

>  <minimizedRMSD>
1.92840

$$$$
CHEMBL4097719 PubChem-137659215


 33 35  0  0  0  0  0  0  0  0999 V2000
   17.3766  -10.3955   14.4672 C   0  0  0  0  0  0  0  0  0  0  0  0
   18.0872  -11.4314   15.0814 C   0  0  0  0  0  0  0  0  0  0  0  0
   17.8725  -11.2460   16.7430 S   0  0  0  0  0  0  0  0  0  0  0  0
   16.9078   -9.8868   16.5977 C   0  0  0  0  0  0  0  0  0  0  0  0
   16.7260   -9.5437   15.3068 N   0  0  0  0  0  0  0  0  0  0  0  0
   16.4595   -9.2330   12.4432 N   0  0  0  0  0  0  0  0  0  0  0  0
   17.3263  -10.2238   13.0097 C   0  0  0  0  0  0  0  0  0  0  0  0
   18.0403  -10.9487   12.2646 O   0  0  0  0  0  0  0  0  0  0  0  0
   15.9052   -8.7042   13.0615 H   0  0  0  0  0  0  0  0  0  0  0  0
   17.7621   -8.8155    7.3857 F   0  0  0  0  0  0  0  0  0  0  0  0
   17.7019   -9.7114    8.4363 C   0  0  0  0  0  0  0  0  0  0  0  0
   18.3212  -10.8854    8.0524 F   0  0  0  0  0  0  0  0  0  0  0  0
   16.2253  -10.0072    8.7423 C   0  0  0  0  0  0  0  0  0  0  0  0
   15.9788  -10.2193   10.2326 C   0  0  0  0  0  0  0  0  0  0  0  0
   16.3388   -8.9507   11.0159 C   0  0  0  0  0  0  0  0  0  0  0  0
   17.5821   -8.2170   10.4853 C   0  0  0  0  0  0  0  0  0  0  0  0
   18.4660   -9.1274    9.6335 C   0  0  0  0  0  0  0  0  0  0  0  0
   16.3479   -9.1801   17.7084 N   0  0  0  0  0  0  0  0  0  0  0  0
   15.3909   -8.1170   17.6091 C   0  0  0  0  0  0  0  0  0  0  0  0
   14.9758   -7.7359   16.4806 O   0  0  0  0  0  0  0  0  0  0  0  0
   16.6423   -9.4439   18.6100 H   0  0  0  0  0  0  0  0  0  0  0  0
   14.8898   -7.4663   18.8323 C   0  0  0  0  0  0  0  0  0  0  0  0
   15.6871   -7.4038   19.9767 C   0  0  0  0  0  0  0  0  0  0  0  0
   15.2208   -6.7871   21.1464 C   0  0  0  0  0  0  0  0  0  0  0  0
   13.9349   -6.2207   21.1790 C   0  0  0  0  0  0  0  0  0  0  0  0
   13.1186   -6.2800   20.0205 C   0  0  0  0  0  0  0  0  0  0  0  0
   13.6114   -6.9036   18.8633 C   0  0  0  0  0  0  0  0  0  0  0  0
   11.8337   -5.7246   20.0229 O   0  0  0  0  0  0  0  0  0  0  0  0
   11.0731   -5.5252   18.8385 C   0  0  0  0  0  0  0  0  0  0  0  0
   13.5268   -5.6177   22.3809 O   0  0  0  0  0  0  0  0  0  0  0  0
   12.5885   -4.5564   22.4843 C   0  0  0  0  0  0  0  0  0  0  0  0
   16.0207   -6.7247   22.2934 O   0  0  0  0  0  0  0  0  0  0  0  0
   17.4073   -6.4158   22.2503 C   0  0  0  0  0  0  0  0  0  0  0  0
 10 11  1  0  0  0
 11 12  1  0  0  0
 11 13  1  0  0  0
 13 14  1  0  0  0
 14 15  1  0  0  0
 15  6  1  0  0  0
  6  7  1  0  0  0
  7  8  2  0  0  0
  7  1  1  0  0  0
  1  2  2  0  0  0
  2  3  1  0  0  0
  3  4  1  0  0  0
  4 18  1  0  0  0
 18 19  1  0  0  0
 19 20  2  0  0  0
 19 22  1  0  0  0
 22 23  2  0  0  0
 23 24  1  0  0  0
 24 25  2  0  0  0
 25 26  1  0  0  0
 26 27  2  0  0  0
 26 28  1  0  0  0
 28 29  1  0  0  0
 25 30  1  0  0  0
 30 31  1  0  0  0
 24 32  1  0  0  0
 32 33  1  0  0  0
  4  5  2  0  0  0
 15 16  1  0  0  0
 16 17  1  0  0  0
 17 11  1  0  0  0
  5  1  1  0  0  0
 27 22  1  0  0  0
  6  9  1  0  0  0
 18 21  1  0  0  0
M  END
>  <minimizedAffinity>
-7.27227

>  <minimizedRMSD>
1.52819

$$$$
CHEMBL1406563 ChemDiv-E716-0416 MCULE-7959394743 MolPort-007-755-956 PubChem-16021767 ZINC000008591391 ZINC08591391


 34 36  0  0  0  0  0  0  0  0999 V2000
   16.5320   -9.6657   16.4109 C   0  0  0  0  0  0  0  0  0  0  0  0
   15.5921   -8.6697   18.5267 N   0  0  0  0  0  0  0  0  0  0  0  0
   15.7980   -8.5789   17.1111 C   0  0  0  0  0  0  0  0  0  0  0  0
   15.3945   -7.5834   16.4532 O   0  0  0  0  0  0  0  0  0  0  0  0
   15.9461   -9.4722   18.9739 H   0  0  0  0  0  0  0  0  0  0  0  0
   13.0215   -6.2843   19.8787 C   0  0  0  0  0  0  0  0  0  0  0  0
   13.6538   -7.2193   19.0475 C   0  0  0  0  0  0  0  0  0  0  0  0
   14.9237   -7.7119   19.3586 C   0  0  0  0  0  0  0  0  0  0  0  0
   15.5608   -7.2647   20.5147 C   0  0  0  0  0  0  0  0  0  0  0  0
   14.9516   -6.3292   21.3668 C   0  0  0  0  0  0  0  0  0  0  0  0
   13.6641   -5.8302   21.0432 C   0  0  0  0  0  0  0  0  0  0  0  0
   11.5268   -4.7998   18.5741 C   0  0  0  0  0  0  0  0  0  0  0  0
   11.7485   -5.7922   19.5676 O   0  0  0  0  0  0  0  0  0  0  0  0
   15.6141   -5.9004   22.5228 O   0  0  0  0  0  0  0  0  0  0  0  0
   16.8679   -6.4269   22.9382 C   0  0  0  0  0  0  0  0  0  0  0  0
   12.9790   -4.8917   21.8335 O   0  0  0  0  0  0  0  0  0  0  0  0
   13.1876   -3.4872   21.7983 C   0  0  0  0  0  0  0  0  0  0  0  0
   18.2214   -9.1177   16.0305 S   0  0  0  0  0  0  0  0  0  0  0  0
   18.5345  -10.5511   14.9592 C   0  0  0  0  0  0  0  0  0  0  0  0
   18.0448  -10.2785   13.5788 C   0  0  0  0  0  0  0  0  0  0  0  0
   18.7696   -9.6429   12.6400 N   0  0  0  0  0  0  0  0  0  0  0  0
   17.9106   -9.6468   11.5973 C   0  0  0  0  0  0  0  0  0  0  0  0
   16.7416  -10.2508   11.8933 N   0  0  0  0  0  0  0  0  0  0  0  0
   16.8654  -10.6280   13.1288 O   0  0  0  0  0  0  0  0  0  0  0  0
   18.2167   -9.0570   10.2847 C   0  0  0  0  0  0  0  0  0  0  0  0
   17.4822   -9.4310    9.1529 C   0  0  0  0  0  0  0  0  0  0  0  0
   17.7649   -8.8724    7.8956 C   0  0  0  0  0  0  0  0  0  0  0  0
   18.7960   -7.9280    7.7736 C   0  0  0  0  0  0  0  0  0  0  0  0
   19.5320   -7.5546    8.9098 C   0  0  0  0  0  0  0  0  0  0  0  0
   19.2439   -8.1153   10.1556 C   0  0  0  0  0  0  0  0  0  0  0  0
   17.0361   -9.2396    6.7591 O   0  0  0  0  0  0  0  0  0  0  0  0
   17.5780   -9.1844    5.4465 C   0  0  0  0  0  0  0  0  0  0  0  0
   19.0711   -7.3752    6.5180 O   0  0  0  0  0  0  0  0  0  0  0  0
   20.3767   -7.3544    5.9563 C   0  0  0  0  0  0  0  0  0  0  0  0
 12 13  1  0  0  0
 13  6  1  0  0  0
  6  7  2  0  0  0
  7  8  1  0  0  0
  8  2  1  0  0  0
  8  9  2  0  0  0
  2  3  1  0  0  0
  3  4  2  0  0  0
  3  1  1  0  0  0
  1 18  1  0  0  0
 18 19  1  0  0  0
 19 20  1  0  0  0
 20 21  2  0  0  0
 21 22  1  0  0  0
 22 23  2  0  0  0
 22 25  1  0  0  0
 23 24  1  0  0  0
 24 20  1  0  0  0
 25 26  2  0  0  0
 26 27  1  0  0  0
 27 31  1  0  0  0
 27 28  2  0  0  0
 31 32  1  0  0  0
 28 33  1  0  0  0
 28 29  1  0  0  0
 33 34  1  0  0  0
 29 30  2  0  0  0
 30 25  1  0  0  0
  9 10  1  0  0  0
 10 14  1  0  0  0
 10 11  2  0  0  0
 14 15  1  0  0  0
 11 16  1  0  0  0
 11  6  1  0  0  0
 16 17  1  0  0  0
  2  5  1  0  0  0
M  END
>  <minimizedAffinity>
-7.25577

>  <minimizedRMSD>
1.22509

$$$$
CHEMBL270150 PubChem-44454654


 36 40  0  0  0  0  0  0  0  0999 V2000
   15.5051   -8.0924   17.0782 C   0  0  0  0  0  0  0  0  0  0  0  0
   14.8790   -7.6765   16.0651 O   0  0  0  0  0  0  0  0  0  0  0  0
   16.6119   -8.9910   16.9279 N   0  0  0  0  0  0  0  0  0  0  0  0
   17.0699   -9.2889   17.7469 H   0  0  0  0  0  0  0  0  0  0  0  0
   10.7351   -6.7931   18.5699 C   0  0  0  0  0  0  0  0  0  0  0  0
   11.1396   -5.7170   19.5629 C   0  0  0  0  0  0  0  0  0  0  0  0
   11.4644   -4.4439   18.8017 C   0  0  0  0  0  0  0  0  0  0  0  0
    9.9250   -5.4655   20.4823 C   0  0  0  0  0  0  0  0  0  0  0  0
   10.2880   -4.8167   21.7446 N   0  0  0  0  0  0  0  0  0  0  0  0
   11.4976   -5.1647   22.4157 C   0  0  0  0  0  0  0  0  0  0  0  0
   11.6991   -4.8056   23.6054 O   0  0  0  0  0  0  0  0  0  0  0  0
   12.5047   -5.8950   21.6559 C   0  0  0  0  0  0  0  0  0  0  0  0
   13.7587   -6.3047   22.1103 C   0  0  0  0  0  0  0  0  0  0  0  0
   14.3462   -6.8247   20.9712 C   0  0  0  0  0  0  0  0  0  0  0  0
   15.6190   -7.3624   20.8047 C   0  0  0  0  0  0  0  0  0  0  0  0
   15.9882   -7.7817   19.5150 C   0  0  0  0  0  0  0  0  0  0  0  0
   15.0966   -7.6522   18.4235 C   0  0  0  0  0  0  0  0  0  0  0  0
   13.8162   -7.0983   18.6293 C   0  0  0  0  0  0  0  0  0  0  0  0
   13.4708   -6.7014   19.9216 C   0  0  0  0  0  0  0  0  0  0  0  0
   12.3188   -6.1451   20.3406 N   0  0  0  0  0  0  0  0  0  0  0  0
    9.6926   -4.1354   22.1326 H   0  0  0  0  0  0  0  0  0  0  0  0
   17.1019   -9.4882   15.6791 C   0  0  0  0  0  0  0  0  0  0  0  0
   16.5032   -9.2813   14.4893 N   0  0  0  0  0  0  0  0  0  0  0  0
   17.1928   -9.8715   13.4740 C   0  0  0  0  0  0  0  0  0  0  0  0
   18.3532  -10.5574   13.8442 C   0  0  0  0  0  0  0  0  0  0  0  0
   18.4945  -10.4012   15.5166 S   0  0  0  0  0  0  0  0  0  0  0  0
   16.7361   -9.7836   12.0811 C   0  0  0  0  0  0  0  0  0  0  0  0
   15.5609  -10.1314   11.7847 O   0  0  0  0  0  0  0  0  0  0  0  0
   17.6236   -9.3075   11.0650 N   0  0  0  0  0  0  0  0  0  0  0  0
   18.5452   -9.0706   11.3176 H   0  0  0  0  0  0  0  0  0  0  0  0
   17.2218   -9.1584    9.6721 C   0  0  0  0  0  0  0  0  0  0  0  0
   18.0604  -10.0965    8.7893 C   0  0  0  0  0  0  0  0  0  0  0  0
   19.1753   -9.3876    8.0118 C   0  0  0  0  0  0  0  0  0  0  0  0
   19.8084   -8.2894    8.8581 C   0  0  0  0  0  0  0  0  0  0  0  0
   18.7911   -7.1981    9.2151 C   0  0  0  0  0  0  0  0  0  0  0  0
   17.3369   -7.6936    9.2308 C   0  0  0  0  0  0  0  0  0  0  0  0
  5  6  1  0  0  0
  6  7  1  0  0  0
  6  8  1  0  0  0
  8  9  1  0  0  0
  9 10  1  0  0  0
 10 11  2  0  0  0
 10 12  1  0  0  0
 12 13  2  0  0  0
 13 14  1  0  0  0
 14 15  2  0  0  0
 15 16  1  0  0  0
 16 17  2  0  0  0
 17  1  1  0  0  0
 17 18  1  0  0  0
  1  2  2  0  0  0
  1  3  1  0  0  0
  3 22  1  0  0  0
 22 23  2  0  0  0
 23 24  1  0  0  0
 24 27  1  0  0  0
 24 25  2  0  0  0
 27 28  2  0  0  0
 27 29  1  0  0  0
 29 31  1  0  0  0
 31 32  1  0  0  0
 32 33  1  0  0  0
 33 34  1  0  0  0
 34 35  1  0  0  0
 35 36  1  0  0  0
 36 31  1  0  0  0
 25 26  1  0  0  0
 26 22  1  0  0  0
 18 19  2  0  0  0
 19 20  1  0  0  0
 19 14  1  0  0  0
 20  6  1  0  0  0
 20 12  1  0  0  0
  9 21  1  0  0  0
  3  4  1  0  0  0
 29 30  1  0  0  0
M  END
>  <minimizedAffinity>
-7.24908

>  <minimizedRMSD>
1.10212

$$$$
CHEMBL77748 PubChem-44316409


 29 29  0  0  0  0  0  0  0  0999 V2000
   16.0166   -8.1500   17.5913 N   0  0  0  0  0  0  0  0  0  0  0  0
   16.5402   -8.9628   16.5388 C   0  0  0  0  0  0  0  0  0  0  0  0
   15.7734   -9.4722   15.6780 O   0  0  0  0  0  0  0  0  0  0  0  0
   16.6399   -7.7904   18.2632 H   0  0  0  0  0  0  0  0  0  0  0  0
   14.6006   -7.8306   17.7132 C   0  0  0  0  0  0  0  0  0  0  0  0
   12.8185   -6.2097   20.6475 C   0  0  0  0  0  0  0  0  0  0  0  0
   13.1163   -6.6544   19.3488 C   0  0  0  0  0  0  0  0  0  0  0  0
   14.2862   -7.3777   19.0986 C   0  0  0  0  0  0  0  0  0  0  0  0
   15.1697   -7.6565   20.1457 C   0  0  0  0  0  0  0  0  0  0  0  0
   14.8801   -7.2182   21.4403 C   0  0  0  0  0  0  0  0  0  0  0  0
   13.7088   -6.4974   21.6927 C   0  0  0  0  0  0  0  0  0  0  0  0
   13.4340   -6.0679   22.9851 O   0  0  0  0  0  0  0  0  0  0  0  0
   14.0314   -6.2621   23.6803 H   0  0  0  0  0  0  0  0  0  0  0  0
   10.6829   -5.1890   19.9234 C   0  0  0  0  0  0  0  0  0  0  0  0
   11.6530   -5.4851   20.9189 O   0  0  0  0  0  0  0  0  0  0  0  0
   18.0061   -9.2249   16.4722 C   0  0  0  0  0  0  0  0  0  0  0  0
   18.2915  -10.6424   15.9943 C   0  0  0  0  0  0  0  0  0  0  0  0
   19.3244  -10.6573   14.8736 C   0  0  0  0  0  0  0  0  0  0  0  0
   18.9223  -11.6000   13.7455 C   0  0  0  0  0  0  0  0  0  0  0  0
   17.6331  -11.1476   13.0775 C   0  0  0  0  0  0  0  0  0  0  0  0
   17.8991  -10.0338   12.1803 N   0  0  0  0  0  0  0  0  0  0  0  0
   17.0126   -9.6948   11.1143 C   0  0  0  0  0  0  0  0  0  0  0  0
   15.9613  -10.3671   10.9264 O   0  0  0  0  0  0  0  0  0  0  0  0
   18.7145   -9.4982   12.3123 H   0  0  0  0  0  0  0  0  0  0  0  0
   17.3265   -8.6074   10.2880 O   0  0  0  0  0  0  0  0  0  0  0  0
   17.8906   -8.7188    8.9791 C   0  0  0  0  0  0  0  0  0  0  0  0
   19.0114   -7.7112    8.7892 C   0  0  0  0  0  0  0  0  0  0  0  0
   16.8263   -8.5113    7.9154 C   0  0  0  0  0  0  0  0  0  0  0  0
   18.4652  -10.1100    8.8159 C   0  0  0  0  0  0  0  0  0  0  0  0
 14 15  1  0  0  0
 15  6  1  0  0  0
  6  7  2  0  0  0
  7  8  1  0  0  0
  8  5  1  0  0  0
  8  9  2  0  0  0
  5  1  1  0  0  0
  1  2  1  0  0  0
  2  3  2  0  0  0
  2 16  1  0  0  0
 16 17  1  0  0  0
 17 18  1  0  0  0
 18 19  1  0  0  0
 19 20  1  0  0  0
 20 21  1  0  0  0
 21 22  1  0  0  0
 22 23  2  0  0  0
 22 25  1  0  0  0
 25 26  1  0  0  0
 26 27  1  0  0  0
 26 28  1  0  0  0
 26 29  1  0  0  0
  9 10  1  0  0  0
 10 11  2  0  0  0
 11 12  1  0  0  0
 11  6  1  0  0  0
  1  4  1  0  0  0
 21 24  1  0  0  0
 12 13  1  0  0  0
M  END
>  <minimizedAffinity>
-7.23353

>  <minimizedRMSD>
1.73655

$$$$
CHEMBL4852169 PubChem-164617369


 33 35  0  0  0  0  0  0  0  0999 V2000
   17.0126   -9.7249   14.4749 C   0  0  0  0  0  0  0  0  0  0  0  0
   17.2183  -10.4244   15.6728 C   0  0  0  0  0  0  0  0  0  0  0  0
   16.8058   -9.8790   16.8917 C   0  0  0  0  0  0  0  0  0  0  0  0
   16.1825   -8.6282   16.9333 C   0  0  0  0  0  0  0  0  0  0  0  0
   15.9752   -7.9260   15.7372 C   0  0  0  0  0  0  0  0  0  0  0  0
   16.3870   -8.4700   14.5178 C   0  0  0  0  0  0  0  0  0  0  0  0
   15.7740   -8.1029   18.2036 N   0  0  0  0  0  0  0  0  0  0  0  0
   14.5307   -7.4521   18.5081 C   0  0  0  0  0  0  0  0  0  0  0  0
   13.6559   -7.2888   17.6144 O   0  0  0  0  0  0  0  0  0  0  0  0
   16.4139   -8.1987   18.9457 H   0  0  0  0  0  0  0  0  0  0  0  0
   14.2748   -6.9705   19.8770 C   0  0  0  0  0  0  0  0  0  0  0  0
   13.0657   -6.3365   20.1918 C   0  0  0  0  0  0  0  0  0  0  0  0
   12.8125   -5.8741   21.4937 C   0  0  0  0  0  0  0  0  0  0  0  0
   13.7829   -6.0494   22.4919 C   0  0  0  0  0  0  0  0  0  0  0  0
   14.9945   -6.6849   22.1759 C   0  0  0  0  0  0  0  0  0  0  0  0
   15.2374   -7.1413   20.8792 C   0  0  0  0  0  0  0  0  0  0  0  0
   13.5233   -5.5860   23.7864 O   0  0  0  0  0  0  0  0  0  0  0  0
   14.3629   -5.8848   24.8934 C   0  0  0  0  0  0  0  0  0  0  0  0
   11.6075   -5.2400   21.8157 O   0  0  0  0  0  0  0  0  0  0  0  0
   11.4037   -3.8437   21.6461 C   0  0  0  0  0  0  0  0  0  0  0  0
   17.4512  -10.3078   13.1908 C   0  0  0  0  0  0  0  0  0  0  0  0
   17.6909  -11.5446   13.1136 O   0  0  0  0  0  0  0  0  0  0  0  0
   18.3210   -9.8455   10.9455 C   0  0  0  0  0  0  0  0  0  0  0  0
   17.6106   -9.4569   12.0005 C   0  0  0  0  0  0  0  0  0  0  0  0
   18.9546   -6.5349    6.3189 C   0  0  0  0  0  0  0  0  0  0  0  0
   18.7722   -7.4031    7.5176 C   0  0  0  0  0  0  0  0  0  0  0  0
   17.6157   -8.1772    7.6971 C   0  0  0  0  0  0  0  0  0  0  0  0
   17.5025   -8.9502    8.8085 N   0  0  0  0  0  0  0  0  0  0  0  0
   18.4811   -8.9950    9.7546 C   0  0  0  0  0  0  0  0  0  0  0  0
   19.6381   -8.2185    9.5717 C   0  0  0  0  0  0  0  0  0  0  0  0
   19.7503   -7.4457    8.4596 N   0  0  0  0  0  0  0  0  0  0  0  0
   20.7489   -8.2197   10.5675 C   0  0  0  0  0  0  0  0  0  0  0  0
   16.5079   -8.1728    6.6989 C   0  0  0  0  0  0  0  0  0  0  0  0
 25 26  1  0  0  0
 26 27  2  0  0  0
 27 28  1  0  0  0
 28 29  2  0  0  0
 29 30  1  0  0  0
 30 31  2  0  0  0
 30 32  1  0  0  0
 29 23  1  0  0  0
 23 24  2  0  0  0
 24 21  1  0  0  0
 21 22  2  0  0  0
 21  1  1  0  0  0
  1  2  2  0  0  0
  2  3  1  0  0  0
  3  4  2  0  0  0
  4  5  1  0  0  0
  5  6  2  0  0  0
  4  7  1  0  0  0
  7  8  1  0  0  0
  8  9  2  0  0  0
  8 11  1  0  0  0
 11 12  2  0  0  0
 12 13  1  0  0  0
 13 14  2  0  0  0
 14 15  1  0  0  0
 15 16  2  0  0  0
 14 17  1  0  0  0
 17 18  1  0  0  0
 13 19  1  0  0  0
 19 20  1  0  0  0
 27 33  1  0  0  0
 31 26  1  0  0  0
  6  1  1  0  0  0
 16 11  1  0  0  0
  7 10  1  0  0  0
M  END
>  <minimizedAffinity>
-7.22979

>  <minimizedRMSD>
1.93383

$$$$
CHEMBL1359776 CSC027743692 MCULE-6125225784 MolPort-004-087-088 PubChem-3574967 Z25297190


 32 34  0  0  0  0  0  0  0  0999 V2000
   15.8268   -8.7538   16.9090 O   0  0  0  0  0  0  0  0  0  0  0  0
   16.5146   -8.7116   15.6946 C   0  0  0  0  0  0  0  0  0  0  0  0
   16.5518   -7.6565   15.0073 O   0  0  0  0  0  0  0  0  0  0  0  0
   17.1711   -9.9449   15.1873 C   0  0  0  0  0  0  0  0  0  0  0  0
   16.4800  -10.4090   14.0351 O   0  0  0  0  0  0  0  0  0  0  0  0
   15.8739   -9.9715   11.7049 C   0  0  0  0  0  0  0  0  0  0  0  0
   16.2768   -9.6253   10.4100 C   0  0  0  0  0  0  0  0  0  0  0  0
   17.6185   -9.3600   10.1102 C   0  0  0  0  0  0  0  0  0  0  0  0
   18.5728   -9.4440   11.1295 C   0  0  0  0  0  0  0  0  0  0  0  0
   18.1911   -9.7885   12.4254 C   0  0  0  0  0  0  0  0  0  0  0  0
   16.8467  -10.0573   12.7315 C   0  0  0  0  0  0  0  0  0  0  0  0
   18.0140   -8.9977    8.7351 C   0  0  0  0  0  0  0  0  0  0  0  0
   18.8887   -7.8194    8.4715 C   0  0  0  0  0  0  0  0  0  0  0  0
   17.6162   -9.6860    7.7574 O   0  0  0  0  0  0  0  0  0  0  0  0
   13.5364  -10.2948   10.8703 C   0  0  0  0  0  0  0  0  0  0  0  0
   14.5060  -10.2117   11.9049 O   0  0  0  0  0  0  0  0  0  0  0  0
   14.8565   -7.7802   17.2769 C   0  0  0  0  0  0  0  0  0  0  0  0
   14.7376   -7.6916   18.7643 C   0  0  0  0  0  0  0  0  0  0  0  0
   15.4031   -8.4862   19.4806 O   0  0  0  0  0  0  0  0  0  0  0  0
   13.8562   -6.6840   19.3832 C   0  0  0  0  0  0  0  0  0  0  0  0
   14.0324   -6.0430   20.6002 C   0  0  0  0  0  0  0  0  0  0  0  0
   15.1709   -6.2391   21.5471 C   0  0  0  0  0  0  0  0  0  0  0  0
   13.0126   -5.1922   20.8125 N   0  0  0  0  0  0  0  0  0  0  0  0
   12.1940   -5.2911   19.7470 C   0  0  0  0  0  0  0  0  0  0  0  0
   10.9344   -4.5145   19.5775 C   0  0  0  0  0  0  0  0  0  0  0  0
   12.6753   -6.2073   18.8283 C   0  0  0  0  0  0  0  0  0  0  0  0
   12.8129   -4.3493   21.9862 C   0  0  0  0  0  0  0  0  0  0  0  0
   12.8232   -5.1926   23.2511 C   0  0  0  0  0  0  0  0  0  0  0  0
   11.5724   -4.9306   24.0503 C   0  0  0  0  0  0  0  0  0  0  0  0
   12.0361   -5.0350   25.4708 C   0  0  0  0  0  0  0  0  0  0  0  0
   13.5368   -5.1872   25.3590 C   0  0  0  0  0  0  0  0  0  0  0  0
   13.9267   -4.8643   24.0509 O   0  0  0  0  0  0  0  0  0  0  0  0
 15 16  1  0  0  0
 16  6  1  0  0  0
  6  7  2  0  0  0
  7  8  1  0  0  0
  8  9  2  0  0  0
  8 12  1  0  0  0
  9 10  1  0  0  0
 10 11  2  0  0  0
 11  5  1  0  0  0
 11  6  1  0  0  0
  5  4  1  0  0  0
  4  2  1  0  0  0
  2  3  2  0  0  0
  2  1  1  0  0  0
  1 17  1  0  0  0
 17 18  1  0  0  0
 18 19  2  0  0  0
 18 20  1  0  0  0
 20 21  2  0  0  0
 21 22  1  0  0  0
 21 23  1  0  0  0
 23 27  1  0  0  0
 23 24  1  0  0  0
 28 27  1  0  0  0
 28 29  1  0  0  0
 29 30  1  0  0  0
 30 31  1  0  0  0
 31 32  1  0  0  0
 32 28  1  0  0  0
 24 25  1  0  0  0
 24 26  2  0  0  0
 26 20  1  0  0  0
 12 13  1  0  0  0
 12 14  2  0  0  0
M  END
>  <minimizedAffinity>
-7.21746

>  <minimizedRMSD>
1.26156

$$$$
CHEMBL3668603 PubChem-57520164


 40 43  0  0  0  0  0  0  0  0999 V2000
   18.2979  -10.4275   14.3489 C   0  0  0  0  0  0  0  0  0  0  0  0
   18.5563  -11.0918   15.6965 C   0  0  0  0  0  0  0  0  0  0  0  0
   17.8372  -10.2578   16.7414 C   0  0  0  0  0  0  0  0  0  0  0  0
   17.0279   -9.3085   16.0059 N   0  0  0  0  0  0  0  0  0  0  0  0
   17.2070   -9.3924   14.5681 C   0  0  0  0  0  0  0  0  0  0  0  0
   16.2203   -8.3147   16.6491 C   0  0  0  0  0  0  0  0  0  0  0  0
   15.6602   -7.4198   15.9605 O   0  0  0  0  0  0  0  0  0  0  0  0
   16.0989   -8.3114   18.0764 N   0  0  0  0  0  0  0  0  0  0  0  0
   18.0009  -12.4327   15.6873 N   0  0  0  0  0  0  0  0  0  0  0  0
   16.7591   -8.8366   18.5839 H   0  0  0  0  0  0  0  0  0  0  0  0
   17.0010  -12.3852   15.4913 H   0  0  0  0  0  0  0  0  0  0  0  0
   18.1486  -12.8681   16.5978 H   0  0  0  0  0  0  0  0  0  0  0  0
   15.1019   -7.6117   18.8310 C   0  0  0  0  0  0  0  0  0  0  0  0
   15.3275   -7.0114   20.0629 C   0  0  0  0  0  0  0  0  0  0  0  0
   14.1582   -6.5110   20.5328 N   0  0  0  0  0  0  0  0  0  0  0  0
   13.2055   -6.8156   19.6234 C   0  0  0  0  0  0  0  0  0  0  0  0
   11.8344   -6.5546   19.6925 C   0  0  0  0  0  0  0  0  0  0  0  0
   11.0221   -7.0206   18.6444 C   0  0  0  0  0  0  0  0  0  0  0  0
   11.5831   -7.7392   17.5686 C   0  0  0  0  0  0  0  0  0  0  0  0
   12.9641   -7.9941   17.5242 C   0  0  0  0  0  0  0  0  0  0  0  0
   13.7500   -7.5004   18.5651 C   0  0  0  0  0  0  0  0  0  0  0  0
   14.0046   -5.8239   21.7855 C   0  0  0  0  0  0  0  0  0  0  0  0
   15.0038   -5.6407   22.5308 O   0  0  0  0  0  0  0  0  0  0  0  0
   12.7318   -5.3384   22.2016 N   0  0  0  0  0  0  0  0  0  0  0  0
   11.9421   -5.4743   21.6296 H   0  0  0  0  0  0  0  0  0  0  0  0
   12.6417   -4.8671   23.0613 H   0  0  0  0  0  0  0  0  0  0  0  0
   15.9391   -9.8258   13.9015 C   0  0  0  0  0  0  0  0  0  0  0  0
   14.9481  -10.1908   14.5914 O   0  0  0  0  0  0  0  0  0  0  0  0
   15.8683   -9.8256   12.4747 N   0  0  0  0  0  0  0  0  0  0  0  0
   16.6476   -9.5045   11.9660 H   0  0  0  0  0  0  0  0  0  0  0  0
   14.6954  -10.2791   11.7371 C   0  0  0  0  0  0  0  0  0  0  0  0
   14.6476   -9.6456   10.3503 C   0  0  0  0  0  0  0  0  0  0  0  0
   16.0140   -9.4924    9.7689 C   0  0  0  0  0  0  0  0  0  0  0  0
   16.2143   -9.5712    8.3850 C   0  0  0  0  0  0  0  0  0  0  0  0
   17.5005   -9.4290    7.8547 C   0  0  0  0  0  0  0  0  0  0  0  0
   18.5879   -9.2115    8.7064 C   0  0  0  0  0  0  0  0  0  0  0  0
   18.3897   -9.1376   10.0882 C   0  0  0  0  0  0  0  0  0  0  0  0
   17.1045   -9.2803   10.6187 C   0  0  0  0  0  0  0  0  0  0  0  0
   19.7496   -8.8676   11.1547 Cl  0  0  0  0  0  0  0  0  0  0  0  0
   17.6938   -9.5066    6.5159 F   0  0  0  0  0  0  0  0  0  0  0  0
  1  2  1  0  0  0
  2  3  1  0  0  0
  2  9  1  0  0  0
  3  4  1  0  0  0
  4  5  1  0  0  0
  4  6  1  0  0  0
  5 27  1  0  0  0
  5  1  1  0  0  0
 27 28  2  0  0  0
 27 29  1  0  0  0
 29 31  1  0  0  0
 31 32  1  0  0  0
 32 33  1  0  0  0
 33 34  2  0  0  0
 34 35  1  0  0  0
 35 36  2  0  0  0
 35 40  1  0  0  0
 36 37  1  0  0  0
 37 38  2  0  0  0
 37 39  1  0  0  0
 38 33  1  0  0  0
  6  7  2  0  0  0
  6  8  1  0  0  0
  8 13  1  0  0  0
 13 14  2  0  0  0
 14 15  1  0  0  0
 15 16  1  0  0  0
 15 22  1  0  0  0
 16 17  2  0  0  0
 17 18  1  0  0  0
 18 19  2  0  0  0
 19 20  1  0  0  0
 20 21  2  0  0  0
 21 13  1  0  0  0
 21 16  1  0  0  0
 22 23  2  0  0  0
 22 24  1  0  0  0
 29 30  1  0  0  0
  8 10  1  0  0  0
 24 25  1  0  0  0
 24 26  1  0  0  0
  9 11  1  0  0  0
  9 12  1  0  0  0
M  END
>  <minimizedAffinity>
-7.21689

>  <minimizedRMSD>
1.63398

$$$$
CHEMBL3823972 PubChem-127048494


 37 40  0  0  0  0  0  0  0  0999 V2000
   15.5083   -8.2051   17.7131 C   0  0  0  0  0  0  0  0  0  0  0  0
   16.5722   -9.1112   17.9288 C   0  0  0  0  0  0  0  0  0  0  0  0
   17.0440   -9.8126   16.8273 C   0  0  0  0  0  0  0  0  0  0  0  0
   16.5139   -9.6441   15.5891 C   0  0  0  0  0  0  0  0  0  0  0  0
   15.4686   -8.7558   15.3693 C   0  0  0  0  0  0  0  0  0  0  0  0
   14.9944   -8.0589   16.4445 N   0  0  0  0  0  0  0  0  0  0  0  0
   17.1590  -10.4428   14.7236 N   0  0  0  0  0  0  0  0  0  0  0  0
   18.0896  -11.1154   15.3908 N   0  0  0  0  0  0  0  0  0  0  0  0
   18.0491  -10.7516   16.6998 C   0  0  0  0  0  0  0  0  0  0  0  0
   13.7261   -5.8838   20.8908 C   0  0  0  0  0  0  0  0  0  0  0  0
   12.9802   -6.2763   19.7623 C   0  0  0  0  0  0  0  0  0  0  0  0
   13.5842   -7.0265   18.7511 C   0  0  0  0  0  0  0  0  0  0  0  0
   14.9322   -7.4062   18.8277 C   0  0  0  0  0  0  0  0  0  0  0  0
   15.6782   -7.0112   19.9602 C   0  0  0  0  0  0  0  0  0  0  0  0
   15.0733   -6.2608   20.9713 C   0  0  0  0  0  0  0  0  0  0  0  0
   16.9857   -7.3400   20.1053 F   0  0  0  0  0  0  0  0  0  0  0  0
   11.6731   -5.9431   19.6241 F   0  0  0  0  0  0  0  0  0  0  0  0
   13.1377   -5.0878   21.9929 C   0  0  0  0  0  0  0  0  0  0  0  0
   13.5135   -3.8966   22.1730 O   0  0  0  0  0  0  0  0  0  0  0  0
   12.1482   -5.6527   22.8564 N   0  0  0  0  0  0  0  0  0  0  0  0
   11.8632   -6.5835   22.7093 H   0  0  0  0  0  0  0  0  0  0  0  0
   11.5489   -4.8974   23.9450 C   0  0  0  0  0  0  0  0  0  0  0  0
   10.3278   -4.1510   23.4432 C   0  0  0  0  0  0  0  0  0  0  0  0
   10.7070   -2.9104   22.9303 O   0  0  0  0  0  0  0  0  0  0  0  0
   11.1332   -2.3886   23.6281 H   0  0  0  0  0  0  0  0  0  0  0  0
   16.9274  -10.5910   13.2907 C   0  0  0  0  0  0  0  0  0  0  0  0
   15.7250   -9.7545   12.8451 C   0  0  0  0  0  0  0  0  0  0  0  0
   15.5343   -9.8692   11.3343 C   0  0  0  0  0  0  0  0  0  0  0  0
   16.7906   -9.6283   10.6174 N   0  0  0  0  0  0  0  0  0  0  0  0
   18.0129   -9.3113   11.3544 C   0  0  0  0  0  0  0  0  0  0  0  0
   18.2159  -10.3061   12.4981 C   0  0  0  0  0  0  0  0  0  0  0  0
   16.8153   -9.6521    9.1851 C   0  0  0  0  0  0  0  0  0  0  0  0
   15.7596   -9.9011    8.5392 O   0  0  0  0  0  0  0  0  0  0  0  0
   18.0115   -9.3963    8.5062 O   0  0  0  0  0  0  0  0  0  0  0  0
   18.2552   -8.1746    7.8203 C   0  0  0  0  0  0  0  0  0  0  0  0
   19.3775   -7.4285    8.5102 C   0  0  0  0  0  0  0  0  0  0  0  0
   18.6552   -8.4551    6.3839 C   0  0  0  0  0  0  0  0  0  0  0  0
 18 19  2  0  0  0
 18 10  1  0  0  0
 10 11  2  0  0  0
 11 12  1  0  0  0
 12 13  2  0  0  0
 13  1  1  0  0  0
  1  2  2  0  0  0
  2  3  1  0  0  0
  3  4  2  0  0  0
  4  5  1  0  0  0
  5  6  2  0  0  0
  4  7  1  0  0  0
  7  8  1  0  0  0
  8  9  2  0  0  0
  7 26  1  0  0  0
 26 27  1  0  0  0
 27 28  1  0  0  0
 28 29  1  0  0  0
 29 30  1  0  0  0
 30 31  1  0  0  0
 29 32  1  0  0  0
 32 33  2  0  0  0
 32 34  1  0  0  0
 34 35  1  0  0  0
 35 36  1  0  0  0
 35 37  1  0  0  0
 13 14  1  0  0  0
 14 15  2  0  0  0
 14 16  1  0  0  0
 11 17  1  0  0  0
 18 20  1  0  0  0
 20 22  1  0  0  0
 22 23  1  0  0  0
 23 24  1  0  0  0
 15 10  1  0  0  0
  6  1  1  0  0  0
 31 26  1  0  0  0
  9  3  1  0  0  0
 20 21  1  0  0  0
 24 25  1  0  0  0
M  END
>  <minimizedAffinity>
-7.20582

>  <minimizedRMSD>
1.67897

$$$$
CHEMBL1573697 25390470 CSC026461306 MCULE-8214461934 MolPort-004-029-476 PubChem-3604468 ZINC000025390470 ZINC25390470


 29 32  0  0  0  0  0  0  0  0999 V2000
   15.6287   -8.0435   17.0093 N   0  0  0  0  0  0  0  0  0  0  0  0
   15.2402   -7.9240   15.6099 C   0  0  0  0  0  0  0  0  0  0  0  0
   16.4825   -7.6883   14.7482 C   0  0  0  0  0  0  0  0  0  0  0  0
   17.4855   -8.7511   14.9156 N   0  0  0  0  0  0  0  0  0  0  0  0
   17.7504   -9.0516   16.3308 C   0  0  0  0  0  0  0  0  0  0  0  0
   16.4612   -9.2342   17.1354 C   0  0  0  0  0  0  0  0  0  0  0  0
   17.0119  -10.1917   14.0570 S   0  0  0  0  0  0  0  0  0  0  0  0
   15.6069  -10.5894   14.4185 O   0  0  0  0  0  0  0  0  0  0  0  0
   17.9379  -11.3199   14.4171 O   0  0  0  0  0  0  0  0  0  0  0  0
   17.1101   -9.9044   12.3280 C   0  0  0  0  0  0  0  0  0  0  0  0
   15.9658  -10.0122   11.5291 C   0  0  0  0  0  0  0  0  0  0  0  0
   16.0449   -9.7691   10.1547 C   0  0  0  0  0  0  0  0  0  0  0  0
   17.2679   -9.4151    9.5770 C   0  0  0  0  0  0  0  0  0  0  0  0
   17.3670   -9.1106    7.8566 Cl  0  0  0  0  0  0  0  0  0  0  0  0
   18.4113   -9.3029   10.3736 C   0  0  0  0  0  0  0  0  0  0  0  0
   18.3321   -9.5460   11.7481 C   0  0  0  0  0  0  0  0  0  0  0  0
   14.4100   -8.2954   17.7605 C   0  0  0  0  0  0  0  0  0  0  0  0
   14.5337   -5.1623   22.5178 O   0  0  0  0  0  0  0  0  0  0  0  0
   14.4782   -5.9162   21.3515 C   0  0  0  0  0  0  0  0  0  0  0  0
   13.4574   -5.7044   20.4143 C   0  0  0  0  0  0  0  0  0  0  0  0
   12.5082   -4.7533   20.6353 N   0  0  0  0  0  0  0  0  0  0  0  0
   11.5064   -4.5212   19.7457 C   0  0  0  0  0  0  0  0  0  0  0  0
   11.4270   -5.2645   18.5669 C   0  0  0  0  0  0  0  0  0  0  0  0
   12.3844   -6.2464   18.3118 C   0  0  0  0  0  0  0  0  0  0  0  0
   13.4144   -6.4814   19.2318 C   0  0  0  0  0  0  0  0  0  0  0  0
   14.3965   -7.4660   19.0059 C   0  0  0  0  0  0  0  0  0  0  0  0
   15.4111   -7.6583   19.9492 C   0  0  0  0  0  0  0  0  0  0  0  0
   15.4506   -6.8905   21.1153 C   0  0  0  0  0  0  0  0  0  0  0  0
   13.8849   -4.5068   22.6834 H   0  0  0  0  0  0  0  0  0  0  0  0
 18 19  1  0  0  0
 19 20  2  0  0  0
 20 21  1  0  0  0
 21 22  2  0  0  0
 22 23  1  0  0  0
 23 24  2  0  0  0
 24 25  1  0  0  0
 25 26  2  0  0  0
 25 20  1  0  0  0
 26 17  1  0  0  0
 26 27  1  0  0  0
 17  1  1  0  0  0
  1  2  1  0  0  0
  2  3  1  0  0  0
  3  4  1  0  0  0
  4  5  1  0  0  0
  4  7  1  0  0  0
  5  6  1  0  0  0
  6  1  1  0  0  0
  7  8  2  0  0  0
  7  9  2  0  0  0
  7 10  1  0  0  0
 10 11  2  0  0  0
 11 12  1  0  0  0
 12 13  2  0  0  0
 13 14  1  0  0  0
 13 15  1  0  0  0
 15 16  2  0  0  0
 16 10  1  0  0  0
 27 28  2  0  0  0
 28 19  1  0  0  0
 18 29  1  0  0  0
M  END
>  <minimizedAffinity>
-7.20290

>  <minimizedRMSD>
1.60867

$$$$
CHEMBL1519515 CHEMBL1623070 20323332 MCULE-3454915791 MCULE-6032451330 MolPort-002-124-500 MolPort-002-263-365 PubChem-2949081 PubChem-2949082 ZINC000020323332


 29 31  0  0  0  0  0  0  0  0999 V2000
   16.4191   -8.3519   16.7207 N   0  0  0  0  0  0  0  0  0  0  0  0
   16.7006   -7.5798   15.5005 C   0  0  0  0  0  0  0  0  0  0  0  0
   16.2597   -8.3241   14.2362 C   0  0  0  0  0  0  0  0  0  0  0  0
   16.9311   -9.6166   14.1683 N   0  0  0  0  0  0  0  0  0  0  0  0
   16.4948  -10.4059   15.3159 C   0  0  0  0  0  0  0  0  0  0  0  0
   16.9394   -9.7220   16.6135 C   0  0  0  0  0  0  0  0  0  0  0  0
   14.9785   -8.3991   16.9620 C   0  0  0  0  0  0  0  0  0  0  0  0
   14.1044   -6.5461   20.7428 C   0  0  0  0  0  0  0  0  0  0  0  0
   15.3372   -7.1541   20.5049 C   0  0  0  0  0  0  0  0  0  0  0  0
   15.6117   -7.7439   19.2755 C   0  0  0  0  0  0  0  0  0  0  0  0
   14.6489   -7.7482   18.2671 C   0  0  0  0  0  0  0  0  0  0  0  0
   13.4054   -7.1215   18.4649 C   0  0  0  0  0  0  0  0  0  0  0  0
   13.1474   -6.4656   19.6977 C   0  0  0  0  0  0  0  0  0  0  0  0
   12.5763   -6.0628   22.6264 C   0  0  0  0  0  0  0  0  0  0  0  0
   13.8664   -6.0567   22.0310 O   0  0  0  0  0  0  0  0  0  0  0  0
   12.4814   -7.1574   17.4053 O   0  0  0  0  0  0  0  0  0  0  0  0
   11.1530   -7.6521   17.4963 C   0  0  0  0  0  0  0  0  0  0  0  0
   11.9750   -5.7181   19.8487 O   0  0  0  0  0  0  0  0  0  0  0  0
   11.8167   -4.4318   19.2659 C   0  0  0  0  0  0  0  0  0  0  0  0
   16.4333  -10.2837   12.9760 C   0  0  0  0  0  0  0  0  0  0  0  0
   17.0244   -9.6459   11.7304 C   0  0  0  0  0  0  0  0  0  0  0  0
   16.0896  -10.1596   10.2579 S   0  0  0  0  0  0  0  0  0  0  0  0
   17.2078   -9.3116    9.1514 C   0  0  0  0  0  0  0  0  0  0  0  0
   18.1691   -8.4344    9.6652 C   0  0  0  0  0  0  0  0  0  0  0  0
   19.0400   -7.7662    8.7991 C   0  0  0  0  0  0  0  0  0  0  0  0
   18.9487   -7.9728    7.4190 C   0  0  0  0  0  0  0  0  0  0  0  0
   19.8745   -7.2627    6.4989 C   0  0  0  0  0  0  0  0  0  0  0  0
   17.9853   -8.8462    6.9047 C   0  0  0  0  0  0  0  0  0  0  0  0
   17.1143   -9.5148    7.7704 C   0  0  0  0  0  0  0  0  0  0  0  0
 14 15  1  0  0  0
 15  8  1  0  0  0
  8  9  2  0  0  0
  9 10  1  0  0  0
 10 11  2  0  0  0
 11  7  1  0  0  0
 11 12  1  0  0  0
  7  1  1  0  0  0
  1  2  1  0  0  0
  2  3  1  0  0  0
  3  4  1  0  0  0
  4 20  1  0  0  0
  4  5  1  0  0  0
 20 21  1  0  0  0
 21 22  1  0  0  0
 22 23  1  0  0  0
 23 24  2  0  0  0
 24 25  1  0  0  0
 25 26  2  0  0  0
 26 27  1  0  0  0
 26 28  1  0  0  0
 28 29  2  0  0  0
 29 23  1  0  0  0
  5  6  1  0  0  0
  6  1  1  0  0  0
 12 16  1  0  0  0
 12 13  2  0  0  0
 16 17  1  0  0  0
 13 18  1  0  0  0
 13  8  1  0  0  0
 18 19  1  0  0  0
M  END
>  <minimizedAffinity>
-7.20144

>  <minimizedRMSD>
1.70825

$$$$
CHEMBL4549776 PubChem-135334948


 33 37  0  0  0  0  0  0  0  0999 V2000
   15.5259   -8.2075   17.6150 C   0  0  0  0  0  0  0  0  0  0  0  0
   16.4208   -9.2723   17.7123 C   0  0  0  0  0  0  0  0  0  0  0  0
   16.7804   -9.5584   16.4537 N   0  0  0  0  0  0  0  0  0  0  0  0
   17.6315  -10.5110   16.0041 C   0  0  0  0  0  0  0  0  0  0  0  0
   17.8408  -10.6064   14.6213 C   0  0  0  0  0  0  0  0  0  0  0  0
   17.1729   -9.7244   13.7385 C   0  0  0  0  0  0  0  0  0  0  0  0
   16.2983   -8.7515   14.2690 C   0  0  0  0  0  0  0  0  0  0  0  0
   16.1311   -8.7057   15.6499 C   0  0  0  0  0  0  0  0  0  0  0  0
   15.3415   -7.8487   16.3191 N   0  0  0  0  0  0  0  0  0  0  0  0
   17.3863   -9.8156   12.3163 N   0  0  0  0  0  0  0  0  0  0  0  0
   16.6491  -10.8021   11.5223 C   0  0  0  0  0  0  0  0  0  0  0  0
   16.1208  -10.1562   10.2424 C   0  0  0  0  0  0  0  0  0  0  0  0
   17.1501   -9.3449    9.5818 N   0  0  0  0  0  0  0  0  0  0  0  0
   18.4879   -9.2531   10.1693 C   0  0  0  0  0  0  0  0  0  0  0  0
   18.3830   -8.9560   11.6636 C   0  0  0  0  0  0  0  0  0  0  0  0
   16.8324   -8.6871    8.3391 C   0  0  0  0  0  0  0  0  0  0  0  0
   15.6875   -8.8311    7.8323 O   0  0  0  0  0  0  0  0  0  0  0  0
   17.8148   -7.8174    7.6088 C   0  0  0  0  0  0  0  0  0  0  0  0
   19.0332   -7.4844    8.4509 C   0  0  0  0  0  0  0  0  0  0  0  0
   20.2426   -7.6683    7.5506 C   0  0  0  0  0  0  0  0  0  0  0  0
   19.7125   -7.9115    6.1512 C   0  0  0  0  0  0  0  0  0  0  0  0
   18.3154   -8.4572    6.3325 C   0  0  0  0  0  0  0  0  0  0  0  0
   13.5220   -7.1033   18.7100 C   0  0  0  0  0  0  0  0  0  0  0  0
   12.9540   -6.4884   19.8379 C   0  0  0  0  0  0  0  0  0  0  0  0
   13.6915   -6.3107   21.0167 C   0  0  0  0  0  0  0  0  0  0  0  0
   15.0178   -6.7560   21.0654 C   0  0  0  0  0  0  0  0  0  0  0  0
   15.5912   -7.3681   19.9500 C   0  0  0  0  0  0  0  0  0  0  0  0
   14.8614   -7.5505   18.7659 C   0  0  0  0  0  0  0  0  0  0  0  0
   15.9825   -6.5569   22.5171 Cl  0  0  0  0  0  0  0  0  0  0  0  0
   11.3512   -7.3807   17.5444 C   0  0  0  0  0  0  0  0  0  0  0  0
   12.7684   -7.2714   17.5418 O   0  0  0  0  0  0  0  0  0  0  0  0
   13.1262   -5.6982   22.1407 O   0  0  0  0  0  0  0  0  0  0  0  0
   11.7988   -5.1908   22.1544 C   0  0  0  0  0  0  0  0  0  0  0  0
 30 31  1  0  0  0
 31 23  1  0  0  0
 23 24  2  0  0  0
 24 25  1  0  0  0
 25 26  2  0  0  0
 26 27  1  0  0  0
 27 28  2  0  0  0
 28  1  1  0  0  0
  1  2  2  0  0  0
  2  3  1  0  0  0
  3  4  1  0  0  0
  4  5  2  0  0  0
  5  6  1  0  0  0
  6  7  2  0  0  0
  7  8  1  0  0  0
  8  9  2  0  0  0
  6 10  1  0  0  0
 10 11  1  0  0  0
 11 12  1  0  0  0
 12 13  1  0  0  0
 13 14  1  0  0  0
 14 15  1  0  0  0
 13 16  1  0  0  0
 16 17  2  0  0  0
 16 18  1  0  0  0
 18 19  1  0  0  0
 19 20  1  0  0  0
 20 21  1  0  0  0
 21 22  1  0  0  0
 26 29  1  0  0  0
 25 32  1  0  0  0
 32 33  1  0  0  0
 28 23  1  0  0  0
  9  1  1  0  0  0
  8  3  1  0  0  0
 15 10  1  0  0  0
 22 18  1  0  0  0
M  END
>  <minimizedAffinity>
-7.19757

>  <minimizedRMSD>
1.66982

$$$$
CHEMBL1972015 MCULE-3525229068 MolPort-002-869-940 PubChem-5815372 ZINC01390359


 29 31  0  0  0  0  0  0  0  0999 V2000
   14.7399   -7.5314   19.9554 C   0  0  0  0  0  0  0  0  0  0  0  0
   15.0753   -8.0522   21.2083 C   0  0  0  0  0  0  0  0  0  0  0  0
   14.0741   -7.2893   22.3283 S   0  0  0  0  0  0  0  0  0  0  0  0
   13.2787   -6.3527   21.1859 C   0  0  0  0  0  0  0  0  0  0  0  0
   13.7501   -6.5968   19.9473 N   0  0  0  0  0  0  0  0  0  0  0  0
   12.2310   -5.4166   21.4870 N   0  0  0  0  0  0  0  0  0  0  0  0
   11.9251   -5.0724   22.7259 N   0  0  0  0  0  0  0  0  0  0  0  0
   10.9132   -4.1908   22.6597 C   0  0  0  0  0  0  0  0  0  0  0  0
   10.2836   -3.5684   23.8534 C   0  0  0  0  0  0  0  0  0  0  0  0
   10.5441   -3.9488   21.3500 C   0  0  0  0  0  0  0  0  0  0  0  0
   11.4144   -4.7544   20.6312 C   0  0  0  0  0  0  0  0  0  0  0  0
   11.4264   -4.8580   19.1311 C   0  0  0  0  0  0  0  0  0  0  0  0
   10.5142   -3.9744   18.5807 F   0  0  0  0  0  0  0  0  0  0  0  0
   12.6846   -4.5474   18.6493 F   0  0  0  0  0  0  0  0  0  0  0  0
   11.0827   -6.1407   18.7467 F   0  0  0  0  0  0  0  0  0  0  0  0
   14.8761   -7.5205   17.4516 N   0  0  0  0  0  0  0  0  0  0  0  0
   15.4023   -7.9566   18.7153 C   0  0  0  0  0  0  0  0  0  0  0  0
   16.4215   -8.6964   18.7721 O   0  0  0  0  0  0  0  0  0  0  0  0
   14.0808   -6.9408   17.4729 H   0  0  0  0  0  0  0  0  0  0  0  0
   16.0309   -8.9515   15.9374 C   0  0  0  0  0  0  0  0  0  0  0  0
   15.3972   -7.8489   16.1852 N   0  0  0  0  0  0  0  0  0  0  0  0
   17.6037   -9.8399   12.0620 C   0  0  0  0  0  0  0  0  0  0  0  0
   16.3764   -9.1799   12.1815 C   0  0  0  0  0  0  0  0  0  0  0  0
   15.8534   -8.8850   13.4438 C   0  0  0  0  0  0  0  0  0  0  0  0
   16.5562   -9.2492   14.6012 C   0  0  0  0  0  0  0  0  0  0  0  0
   17.7833   -9.9088   14.4847 C   0  0  0  0  0  0  0  0  0  0  0  0
   18.3062  -10.2038   13.2225 C   0  0  0  0  0  0  0  0  0  0  0  0
   18.1734   -9.1412    9.7586 C   0  0  0  0  0  0  0  0  0  0  0  0
   18.1000  -10.1202   10.7860 O   0  0  0  0  0  0  0  0  0  0  0  0
 28 29  1  0  0  0
 29 22  1  0  0  0
 22 23  2  0  0  0
 23 24  1  0  0  0
 24 25  2  0  0  0
 25 20  1  0  0  0
 25 26  1  0  0  0
 20 21  2  0  0  0
 21 16  1  0  0  0
 16 17  1  0  0  0
 17 18  2  0  0  0
 17  1  1  0  0  0
  1  2  2  0  0  0
  2  3  1  0  0  0
  3  4  1  0  0  0
  4  5  2  0  0  0
  4  6  1  0  0  0
  5  1  1  0  0  0
  6  7  1  0  0  0
  7  8  2  0  0  0
  8  9  1  0  0  0
  8 10  1  0  0  0
 10 11  2  0  0  0
 11 12  1  0  0  0
 11  6  1  0  0  0
 12 13  1  0  0  0
 12 14  1  0  0  0
 12 15  1  0  0  0
 26 27  2  0  0  0
 27 22  1  0  0  0
 16 19  1  0  0  0
M  END
>  <minimizedAffinity>
-7.19087

>  <minimizedRMSD>
1.51342

$$$$
CHEMBL260838 PubChem-24853730


 33 36  0  0  0  0  0  0  0  0999 V2000
   15.8933   -8.5150   17.1643 C   0  0  0  0  0  0  0  0  0  0  0  0
   16.9866   -9.3556   17.4219 C   0  0  0  0  0  0  0  0  0  0  0  0
   17.7008   -9.9073   16.3583 C   0  0  0  0  0  0  0  0  0  0  0  0
   17.3251   -9.6210   15.0430 C   0  0  0  0  0  0  0  0  0  0  0  0
   16.2263   -8.7760   14.8181 C   0  0  0  0  0  0  0  0  0  0  0  0
   15.5454   -8.2500   15.8728 N   0  0  0  0  0  0  0  0  0  0  0  0
   15.8227   -8.4684   13.4346 C   0  0  0  0  0  0  0  0  0  0  0  0
   14.8411   -7.7137   13.2058 O   0  0  0  0  0  0  0  0  0  0  0  0
   16.5757   -9.0501   12.3104 C   0  0  0  0  0  0  0  0  0  0  0  0
   17.6274   -9.8588   12.5130 C   0  0  0  0  0  0  0  0  0  0  0  0
   18.0583  -10.1875   13.8909 C   0  0  0  0  0  0  0  0  0  0  0  0
   19.0469  -10.9477   14.0765 O   0  0  0  0  0  0  0  0  0  0  0  0
   13.0692   -6.8875   19.0934 C   0  0  0  0  0  0  0  0  0  0  0  0
   13.8191   -7.4569   18.0547 C   0  0  0  0  0  0  0  0  0  0  0  0
   15.1198   -7.9175   18.2738 C   0  0  0  0  0  0  0  0  0  0  0  0
   15.6697   -7.8020   19.5550 C   0  0  0  0  0  0  0  0  0  0  0  0
   14.9421   -7.2361   20.6137 C   0  0  0  0  0  0  0  0  0  0  0  0
   13.6227   -6.7720   20.3797 C   0  0  0  0  0  0  0  0  0  0  0  0
   10.6995   -7.2869   18.4921 C   0  0  0  0  0  0  0  0  0  0  0  0
   11.7664   -6.4272   18.8699 O   0  0  0  0  0  0  0  0  0  0  0  0
   15.5205   -7.1346   21.8843 O   0  0  0  0  0  0  0  0  0  0  0  0
   16.7477   -6.4587   22.1258 C   0  0  0  0  0  0  0  0  0  0  0  0
   12.8201   -6.1923   21.3770 O   0  0  0  0  0  0  0  0  0  0  0  0
   12.9198   -4.8488   21.8267 C   0  0  0  0  0  0  0  0  0  0  0  0
   18.3454  -10.4135   11.4053 N   0  0  0  0  0  0  0  0  0  0  0  0
   19.2784  -10.6941   11.5467 H   0  0  0  0  0  0  0  0  0  0  0  0
   17.7661  -10.5837   10.0802 C   0  0  0  0  0  0  0  0  0  0  0  0
   18.1373   -9.4298    9.2178 C   0  0  0  0  0  0  0  0  0  0  0  0
   17.6136   -9.3255    7.9243 C   0  0  0  0  0  0  0  0  0  0  0  0
   17.9799   -8.2526    7.1056 C   0  0  0  0  0  0  0  0  0  0  0  0
   18.8740   -7.2866    7.5773 C   0  0  0  0  0  0  0  0  0  0  0  0
   19.4038   -7.3941    8.8671 C   0  0  0  0  0  0  0  0  0  0  0  0
   19.0377   -8.4667    9.6861 C   0  0  0  0  0  0  0  0  0  0  0  0
 19 20  1  0  0  0
 20 13  1  0  0  0
 13 14  2  0  0  0
 14 15  1  0  0  0
 15  1  1  0  0  0
 15 16  2  0  0  0
  1  2  2  0  0  0
  2  3  1  0  0  0
  3  4  2  0  0  0
  4  5  1  0  0  0
  5  6  2  0  0  0
  5  7  1  0  0  0
  6  1  1  0  0  0
  7  8  2  0  0  0
  7  9  1  0  0  0
  9 10  2  0  0  0
 10 25  1  0  0  0
 10 11  1  0  0  0
 25 27  1  0  0  0
 27 28  1  0  0  0
 28 29  2  0  0  0
 29 30  1  0  0  0
 30 31  2  0  0  0
 31 32  1  0  0  0
 32 33  2  0  0  0
 33 28  1  0  0  0
 11 12  2  0  0  0
 11  4  1  0  0  0
 16 17  1  0  0  0
 17 21  1  0  0  0
 17 18  2  0  0  0
 21 22  1  0  0  0
 18 23  1  0  0  0
 18 13  1  0  0  0
 23 24  1  0  0  0
 25 26  1  0  0  0
M  END
>  <minimizedAffinity>
-7.16543

>  <minimizedRMSD>
1.81873

$$$$
CHEMBL4552070 CHEMBL4596481 PubChem-135335009 PubChem-135335427 PubChem-154699407


 29 32  0  0  0  0  0  0  0  0999 V2000
   17.0369   -9.8175   13.3280 C   0  0  0  0  0  0  0  0  0  0  0  0
   16.1469   -8.8902   13.9115 C   0  0  0  0  0  0  0  0  0  0  0  0
   16.0925   -8.8213   15.3006 C   0  0  0  0  0  0  0  0  0  0  0  0
   15.3067   -8.0003   16.0178 N   0  0  0  0  0  0  0  0  0  0  0  0
   15.6213   -8.3147   17.3001 C   0  0  0  0  0  0  0  0  0  0  0  0
   16.5892   -9.3177   17.3415 C   0  0  0  0  0  0  0  0  0  0  0  0
   16.8609   -9.6109   16.0627 N   0  0  0  0  0  0  0  0  0  0  0  0
   17.7320  -10.5184   15.5611 C   0  0  0  0  0  0  0  0  0  0  0  0
   17.8315  -10.6340   14.1675 C   0  0  0  0  0  0  0  0  0  0  0  0
   15.0132   -7.6736   18.4902 C   0  0  0  0  0  0  0  0  0  0  0  0
   15.8084   -7.4775   19.6292 C   0  0  0  0  0  0  0  0  0  0  0  0
   15.2899   -6.8792   20.7783 C   0  0  0  0  0  0  0  0  0  0  0  0
   13.9540   -6.4621   20.8102 C   0  0  0  0  0  0  0  0  0  0  0  0
   13.1513   -6.6538   19.6771 C   0  0  0  0  0  0  0  0  0  0  0  0
   13.6636   -7.2548   18.5157 C   0  0  0  0  0  0  0  0  0  0  0  0
   16.3352   -6.6617   22.1704 Cl  0  0  0  0  0  0  0  0  0  0  0  0
   12.8453   -7.4373   17.3941 O   0  0  0  0  0  0  0  0  0  0  0  0
   11.4265   -7.4768   17.4700 C   0  0  0  0  0  0  0  0  0  0  0  0
   13.4441   -5.8634   21.9676 O   0  0  0  0  0  0  0  0  0  0  0  0
   12.0855   -5.4656   22.0935 C   0  0  0  0  0  0  0  0  0  0  0  0
   16.7331   -8.9072    9.2903 C   0  0  0  0  0  0  0  0  0  0  0  0
   15.5837   -9.6308   10.0110 C   0  0  0  0  0  0  0  0  0  0  0  0
   16.0598  -10.5638   11.1269 C   0  0  0  0  0  0  0  0  0  0  0  0
   17.1348   -9.9316   11.8952 N   0  0  0  0  0  0  0  0  0  0  0  0
   18.2964   -9.3807   11.1847 C   0  0  0  0  0  0  0  0  0  0  0  0
   18.1117   -9.4520    9.6696 C   0  0  0  0  0  0  0  0  0  0  0  0
   17.8543   -8.9017    7.2393 C   0  0  0  0  0  0  0  0  0  0  0  0
   16.5412   -8.9986    7.8531 N   0  0  0  0  0  0  0  0  0  0  0  0
   16.1083   -9.8907    7.6141 H   0  0  0  0  0  0  0  0  0  0  0  0
 27 28  1  0  0  0
 28 21  1  0  0  0
 21 22  1  0  0  0
 22 23  1  0  0  0
 23 24  1  0  0  0
 24 25  1  0  0  0
 25 26  1  0  0  0
 24  1  1  0  0  0
  1  2  2  0  0  0
  2  3  1  0  0  0
  3  4  2  0  0  0
  4  5  1  0  0  0
  5  6  2  0  0  0
  6  7  1  0  0  0
  7  8  1  0  0  0
  8  9  2  0  0  0
  5 10  1  0  0  0
 10 11  2  0  0  0
 11 12  1  0  0  0
 12 13  2  0  0  0
 13 14  1  0  0  0
 14 15  2  0  0  0
 15 17  1  0  0  0
 17 18  1  0  0  0
 13 19  1  0  0  0
 19 20  1  0  0  0
 12 16  1  0  0  0
 26 21  1  0  0  0
  9  1  1  0  0  0
  7  3  1  0  0  0
 15 10  1  0  0  0
 28 29  1  0  0  0
M  END
>  <minimizedAffinity>
-7.16281

>  <minimizedRMSD>
1.31800

$$$$
CHEMBL1902696 PubChem-49790941


 31 33  0  0  0  0  0  0  0  0999 V2000
   15.2689   -8.0370   17.1794 C   0  0  0  0  0  0  0  0  0  0  0  0
   14.2599   -7.3175   16.9484 O   0  0  0  0  0  0  0  0  0  0  0  0
   15.8204   -8.1317   18.5004 N   0  0  0  0  0  0  0  0  0  0  0  0
   16.6084   -8.7118   18.6088 H   0  0  0  0  0  0  0  0  0  0  0  0
   16.5806   -9.4549   14.1446 C   0  0  0  0  0  0  0  0  0  0  0  0
   15.8649   -8.4331   14.7491 C   0  0  0  0  0  0  0  0  0  0  0  0
   15.8904   -8.7896   16.0843 C   0  0  0  0  0  0  0  0  0  0  0  0
   16.5701   -9.9363   16.2578 N   0  0  0  0  0  0  0  0  0  0  0  0
   16.9916  -10.3425   15.0733 N   0  0  0  0  0  0  0  0  0  0  0  0
   16.7262  -10.3928   17.1160 H   0  0  0  0  0  0  0  0  0  0  0  0
   17.6172   -9.8490    9.9812 C   0  0  0  0  0  0  0  0  0  0  0  0
   18.5819   -9.5771   10.9508 C   0  0  0  0  0  0  0  0  0  0  0  0
   18.2164   -9.4548   12.2921 C   0  0  0  0  0  0  0  0  0  0  0  0
   16.8804   -9.6010   12.6968 C   0  0  0  0  0  0  0  0  0  0  0  0
   15.9000   -9.8776   11.7091 C   0  0  0  0  0  0  0  0  0  0  0  0
   14.4532  -10.0522   12.0249 C   0  0  0  0  0  0  0  0  0  0  0  0
   16.2783   -9.9980   10.3681 C   0  0  0  0  0  0  0  0  0  0  0  0
   17.3790   -9.2536    7.5923 C   0  0  0  0  0  0  0  0  0  0  0  0
   18.0127   -9.9661    8.6459 O   0  0  0  0  0  0  0  0  0  0  0  0
   15.3435   -7.4694   19.6795 C   0  0  0  0  0  0  0  0  0  0  0  0
   13.9815   -7.2585   19.9118 C   0  0  0  0  0  0  0  0  0  0  0  0
   13.5336   -6.6082   21.0723 C   0  0  0  0  0  0  0  0  0  0  0  0
   14.4823   -6.1576   22.0253 C   0  0  0  0  0  0  0  0  0  0  0  0
   15.8512   -6.3710   21.7892 C   0  0  0  0  0  0  0  0  0  0  0  0
   16.2691   -7.0240   20.6204 C   0  0  0  0  0  0  0  0  0  0  0  0
   12.1633   -6.4105   21.2787 O   0  0  0  0  0  0  0  0  0  0  0  0
   11.4404   -5.3306   20.7022 C   0  0  0  0  0  0  0  0  0  0  0  0
   14.1283   -5.4978   23.2145 O   0  0  0  0  0  0  0  0  0  0  0  0
   13.8436   -4.1106   23.3246 C   0  0  0  0  0  0  0  0  0  0  0  0
   16.7819   -5.9237   22.7342 O   0  0  0  0  0  0  0  0  0  0  0  0
   18.1126   -6.4186   22.7999 C   0  0  0  0  0  0  0  0  0  0  0  0
 18 19  1  0  0  0
 19 11  1  0  0  0
 11 12  2  0  0  0
 12 13  1  0  0  0
 13 14  2  0  0  0
 14  5  1  0  0  0
 14 15  1  0  0  0
  5  6  1  0  0  0
  6  7  2  0  0  0
  7  1  1  0  0  0
  7  8  1  0  0  0
  1  2  2  0  0  0
  1  3  1  0  0  0
  3 20  1  0  0  0
 20 21  2  0  0  0
 21 22  1  0  0  0
 22 26  1  0  0  0
 22 23  2  0  0  0
 26 27  1  0  0  0
 23 28  1  0  0  0
 23 24  1  0  0  0
 28 29  1  0  0  0
 24 30  1  0  0  0
 24 25  2  0  0  0
 30 31  1  0  0  0
 25 20  1  0  0  0
  8  9  1  0  0  0
  9  5  2  0  0  0
 15 16  1  0  0  0
 15 17  2  0  0  0
 17 11  1  0  0  0
  3  4  1  0  0  0
  8 10  1  0  0  0
M  END
>  <minimizedAffinity>
-7.14989

>  <minimizedRMSD>
1.71942

$$$$
CHEMBL5179463


 33 36  0  0  0  0  0  0  0  0999 V2000
   15.8000   -8.9037   17.0644 N   0  0  0  0  0  0  0  0  0  0  0  0
   15.9519   -8.2415   15.7916 C   0  0  0  0  0  0  0  0  0  0  0  0
   15.7704   -6.9964   15.6928 O   0  0  0  0  0  0  0  0  0  0  0  0
   16.3553  -10.2438   17.2256 C   0  0  0  0  0  0  0  0  0  0  0  0
   13.8285   -7.1229   20.3990 C   0  0  0  0  0  0  0  0  0  0  0  0
   15.1877   -7.4420   20.4678 C   0  0  0  0  0  0  0  0  0  0  0  0
   15.8322   -8.0220   19.3730 C   0  0  0  0  0  0  0  0  0  0  0  0
   15.1308   -8.2856   18.1854 C   0  0  0  0  0  0  0  0  0  0  0  0
   13.7648   -7.9649   18.1251 C   0  0  0  0  0  0  0  0  0  0  0  0
   13.1127   -7.3834   19.2162 C   0  0  0  0  0  0  0  0  0  0  0  0
   11.6621   -7.0595   19.0940 C   0  0  0  0  0  0  0  0  0  0  0  0
   13.1777   -6.4809   21.5823 C   0  0  0  0  0  0  0  0  0  0  0  0
   12.9486   -4.8689   24.1351 C   0  0  0  0  0  0  0  0  0  0  0  0
   11.6279   -4.7165   23.5225 N   0  0  0  0  0  0  0  0  0  0  0  0
   11.7038   -3.6905   22.4926 C   0  0  0  0  0  0  0  0  0  0  0  0
   12.5465   -4.1996   21.3180 C   0  0  0  0  0  0  0  0  0  0  0  0
   13.6368   -5.1028   21.7213 N   0  0  0  0  0  0  0  0  0  0  0  0
   14.0935   -4.8682   23.1005 C   0  0  0  0  0  0  0  0  0  0  0  0
   10.9503   -4.4396   24.2329 H   0  0  0  0  0  0  0  0  0  0  0  0
   16.3543   -9.0177   14.5738 C   0  0  0  0  0  0  0  0  0  0  0  0
   15.7694   -8.3802   13.3135 C   0  0  0  0  0  0  0  0  0  0  0  0
   16.1797   -9.1794   12.0801 C   0  0  0  0  0  0  0  0  0  0  0  0
   17.7009   -9.2489   11.9796 C   0  0  0  0  0  0  0  0  0  0  0  0
   18.2754   -9.9060   13.2355 C   0  0  0  0  0  0  0  0  0  0  0  0
   17.8768   -9.1103   14.4748 C   0  0  0  0  0  0  0  0  0  0  0  0
   18.0638  -10.0004   10.8269 O   0  0  0  0  0  0  0  0  0  0  0  0
   18.1701   -9.4398    9.5494 C   0  0  0  0  0  0  0  0  0  0  0  0
   18.9820   -8.3206    9.3005 C   0  0  0  0  0  0  0  0  0  0  0  0
   19.0645   -7.7824    8.0130 C   0  0  0  0  0  0  0  0  0  0  0  0
   18.3366   -8.3576    6.9678 C   0  0  0  0  0  0  0  0  0  0  0  0
   17.5262   -9.4704    7.2101 C   0  0  0  0  0  0  0  0  0  0  0  0
   17.4437  -10.0088    8.4978 C   0  0  0  0  0  0  0  0  0  0  0  0
   18.4159   -7.8363    5.7203 F   0  0  0  0  0  0  0  0  0  0  0  0
 13 14  1  0  0  0
 14 15  1  0  0  0
 15 16  1  0  0  0
 16 17  1  0  0  0
 17 18  1  0  0  0
 17 12  1  0  0  0
 12  5  1  0  0  0
  5  6  2  0  0  0
  6  7  1  0  0  0
  7  8  2  0  0  0
  8  9  1  0  0  0
  9 10  2  0  0  0
 10 11  1  0  0  0
  8  1  1  0  0  0
  1  2  1  0  0  0
  2  3  2  0  0  0
 20  2  1  0  0  0
 20 21  1  0  0  0
 21 22  1  0  0  0
 22 23  1  0  0  0
 23 24  1  0  0  0
 24 25  1  0  0  0
 23 26  1  0  0  0
 26 27  1  0  0  0
 27 28  2  0  0  0
 28 29  1  0  0  0
 29 30  2  0  0  0
 30 31  1  0  0  0
 31 32  2  0  0  0
 30 33  1  0  0  0
  1  4  1  0  0  0
 18 13  1  0  0  0
 10  5  1  0  0  0
 25 20  1  0  0  0
 32 27  1  0  0  0
 14 19  1  0  0  0
M  END
>  <minimizedAffinity>
-7.13379

>  <minimizedRMSD>
1.26611

$$$$
CHEMBL3885078 PubChem-134130318


 28 31  0  0  0  0  0  0  0  0999 V2000
   12.1308   -6.2743   19.7330 C   0  0  0  0  0  0  0  0  0  0  0  0
   12.7934   -6.6965   20.9084 C   0  0  0  0  0  0  0  0  0  0  0  0
   14.0112   -7.4040   20.8159 C   0  0  0  0  0  0  0  0  0  0  0  0
   14.5390   -7.6780   19.5567 C   0  0  0  0  0  0  0  0  0  0  0  0
   13.8876   -7.2657   18.4161 C   0  0  0  0  0  0  0  0  0  0  0  0
   12.6878   -6.5613   18.4696 C   0  0  0  0  0  0  0  0  0  0  0  0
   14.6554   -7.6655   17.2628 C   0  0  0  0  0  0  0  0  0  0  0  0
   14.3962   -7.3435   16.0737 O   0  0  0  0  0  0  0  0  0  0  0  0
   15.8333   -8.3951   17.7516 C   0  0  0  0  0  0  0  0  0  0  0  0
   16.8372   -8.9416   17.0548 C   0  0  0  0  0  0  0  0  0  0  0  0
   15.8173   -8.3984   19.2557 C   0  0  0  0  0  0  0  0  0  0  0  0
   16.9462   -9.0911   15.5938 C   0  0  0  0  0  0  0  0  0  0  0  0
   15.9634   -8.6101   14.7192 C   0  0  0  0  0  0  0  0  0  0  0  0
   16.0701   -8.8329   13.3441 C   0  0  0  0  0  0  0  0  0  0  0  0
   17.1518   -9.5590   12.8204 C   0  0  0  0  0  0  0  0  0  0  0  0
   18.1187  -10.0631   13.7051 C   0  0  0  0  0  0  0  0  0  0  0  0
   18.0101   -9.8386   15.0803 C   0  0  0  0  0  0  0  0  0  0  0  0
   17.2691   -9.7794   11.4020 N   0  0  0  0  0  0  0  0  0  0  0  0
   18.5489   -9.5879   10.7186 C   0  0  0  0  0  0  0  0  0  0  0  0
   18.3054   -8.9718    9.3430 C   0  0  0  0  0  0  0  0  0  0  0  0
   17.3549   -9.7900    8.5929 N   0  0  0  0  0  0  0  0  0  0  0  0
   16.0647   -9.7398    9.2773 C   0  0  0  0  0  0  0  0  0  0  0  0
   16.1782  -10.3999   10.6492 C   0  0  0  0  0  0  0  0  0  0  0  0
   17.1704   -9.1420    7.3075 C   0  0  0  0  0  0  0  0  0  0  0  0
   12.2245   -6.4006   22.1517 O   0  0  0  0  0  0  0  0  0  0  0  0
   12.7126   -5.3657   22.9942 C   0  0  0  0  0  0  0  0  0  0  0  0
   10.9256   -5.5730   19.8471 O   0  0  0  0  0  0  0  0  0  0  0  0
   10.7830   -4.2174   19.4455 C   0  0  0  0  0  0  0  0  0  0  0  0
  1  2  2  0  0  0
  2  3  1  0  0  0
  3  4  2  0  0  0
  4  5  1  0  0  0
  5  6  2  0  0  0
  5  7  1  0  0  0
  7  8  2  0  0  0
  7  9  1  0  0  0
  9 10  2  0  0  0
 10 12  1  0  0  0
 12 13  2  0  0  0
 13 14  1  0  0  0
 14 15  2  0  0  0
 15 16  1  0  0  0
 16 17  2  0  0  0
 15 18  1  0  0  0
 18 19  1  0  0  0
 19 20  1  0  0  0
 20 21  1  0  0  0
 21 22  1  0  0  0
 22 23  1  0  0  0
 21 24  1  0  0  0
  9 11  1  0  0  0
  2 25  1  0  0  0
 25 26  1  0  0  0
  1 27  1  0  0  0
 27 28  1  0  0  0
  6  1  1  0  0  0
 17 12  1  0  0  0
 23 18  1  0  0  0
 11  4  1  0  0  0
M  END
>  <minimizedAffinity>
-7.12105

>  <minimizedRMSD>
1.44710

$$$$
CHEMBL189308 PubChem-5330295


 37 40  0  0  0  0  0  0  0  0999 V2000
   15.1125   -7.8231   18.5077 C   0  0  0  0  0  0  0  0  0  0  0  0
   14.0130   -7.4278   17.8133 N   0  0  0  0  0  0  0  0  0  0  0  0
   13.0007   -6.7635   18.4252 C   0  0  0  0  0  0  0  0  0  0  0  0
   13.0723   -6.4709   19.7918 C   0  0  0  0  0  0  0  0  0  0  0  0
   12.0445   -5.7889   20.4586 C   0  0  0  0  0  0  0  0  0  0  0  0
   10.8007   -5.4097   19.7094 C   0  0  0  0  0  0  0  0  0  0  0  0
   12.1749   -5.5183   21.8379 C   0  0  0  0  0  0  0  0  0  0  0  0
   13.3357   -5.9588   22.5125 C   0  0  0  0  0  0  0  0  0  0  0  0
   13.4644   -5.7145   23.7453 O   0  0  0  0  0  0  0  0  0  0  0  0
   14.3292   -6.6330   21.8403 N   0  0  0  0  0  0  0  0  0  0  0  0
   14.2141   -6.8875   20.5003 C   0  0  0  0  0  0  0  0  0  0  0  0
   15.2018   -7.5522   19.8354 N   0  0  0  0  0  0  0  0  0  0  0  0
   15.5457   -7.0961   22.5301 C   0  0  0  0  0  0  0  0  0  0  0  0
   16.5200   -5.9669   22.8007 C   0  0  0  0  0  0  0  0  0  0  0  0
   17.2164   -6.3602   24.0826 C   0  0  0  0  0  0  0  0  0  0  0  0
   16.1986   -7.1590   24.8727 C   0  0  0  0  0  0  0  0  0  0  0  0
   15.2393   -7.7627   23.8619 C   0  0  0  0  0  0  0  0  0  0  0  0
   11.1183   -4.7907   22.5899 C   0  0  0  0  0  0  0  0  0  0  0  0
   11.0563   -3.3010   22.5959 C   0  0  0  0  0  0  0  0  0  0  0  0
   10.2751   -5.4309   23.2723 O   0  0  0  0  0  0  0  0  0  0  0  0
   16.1831   -8.5253   17.8646 N   0  0  0  0  0  0  0  0  0  0  0  0
   16.8926   -8.8828   18.4459 H   0  0  0  0  0  0  0  0  0  0  0  0
   16.5948   -9.2342   13.7215 C   0  0  0  0  0  0  0  0  0  0  0  0
   16.9162  -10.2355   14.6490 C   0  0  0  0  0  0  0  0  0  0  0  0
   16.7798  -10.0002   16.0172 C   0  0  0  0  0  0  0  0  0  0  0  0
   16.3212   -8.7576   16.4576 C   0  0  0  0  0  0  0  0  0  0  0  0
   16.0152   -7.7915   15.5476 N   0  0  0  0  0  0  0  0  0  0  0  0
   16.1411   -7.9999   14.2099 C   0  0  0  0  0  0  0  0  0  0  0  0
   16.7356   -9.4646   12.3046 N   0  0  0  0  0  0  0  0  0  0  0  0
   18.0097   -9.9166   11.7508 C   0  0  0  0  0  0  0  0  0  0  0  0
   18.3408   -9.1697   10.4674 C   0  0  0  0  0  0  0  0  0  0  0  0
   17.6631   -9.0454    8.3723 C   0  0  0  0  0  0  0  0  0  0  0  0
   18.0329   -9.9583    9.3587 O   0  0  0  0  0  0  0  0  0  0  0  0
   15.6134   -9.2701   11.3905 C   0  0  0  0  0  0  0  0  0  0  0  0
   14.5073  -10.2634   11.6974 C   0  0  0  0  0  0  0  0  0  0  0  0
   13.5025  -10.1518   10.7382 O   0  0  0  0  0  0  0  0  0  0  0  0
   12.4231  -10.8471   11.2809 C   0  0  0  0  0  0  0  0  0  0  0  0
 32 33  1  0  0  0
 33 31  1  0  0  0
 31 30  1  0  0  0
 30 29  1  0  0  0
 29 34  1  0  0  0
 29 23  1  0  0  0
 34 35  1  0  0  0
 35 36  1  0  0  0
 36 37  1  0  0  0
 23 24  2  0  0  0
 24 25  1  0  0  0
 25 26  2  0  0  0
 26 21  1  0  0  0
 26 27  1  0  0  0
 21  1  1  0  0  0
  1  2  2  0  0  0
  2  3  1  0  0  0
  3  4  2  0  0  0
  4  5  1  0  0  0
  5  6  1  0  0  0
  5  7  2  0  0  0
  7 18  1  0  0  0
  7  8  1  0  0  0
 18 19  1  0  0  0
 18 20  2  0  0  0
  8  9  2  0  0  0
  8 10  1  0  0  0
 10 13  1  0  0  0
 10 11  1  0  0  0
 13 14  1  0  0  0
 14 15  1  0  0  0
 15 16  1  0  0  0
 16 17  1  0  0  0
 17 13  1  0  0  0
 11 12  2  0  0  0
 11  4  1  0  0  0
 12  1  1  0  0  0
 27 28  2  0  0  0
 28 23  1  0  0  0
 21 22  1  0  0  0
M  END
>  <minimizedAffinity>
-7.10398

>  <minimizedRMSD>
1.52714

$$$$
CHEMBL4635563


 34 37  0  0  0  0  0  0  0  0999 V2000
   18.9001   -9.4793   14.8698 C   0  0  0  0  0  0  0  0  0  0  0  0
   17.8830   -9.7930   13.8494 N   0  0  0  0  0  0  0  0  0  0  0  0
   16.8871  -10.7280   14.4080 C   0  0  0  0  0  0  0  0  0  0  0  0
   16.1341  -10.0774   15.5832 C   0  0  0  0  0  0  0  0  0  0  0  0
   16.7257   -8.7159   15.9845 C   0  0  0  0  0  0  0  0  0  0  0  0
   18.2578   -8.7588   16.0703 C   0  0  0  0  0  0  0  0  0  0  0  0
   17.5386  -12.0443   14.8652 C   0  0  0  0  0  0  0  0  0  0  0  0
   18.6498  -11.7842   15.8805 C   0  0  0  0  0  0  0  0  0  0  0  0
   19.6341  -10.7444   15.3480 C   0  0  0  0  0  0  0  0  0  0  0  0
   16.1766   -8.2848   17.2608 N   0  0  0  0  0  0  0  0  0  0  0  0
   14.8756   -7.7012   17.3863 C   0  0  0  0  0  0  0  0  0  0  0  0
   14.1673   -7.5135   16.3591 O   0  0  0  0  0  0  0  0  0  0  0  0
   16.7226   -8.3992   18.0720 H   0  0  0  0  0  0  0  0  0  0  0  0
   14.3659   -7.3161   18.7136 C   0  0  0  0  0  0  0  0  0  0  0  0
   15.1445   -7.5180   19.8549 C   0  0  0  0  0  0  0  0  0  0  0  0
   14.6693   -7.1563   21.1236 C   0  0  0  0  0  0  0  0  0  0  0  0
   13.3940   -6.5821   21.2603 C   0  0  0  0  0  0  0  0  0  0  0  0
   12.5968   -6.3738   20.1057 C   0  0  0  0  0  0  0  0  0  0  0  0
   13.0978   -6.7456   18.8479 C   0  0  0  0  0  0  0  0  0  0  0  0
   11.3224   -5.8042   20.2105 O   0  0  0  0  0  0  0  0  0  0  0  0
   10.9650   -4.5820   19.5784 C   0  0  0  0  0  0  0  0  0  0  0  0
   12.9764   -6.2418   22.5583 O   0  0  0  0  0  0  0  0  0  0  0  0
   13.0680   -4.9456   23.1317 C   0  0  0  0  0  0  0  0  0  0  0  0
   15.4502   -7.3590   22.2674 O   0  0  0  0  0  0  0  0  0  0  0  0
   16.5455   -6.5211   22.6115 C   0  0  0  0  0  0  0  0  0  0  0  0
   18.5086  -10.3426   12.6473 C   0  0  0  0  0  0  0  0  0  0  0  0
   17.7239   -9.9583   11.4407 C   0  0  0  0  0  0  0  0  0  0  0  0
   16.3600  -10.2584   11.3690 C   0  0  0  0  0  0  0  0  0  0  0  0
   15.6180   -9.8765   10.2482 C   0  0  0  0  0  0  0  0  0  0  0  0
   16.2383   -9.1898    9.2006 C   0  0  0  0  0  0  0  0  0  0  0  0
   17.6067   -8.8794    9.2692 C   0  0  0  0  0  0  0  0  0  0  0  0
   18.3426   -9.2650   10.3949 C   0  0  0  0  0  0  0  0  0  0  0  0
   18.2554   -8.1917    8.2400 O   0  0  0  0  0  0  0  0  0  0  0  0
   18.1671   -8.5871    6.8779 C   0  0  0  0  0  0  0  0  0  0  0  0
  1  2  1  0  0  0
  2  3  1  0  0  0
  3  4  1  0  0  0
  4  5  1  0  0  0
  5  6  1  0  0  0
  5 10  1  0  0  0
 10 11  1  0  0  0
 11 12  2  0  0  0
 11 14  1  0  0  0
 14 15  2  0  0  0
 15 16  1  0  0  0
 16 17  2  0  0  0
 17 18  1  0  0  0
 18 19  2  0  0  0
 18 20  1  0  0  0
 20 21  1  0  0  0
 17 22  1  0  0  0
 22 23  1  0  0  0
 16 24  1  0  0  0
 24 25  1  0  0  0
  3  7  1  0  0  0
  7  8  1  0  0  0
  8  9  1  0  0  0
  2 26  1  0  0  0
 26 27  1  0  0  0
 27 28  2  0  0  0
 28 29  1  0  0  0
 29 30  2  0  0  0
 30 31  1  0  0  0
 31 32  2  0  0  0
 31 33  1  0  0  0
 33 34  1  0  0  0
  1  6  1  0  0  0
 19 14  1  0  0  0
 32 27  1  0  0  0
  9  1  1  0  0  0
 10 13  1  0  0  0
M  END
>  <minimizedAffinity>
-7.09987

>  <minimizedRMSD>
1.29496

$$$$
CHEMBL1547918 6051356 CSC028046221 MCULE-9651774128 MolPort-004-058-787 PubChem-4667236 Z46342470 ZINC000006051356


 30 31  0  0  0  0  0  0  0  0999 V2000
   15.8187   -8.1726   18.5134 N   0  0  0  0  0  0  0  0  0  0  0  0
   15.9709   -8.1967   17.0883 C   0  0  0  0  0  0  0  0  0  0  0  0
   15.1447   -7.6218   16.3313 O   0  0  0  0  0  0  0  0  0  0  0  0
   16.5040   -8.6468   19.0376 H   0  0  0  0  0  0  0  0  0  0  0  0
   12.4186   -6.9211   19.5387 C   0  0  0  0  0  0  0  0  0  0  0  0
   13.4439   -7.5479   18.8122 C   0  0  0  0  0  0  0  0  0  0  0  0
   14.7713   -7.5293   19.2577 C   0  0  0  0  0  0  0  0  0  0  0  0
   15.0761   -6.8689   20.4571 C   0  0  0  0  0  0  0  0  0  0  0  0
   16.4721   -6.8194   20.9771 C   0  0  0  0  0  0  0  0  0  0  0  0
   14.0644   -6.2426   21.1867 C   0  0  0  0  0  0  0  0  0  0  0  0
   12.7319   -6.2564   20.7463 C   0  0  0  0  0  0  0  0  0  0  0  0
   11.7258   -5.5937   21.5374 N   0  0  0  0  0  0  0  0  0  0  0  0
   10.7627   -4.8015   20.9569 O   0  0  0  0  0  0  0  0  0  0  0  0
   11.7173   -5.7292   22.7789 O   0  0  0  0  0  0  0  0  0  0  0  0
   10.6457   -7.9010   18.1095 C   0  0  0  0  0  0  0  0  0  0  0  0
   11.0999   -6.9570   19.0703 O   0  0  0  0  0  0  0  0  0  0  0  0
   17.1124   -8.9432   16.4896 C   0  0  0  0  0  0  0  0  0  0  0  0
   17.0089  -10.3633   16.8114 N   0  0  0  0  0  0  0  0  0  0  0  0
   18.3218  -10.8340   17.2248 C   0  0  0  0  0  0  0  0  0  0  0  0
   16.5395  -11.1424   15.6536 C   0  0  0  0  0  0  0  0  0  0  0  0
   16.7892  -10.4966   14.3161 C   0  0  0  0  0  0  0  0  0  0  0  0
   17.9938  -10.6982   13.6318 C   0  0  0  0  0  0  0  0  0  0  0  0
   18.1970  -10.1099   12.3807 C   0  0  0  0  0  0  0  0  0  0  0  0
   17.1926   -9.3199   11.7977 C   0  0  0  0  0  0  0  0  0  0  0  0
   15.9857   -9.1331   12.4799 C   0  0  0  0  0  0  0  0  0  0  0  0
   15.7826   -9.7217   13.7314 C   0  0  0  0  0  0  0  0  0  0  0  0
   17.3625   -8.7123   10.5470 O   0  0  0  0  0  0  0  0  0  0  0  0
   18.4854   -8.9348    9.6973 C   0  0  0  0  0  0  0  0  0  0  0  0
   18.7291  -10.2899    9.5643 F   0  0  0  0  0  0  0  0  0  0  0  0
   19.6049   -8.2958   10.1994 F   0  0  0  0  0  0  0  0  0  0  0  0
 15 16  1  0  0  0
 16  5  1  0  0  0
  5  6  2  0  0  0
  6  7  1  0  0  0
  7  1  1  0  0  0
  7  8  2  0  0  0
  1  2  1  0  0  0
  2  3  2  0  0  0
  2 17  1  0  0  0
 17 18  1  0  0  0
 18 19  1  0  0  0
 18 20  1  0  0  0
 20 21  1  0  0  0
 21 22  2  0  0  0
 22 23  1  0  0  0
 23 24  2  0  0  0
 24 27  1  0  0  0
 24 25  1  0  0  0
 27 28  1  0  0  0
 28 29  1  0  0  0
 28 30  1  0  0  0
 25 26  2  0  0  0
 26 21  1  0  0  0
  8  9  1  0  0  0
  8 10  1  0  0  0
 10 11  2  0  0  0
 11 12  1  0  0  0
 11  5  1  0  0  0
 12 13  1  0  0  0
 12 14  2  0  0  0
  1  4  1  0  0  0
M  CHG 1  12   1
M  CHG 1  13  -1
M  END
>  <minimizedAffinity>
-7.09976

>  <minimizedRMSD>
1.36172

$$$$
CHEMBL4555676 PubChem-135334935


 32 36  0  0  0  0  0  0  0  0999 V2000
   14.8517   -7.6066   18.4136 C   0  0  0  0  0  0  0  0  0  0  0  0
   15.9909   -8.3781   18.6373 C   0  0  0  0  0  0  0  0  0  0  0  0
   16.3756   -8.8171   17.4314 N   0  0  0  0  0  0  0  0  0  0  0  0
   17.4282   -9.6038   17.1044 C   0  0  0  0  0  0  0  0  0  0  0  0
   17.6151   -9.9236   15.7524 C   0  0  0  0  0  0  0  0  0  0  0  0
   16.7190   -9.4296   14.7744 C   0  0  0  0  0  0  0  0  0  0  0  0
   15.6409   -8.6131   15.1788 C   0  0  0  0  0  0  0  0  0  0  0  0
   15.5074   -8.3303   16.5351 C   0  0  0  0  0  0  0  0  0  0  0  0
   14.5452   -7.5749   17.0910 N   0  0  0  0  0  0  0  0  0  0  0  0
   14.5157   -6.6880   20.7634 C   0  0  0  0  0  0  0  0  0  0  0  0
   13.6951   -6.0086   21.6787 C   0  0  0  0  0  0  0  0  0  0  0  0
   12.4278   -5.5379   21.3082 C   0  0  0  0  0  0  0  0  0  0  0  0
   11.9764   -5.7515   20.0006 C   0  0  0  0  0  0  0  0  0  0  0  0
   12.7839   -6.4253   19.0835 C   0  0  0  0  0  0  0  0  0  0  0  0
   14.0529   -6.9002   19.4436 C   0  0  0  0  0  0  0  0  0  0  0  0
   10.3981   -5.1820   19.4879 Cl  0  0  0  0  0  0  0  0  0  0  0  0
   16.5661   -6.5014   22.1452 C   0  0  0  0  0  0  0  0  0  0  0  0
   15.7783   -7.1495   21.1554 O   0  0  0  0  0  0  0  0  0  0  0  0
   11.6103   -4.8610   22.2201 O   0  0  0  0  0  0  0  0  0  0  0  0
   12.1187   -3.9294   23.1651 C   0  0  0  0  0  0  0  0  0  0  0  0
   16.9077   -9.7524   13.3828 N   0  0  0  0  0  0  0  0  0  0  0  0
   18.2497  -10.0709   12.8748 C   0  0  0  0  0  0  0  0  0  0  0  0
   18.2125  -10.4304   11.3914 C   0  0  0  0  0  0  0  0  0  0  0  0
   17.4037   -9.4478   10.6676 N   0  0  0  0  0  0  0  0  0  0  0  0
   16.0723   -9.0911   11.1705 C   0  0  0  0  0  0  0  0  0  0  0  0
   15.7552   -9.8165   12.4783 C   0  0  0  0  0  0  0  0  0  0  0  0
   17.9269   -8.7830    9.5050 C   0  0  0  0  0  0  0  0  0  0  0  0
   17.2780   -8.8756    8.3103 N   0  0  0  0  0  0  0  0  0  0  0  0
   17.7494   -8.2585    7.1951 C   0  0  0  0  0  0  0  0  0  0  0  0
   18.9252   -7.5117    7.2703 C   0  0  0  0  0  0  0  0  0  0  0  0
   19.5791   -7.4141    8.4570 N   0  0  0  0  0  0  0  0  0  0  0  0
   19.1086   -8.0308    9.5729 C   0  0  0  0  0  0  0  0  0  0  0  0
 17 18  1  0  0  0
 18 10  1  0  0  0
 10 11  2  0  0  0
 11 12  1  0  0  0
 12 13  2  0  0  0
 13 14  1  0  0  0
 14 15  2  0  0  0
 15  1  1  0  0  0
  1  2  2  0  0  0
  2  3  1  0  0  0
  3  4  1  0  0  0
  4  5  2  0  0  0
  5  6  1  0  0  0
  6  7  2  0  0  0
  7  8  1  0  0  0
  8  9  2  0  0  0
  6 21  1  0  0  0
 21 22  1  0  0  0
 22 23  1  0  0  0
 23 24  1  0  0  0
 24 25  1  0  0  0
 25 26  1  0  0  0
 24 27  1  0  0  0
 27 28  2  0  0  0
 28 29  1  0  0  0
 29 30  2  0  0  0
 30 31  1  0  0  0
 31 32  2  0  0  0
 13 16  1  0  0  0
 12 19  1  0  0  0
 19 20  1  0  0  0
 15 10  1  0  0  0
  9  1  1  0  0  0
  8  3  1  0  0  0
 26 21  1  0  0  0
 32 27  1  0  0  0
M  END
>  <minimizedAffinity>
-7.09562

>  <minimizedRMSD>
1.10285

$$$$
CHEMBL1482860 ChemDiv-D349-2827 MCULE-4208057037 MolPort-007-700-247 PubChem-16016207


 34 37  0  0  0  0  0  0  0  0999 V2000
   15.5944   -8.4116   17.4972 C   0  0  0  0  0  0  0  0  0  0  0  0
   16.6952   -9.1174   17.8260 N   0  0  0  0  0  0  0  0  0  0  0  0
   17.1770   -9.5301   16.6940 O   0  0  0  0  0  0  0  0  0  0  0  0
   16.4204   -9.1063   15.7107 C   0  0  0  0  0  0  0  0  0  0  0  0
   15.3805   -8.3788   16.1642 N   0  0  0  0  0  0  0  0  0  0  0  0
   14.4167   -6.7406   20.6816 C   0  0  0  0  0  0  0  0  0  0  0  0
   15.2280   -7.3834   19.7332 C   0  0  0  0  0  0  0  0  0  0  0  0
   14.7275   -7.7433   18.4804 C   0  0  0  0  0  0  0  0  0  0  0  0
   13.3976   -7.4574   18.1690 C   0  0  0  0  0  0  0  0  0  0  0  0
   12.5645   -6.8170   19.0974 C   0  0  0  0  0  0  0  0  0  0  0  0
   13.0655   -6.4530   20.3592 C   0  0  0  0  0  0  0  0  0  0  0  0
   16.3235   -6.5120   22.2517 C   0  0  0  0  0  0  0  0  0  0  0  0
   14.9438   -6.3900   21.9301 O   0  0  0  0  0  0  0  0  0  0  0  0
   11.2299   -6.5308   18.7870 O   0  0  0  0  0  0  0  0  0  0  0  0
   10.3214   -7.5143   18.3097 C   0  0  0  0  0  0  0  0  0  0  0  0
   12.1808   -5.8123   21.2432 O   0  0  0  0  0  0  0  0  0  0  0  0
   12.0792   -4.4065   21.4204 C   0  0  0  0  0  0  0  0  0  0  0  0
   16.6757   -9.3871   14.2913 C   0  0  0  0  0  0  0  0  0  0  0  0
   17.9864   -9.4574   13.8161 C   0  0  0  0  0  0  0  0  0  0  0  0
   18.2297   -9.7175   12.4681 C   0  0  0  0  0  0  0  0  0  0  0  0
   17.1686   -9.9099   11.5695 C   0  0  0  0  0  0  0  0  0  0  0  0
   15.8342   -9.8439   12.0440 C   0  0  0  0  0  0  0  0  0  0  0  0
   15.6115   -9.5817   13.4048 C   0  0  0  0  0  0  0  0  0  0  0  0
   14.6935  -10.0342   11.1838 N   0  0  0  0  0  0  0  0  0  0  0  0
   13.5269  -10.5525   11.6986 O   0  0  0  0  0  0  0  0  0  0  0  0
   14.7279   -9.7281    9.9744 O   0  0  0  0  0  0  0  0  0  0  0  0
   17.4464  -10.1784   10.1888 N   0  0  0  0  0  0  0  0  0  0  0  0
   16.8276  -10.7659    9.6977 H   0  0  0  0  0  0  0  0  0  0  0  0
   18.5907   -9.6332    9.4689 C   0  0  0  0  0  0  0  0  0  0  0  0
   18.1305   -8.6169    8.4366 C   0  0  0  0  0  0  0  0  0  0  0  0
   19.1390   -7.4994    8.3363 C   0  0  0  0  0  0  0  0  0  0  0  0
   19.1668   -7.1748    6.8732 C   0  0  0  0  0  0  0  0  0  0  0  0
   18.2291   -8.1865    6.2543 C   0  0  0  0  0  0  0  0  0  0  0  0
   18.0185   -9.2224    7.1768 O   0  0  0  0  0  0  0  0  0  0  0  0
 12 13  1  0  0  0
 13  6  1  0  0  0
  6  7  2  0  0  0
  7  8  1  0  0  0
  8  9  2  0  0  0
  8  1  1  0  0  0
  9 10  1  0  0  0
 10 14  1  0  0  0
 10 11  2  0  0  0
 14 15  1  0  0  0
 11 16  1  0  0  0
 11  6  1  0  0  0
 16 17  1  0  0  0
  1  2  2  0  0  0
  2  3  1  0  0  0
  3  4  1  0  0  0
  4  5  2  0  0  0
  4 18  1  0  0  0
  5  1  1  0  0  0
 18 19  2  0  0  0
 19 20  1  0  0  0
 20 21  2  0  0  0
 21 27  1  0  0  0
 21 22  1  0  0  0
 27 29  1  0  0  0
 30 29  1  0  0  0
 30 31  1  0  0  0
 31 32  1  0  0  0
 32 33  1  0  0  0
 33 34  1  0  0  0
 34 30  1  0  0  0
 22 23  2  0  0  0
 22 24  1  0  0  0
 23 18  1  0  0  0
 24 25  1  0  0  0
 24 26  2  0  0  0
 27 28  1  0  0  0
M  CHG 1  24   1
M  CHG 1  25  -1
M  END
>  <minimizedAffinity>
-7.09540

>  <minimizedRMSD>
1.83611

$$$$
CHEMBL3618455 PubChem-122191009


 34 37  0  0  0  0  0  0  0  0999 V2000
   13.2706   -7.2641   19.7271 C   0  0  0  0  0  0  0  0  0  0  0  0
   13.8459   -7.7903   18.5586 C   0  0  0  0  0  0  0  0  0  0  0  0
   15.2263   -8.0193   18.4602 C   0  0  0  0  0  0  0  0  0  0  0  0
   16.0331   -7.7313   19.5704 C   0  0  0  0  0  0  0  0  0  0  0  0
   15.4768   -7.2059   20.7366 C   0  0  0  0  0  0  0  0  0  0  0  0
   14.1044   -6.9567   20.8292 C   0  0  0  0  0  0  0  0  0  0  0  0
   15.8061   -8.5811   17.2600 N   0  0  0  0  0  0  0  0  0  0  0  0
   16.6997   -9.6162   17.3924 C   0  0  0  0  0  0  0  0  0  0  0  0
   17.2674  -10.1901   16.2952 N   0  0  0  0  0  0  0  0  0  0  0  0
   16.9427   -9.7318   15.0916 N   0  0  0  0  0  0  0  0  0  0  0  0
   17.3965  -10.1633   13.9082 C   0  0  0  0  0  0  0  0  0  0  0  0
   16.7824   -9.3747   12.9376 C   0  0  0  0  0  0  0  0  0  0  0  0
   15.9407   -8.4459   13.5579 C   0  0  0  0  0  0  0  0  0  0  0  0
   16.0875   -8.7254   14.9024 C   0  0  0  0  0  0  0  0  0  0  0  0
   15.4939   -8.1128   16.0014 C   0  0  0  0  0  0  0  0  0  0  0  0
   14.7076   -7.1403   15.8338 O   0  0  0  0  0  0  0  0  0  0  0  0
   16.9895   -9.4983   11.4828 C   0  0  0  0  0  0  0  0  0  0  0  0
   18.2074   -9.1115   10.9033 C   0  0  0  0  0  0  0  0  0  0  0  0
   18.4033   -9.2288    9.5243 C   0  0  0  0  0  0  0  0  0  0  0  0
   17.3829   -9.7338    8.7142 C   0  0  0  0  0  0  0  0  0  0  0  0
   17.6282   -9.8807    6.9876 Cl  0  0  0  0  0  0  0  0  0  0  0  0
   16.1666  -10.1215    9.2823 C   0  0  0  0  0  0  0  0  0  0  0  0
   15.9707  -10.0042   10.6614 C   0  0  0  0  0  0  0  0  0  0  0  0
   11.0517   -6.9968   18.6534 C   0  0  0  0  0  0  0  0  0  0  0  0
   11.8875   -7.0628   19.8012 O   0  0  0  0  0  0  0  0  0  0  0  0
   13.6304   -6.4185   22.0362 O   0  0  0  0  0  0  0  0  0  0  0  0
   12.3231   -5.8937   22.2379 C   0  0  0  0  0  0  0  0  0  0  0  0
   12.3632   -4.3711   22.2701 C   0  0  0  0  0  0  0  0  0  0  0  0
   13.6782   -3.9399   22.4503 O   0  0  0  0  0  0  0  0  0  0  0  0
   14.0123   -4.2675   23.3000 H   0  0  0  0  0  0  0  0  0  0  0  0
   11.4948   -3.8126   23.3545 C   0  0  0  0  0  0  0  0  0  0  0  0
   10.4783   -3.1369   23.0473 O   0  0  0  0  0  0  0  0  0  0  0  0
   11.7865   -4.0345   24.6962 O   0  0  0  0  0  0  0  0  0  0  0  0
   12.5409   -4.5363   24.9349 H   0  0  0  0  0  0  0  0  0  0  0  0
 24 25  1  0  0  0
 25  1  1  0  0  0
  1  2  2  0  0  0
  2  3  1  0  0  0
  3  7  1  0  0  0
  7  8  1  0  0  0
  8  9  2  0  0  0
  9 10  1  0  0  0
 10 11  1  0  0  0
 11 12  2  0  0  0
 12 17  1  0  0  0
 17 18  2  0  0  0
 18 19  1  0  0  0
 19 20  2  0  0  0
 20 21  1  0  0  0
 20 22  1  0  0  0
 22 23  2  0  0  0
 12 13  1  0  0  0
 13 14  2  0  0  0
 14 15  1  0  0  0
 15 16  2  0  0  0
  3  4  2  0  0  0
  4  5  1  0  0  0
  5  6  2  0  0  0
  6 26  1  0  0  0
 26 27  1  0  0  0
 27 28  1  0  0  0
 28 29  1  0  0  0
 28 31  1  0  0  0
 31 32  2  0  0  0
 31 33  1  0  0  0
  6  1  1  0  0  0
 15  7  1  0  0  0
 14 10  1  0  0  0
 23 17  1  0  0  0
 29 30  1  0  0  0
 33 34  1  0  0  0
M  END
>  <minimizedAffinity>
-7.09395

>  <minimizedRMSD>
1.37019

$$$$
CHEMBL1859171 PubChem-56675222


 32 35  0  0  0  0  0  0  0  0999 V2000
   16.6672   -8.9139   16.0153 C   0  0  0  0  0  0  0  0  0  0  0  0
   16.9732   -9.8424   16.9931 C   0  0  0  0  0  0  0  0  0  0  0  0
   16.2898   -9.4901   18.0558 O   0  0  0  0  0  0  0  0  0  0  0  0
   15.6011   -8.4111   17.7595 C   0  0  0  0  0  0  0  0  0  0  0  0
   15.7984   -8.0033   16.4901 N   0  0  0  0  0  0  0  0  0  0  0  0
   14.7129   -7.7244   18.7084 C   0  0  0  0  0  0  0  0  0  0  0  0
   15.0470   -7.6620   20.0612 C   0  0  0  0  0  0  0  0  0  0  0  0
   14.2093   -7.0103   20.9778 C   0  0  0  0  0  0  0  0  0  0  0  0
   13.0168   -6.4096   20.5381 C   0  0  0  0  0  0  0  0  0  0  0  0
   12.6722   -6.4702   19.1634 C   0  0  0  0  0  0  0  0  0  0  0  0
   13.5295   -7.1292   18.2678 C   0  0  0  0  0  0  0  0  0  0  0  0
   14.5426   -6.9463   22.3357 O   0  0  0  0  0  0  0  0  0  0  0  0
   15.5905   -6.1259   22.8345 C   0  0  0  0  0  0  0  0  0  0  0  0
   12.2216   -5.7726   21.5059 O   0  0  0  0  0  0  0  0  0  0  0  0
   12.3183   -4.4028   21.8689 C   0  0  0  0  0  0  0  0  0  0  0  0
   11.4913   -5.8814   18.6961 O   0  0  0  0  0  0  0  0  0  0  0  0
   11.3934   -4.5048   18.3551 C   0  0  0  0  0  0  0  0  0  0  0  0
   17.1956   -8.8825   14.6143 C   0  0  0  0  0  0  0  0  0  0  0  0
   17.3342   -9.2514   11.1645 N   0  0  0  0  0  0  0  0  0  0  0  0
   18.4099   -9.7358   12.0226 C   0  0  0  0  0  0  0  0  0  0  0  0
   17.8291  -10.6495   13.1050 C   0  0  0  0  0  0  0  0  0  0  0  0
   16.7153  -10.0221   13.8329 N   0  0  0  0  0  0  0  0  0  0  0  0
   15.6574   -9.5876   12.9097 C   0  0  0  0  0  0  0  0  0  0  0  0
   16.1797   -8.6467   11.8201 C   0  0  0  0  0  0  0  0  0  0  0  0
   18.6001   -8.2580    7.7712 C   0  0  0  0  0  0  0  0  0  0  0  0
   17.8185   -9.0820    6.9467 C   0  0  0  0  0  0  0  0  0  0  0  0
   16.8836   -9.9544    7.5075 C   0  0  0  0  0  0  0  0  0  0  0  0
   16.7232  -10.0086    8.8941 C   0  0  0  0  0  0  0  0  0  0  0  0
   17.4942   -9.1899    9.7350 C   0  0  0  0  0  0  0  0  0  0  0  0
   18.4332   -8.3187    9.1582 C   0  0  0  0  0  0  0  0  0  0  0  0
   19.9821   -7.4377    5.8908 C   0  0  0  0  0  0  0  0  0  0  0  0
   19.5450   -7.3751    7.2415 O   0  0  0  0  0  0  0  0  0  0  0  0
 31 32  1  0  0  0
 32 25  1  0  0  0
 25 26  2  0  0  0
 26 27  1  0  0  0
 27 28  2  0  0  0
 28 29  1  0  0  0
 29 19  1  0  0  0
 29 30  2  0  0  0
 19 20  1  0  0  0
 20 21  1  0  0  0
 21 22  1  0  0  0
 22 18  1  0  0  0
 22 23  1  0  0  0
 18  1  1  0  0  0
  1  2  2  0  0  0
  2  3  1  0  0  0
  3  4  1  0  0  0
  4  6  1  0  0  0
  4  5  2  0  0  0
  6  7  2  0  0  0
  7  8  1  0  0  0
  8 12  1  0  0  0
  8  9  2  0  0  0
 12 13  1  0  0  0
  9 14  1  0  0  0
  9 10  1  0  0  0
 14 15  1  0  0  0
 10 16  1  0  0  0
 10 11  2  0  0  0
 16 17  1  0  0  0
 11  6  1  0  0  0
  5  1  1  0  0  0
 23 24  1  0  0  0
 24 19  1  0  0  0
 30 25  1  0  0  0
M  END
>  <minimizedAffinity>
-7.09365

>  <minimizedRMSD>
1.30080

$$$$
CHEMBL3197796 PubChem-9590233


 34 36  0  0  0  0  0  0  0  0999 V2000
   16.0006   -8.2074   16.4432 C   0  0  0  0  0  0  0  0  0  0  0  0
   17.3790   -8.3753   16.6548 C   0  0  0  0  0  0  0  0  0  0  0  0
   18.1748   -8.9923   15.6863 C   0  0  0  0  0  0  0  0  0  0  0  0
   17.5997   -9.4465   14.4974 C   0  0  0  0  0  0  0  0  0  0  0  0
   16.2254   -9.2846   14.2739 C   0  0  0  0  0  0  0  0  0  0  0  0
   15.4352   -8.6663   15.2481 C   0  0  0  0  0  0  0  0  0  0  0  0
   15.5945   -9.7511   13.0350 C   0  0  0  0  0  0  0  0  0  0  0  0
   16.3000  -10.0840   12.0048 N   0  0  0  0  0  0  0  0  0  0  0  0
   15.6705  -10.5265   10.8359 N   0  0  0  0  0  0  0  0  0  0  0  0
   16.1405  -10.1844    9.5279 C   0  0  0  0  0  0  0  0  0  0  0  0
   15.5180  -10.6302    8.5279 O   0  0  0  0  0  0  0  0  0  0  0  0
   14.8717  -11.0963   10.9165 H   0  0  0  0  0  0  0  0  0  0  0  0
   17.3250   -9.3291    9.3138 C   0  0  0  0  0  0  0  0  0  0  0  0
   17.6460   -8.7083    8.1180 C   0  0  0  0  0  0  0  0  0  0  0  0
   18.8135   -8.0448    8.4374 C   0  0  0  0  0  0  0  0  0  0  0  0
   19.6027   -7.2034    7.5001 C   0  0  0  0  0  0  0  0  0  0  0  0
   19.1566   -8.2553    9.7193 N   0  0  0  0  0  0  0  0  0  0  0  0
   18.2428   -9.0435   10.2574 N   0  0  0  0  0  0  0  0  0  0  0  0
   19.9476   -7.8879   10.1761 H   0  0  0  0  0  0  0  0  0  0  0  0
   15.1593   -7.5922   17.3831 O   0  0  0  0  0  0  0  0  0  0  0  0
   15.1156   -7.8571   18.7620 C   0  0  0  0  0  0  0  0  0  0  0  0
   15.8966   -8.6953   19.2904 O   0  0  0  0  0  0  0  0  0  0  0  0
   12.0348   -5.9384   19.8140 C   0  0  0  0  0  0  0  0  0  0  0  0
   12.9755   -6.6220   19.0304 C   0  0  0  0  0  0  0  0  0  0  0  0
   14.1377   -7.1441   19.5998 C   0  0  0  0  0  0  0  0  0  0  0  0
   14.3586   -6.9793   20.9695 C   0  0  0  0  0  0  0  0  0  0  0  0
   13.4338   -6.2992   21.7781 C   0  0  0  0  0  0  0  0  0  0  0  0
   12.2550   -5.7710   21.1921 C   0  0  0  0  0  0  0  0  0  0  0  0
   10.8580   -4.2259   18.4654 C   0  0  0  0  0  0  0  0  0  0  0  0
   10.8688   -5.4155   19.2431 O   0  0  0  0  0  0  0  0  0  0  0  0
   13.6807   -6.1478   23.1477 O   0  0  0  0  0  0  0  0  0  0  0  0
   14.8615   -6.6245   23.7804 C   0  0  0  0  0  0  0  0  0  0  0  0
   11.2747   -5.0766   21.9214 O   0  0  0  0  0  0  0  0  0  0  0  0
   11.3280   -3.6961   22.2513 C   0  0  0  0  0  0  0  0  0  0  0  0
 29 30  1  0  0  0
 30 23  1  0  0  0
 23 24  2  0  0  0
 24 25  1  0  0  0
 25 21  1  0  0  0
 25 26  2  0  0  0
 21 22  2  0  0  0
 21 20  1  0  0  0
 20  1  1  0  0  0
  1  2  2  0  0  0
  2  3  1  0  0  0
  3  4  2  0  0  0
  4  5  1  0  0  0
  5  7  1  0  0  0
  5  6  2  0  0  0
  7  8  2  0  0  0
  8  9  1  0  0  0
  9 10  1  0  0  0
 10 11  2  0  0  0
 10 13  1  0  0  0
 13 14  1  0  0  0
 14 15  2  0  0  0
 15 16  1  0  0  0
 15 17  1  0  0  0
 17 18  1  0  0  0
 18 13  2  0  0  0
  6  1  1  0  0  0
 26 27  1  0  0  0
 27 31  1  0  0  0
 27 28  2  0  0  0
 31 32  1  0  0  0
 28 33  1  0  0  0
 28 23  1  0  0  0
 33 34  1  0  0  0
  9 12  1  0  0  0
 17 19  1  0  0  0
M  END
>  <minimizedAffinity>
-7.08713

>  <minimizedRMSD>
1.91392

$$$$
CHEMBL3618452 PubChem-143973870 PubChem-45279063


 34 37  0  0  0  0  0  0  0  0999 V2000
   14.0703   -6.9513   20.7909 C   0  0  0  0  0  0  0  0  0  0  0  0
   13.2564   -7.1986   19.6767 C   0  0  0  0  0  0  0  0  0  0  0  0
   13.8248   -7.7294   18.5078 C   0  0  0  0  0  0  0  0  0  0  0  0
   15.1981   -8.0114   18.4303 C   0  0  0  0  0  0  0  0  0  0  0  0
   15.9982   -7.7661   19.5577 C   0  0  0  0  0  0  0  0  0  0  0  0
   15.4418   -7.2393   20.7242 C   0  0  0  0  0  0  0  0  0  0  0  0
   15.7770   -8.5778   17.2318 N   0  0  0  0  0  0  0  0  0  0  0  0
   16.6547   -9.6261   17.3669 C   0  0  0  0  0  0  0  0  0  0  0  0
   17.2211  -10.2053   16.2717 N   0  0  0  0  0  0  0  0  0  0  0  0
   16.9108   -9.7389   15.0674 N   0  0  0  0  0  0  0  0  0  0  0  0
   17.3653  -10.1741   13.8855 C   0  0  0  0  0  0  0  0  0  0  0  0
   16.7684   -9.3745   12.9134 C   0  0  0  0  0  0  0  0  0  0  0  0
   15.9363   -8.4352   13.5310 C   0  0  0  0  0  0  0  0  0  0  0  0
   16.0713   -8.7197   14.8756 C   0  0  0  0  0  0  0  0  0  0  0  0
   15.4797   -8.1016   15.9726 C   0  0  0  0  0  0  0  0  0  0  0  0
   14.7086   -7.1174   15.8027 O   0  0  0  0  0  0  0  0  0  0  0  0
   16.9814   -9.4981   11.4594 C   0  0  0  0  0  0  0  0  0  0  0  0
   18.1996   -9.1062   10.8840 C   0  0  0  0  0  0  0  0  0  0  0  0
   18.4012   -9.2240    9.5058 C   0  0  0  0  0  0  0  0  0  0  0  0
   17.3861   -9.7344    8.6925 C   0  0  0  0  0  0  0  0  0  0  0  0
   16.1696  -10.1273    9.2566 C   0  0  0  0  0  0  0  0  0  0  0  0
   15.9680  -10.0096   10.6348 C   0  0  0  0  0  0  0  0  0  0  0  0
   17.6387   -9.8824    6.9670 Cl  0  0  0  0  0  0  0  0  0  0  0  0
   11.8893   -6.9106   19.7515 O   0  0  0  0  0  0  0  0  0  0  0  0
   11.0238   -6.9904   18.6272 C   0  0  0  0  0  0  0  0  0  0  0  0
   13.4970   -6.4196   21.9508 O   0  0  0  0  0  0  0  0  0  0  0  0
   14.1406   -5.4282   22.7446 C   0  0  0  0  0  0  0  0  0  0  0  0
   13.3458   -3.6599   24.2630 C   0  0  0  0  0  0  0  0  0  0  0  0
   13.2935   -4.1632   22.8362 C   0  0  0  0  0  0  0  0  0  0  0  0
   13.8108   -3.1771   21.9931 O   0  0  0  0  0  0  0  0  0  0  0  0
   13.2658   -2.3773   22.0584 H   0  0  0  0  0  0  0  0  0  0  0  0
   11.8371   -4.4472   22.4816 C   0  0  0  0  0  0  0  0  0  0  0  0
   11.6136   -4.2988   21.1106 O   0  0  0  0  0  0  0  0  0  0  0  0
   11.8133   -3.3869   20.8473 H   0  0  0  0  0  0  0  0  0  0  0  0
 29 28  1  0  0  0
 29 32  1  0  0  0
 29 27  1  0  0  0
 29 30  1  0  0  0
 32 33  1  0  0  0
 27 26  1  0  0  0
 26  1  1  0  0  0
  1  2  2  0  0  0
  2  3  1  0  0  0
  2 24  1  0  0  0
  3  4  2  0  0  0
  4  5  1  0  0  0
  4  7  1  0  0  0
  5  6  2  0  0  0
  6  1  1  0  0  0
  7  8  1  0  0  0
  8  9  2  0  0  0
  9 10  1  0  0  0
 10 11  1  0  0  0
 11 12  2  0  0  0
 12 13  1  0  0  0
 12 17  1  0  0  0
 13 14  2  0  0  0
 14 15  1  0  0  0
 14 10  1  0  0  0
 15 16  2  0  0  0
 15  7  1  0  0  0
 17 18  2  0  0  0
 18 19  1  0  0  0
 19 20  2  0  0  0
 20 21  1  0  0  0
 20 23  1  0  0  0
 21 22  2  0  0  0
 22 17  1  0  0  0
 24 25  1  0  0  0
 33 34  1  0  0  0
 30 31  1  0  0  0
M  END
>  <minimizedAffinity>
-7.08333

>  <minimizedRMSD>
1.68013

$$$$
CHEMBL1761343 PubChem-52918083


 27 29  0  0  0  0  0  0  0  0999 V2000
   16.0404   -8.3856   17.3146 C   0  0  0  0  0  0  0  0  0  0  0  0
   14.9688   -7.7958   16.7413 N   0  0  0  0  0  0  0  0  0  0  0  0
   14.1465   -7.2347   17.6262 N   0  0  0  0  0  0  0  0  0  0  0  0
   14.5579   -7.3738   18.9084 C   0  0  0  0  0  0  0  0  0  0  0  0
   16.0119   -8.2313   18.9879 S   0  0  0  0  0  0  0  0  0  0  0  0
   13.8180   -6.8390   20.0631 C   0  0  0  0  0  0  0  0  0  0  0  0
   12.5940   -6.1950   19.8760 C   0  0  0  0  0  0  0  0  0  0  0  0
   11.8781   -5.6803   20.9663 C   0  0  0  0  0  0  0  0  0  0  0  0
   12.3902   -5.8093   22.2688 C   0  0  0  0  0  0  0  0  0  0  0  0
   13.6336   -6.4628   22.4664 C   0  0  0  0  0  0  0  0  0  0  0  0
   14.3286   -6.9682   21.3563 C   0  0  0  0  0  0  0  0  0  0  0  0
   10.6506   -5.0342   20.7791 O   0  0  0  0  0  0  0  0  0  0  0  0
   10.3634   -4.2413   19.6351 C   0  0  0  0  0  0  0  0  0  0  0  0
   11.6250   -5.2724   23.3182 O   0  0  0  0  0  0  0  0  0  0  0  0
   11.7947   -3.9753   23.8714 C   0  0  0  0  0  0  0  0  0  0  0  0
   14.1693   -6.6063   23.7516 O   0  0  0  0  0  0  0  0  0  0  0  0
   15.3739   -7.3138   24.0148 C   0  0  0  0  0  0  0  0  0  0  0  0
   17.0783   -9.0613   16.5948 N   0  0  0  0  0  0  0  0  0  0  0  0
   17.8363   -9.3994   17.1244 H   0  0  0  0  0  0  0  0  0  0  0  0
   17.2779   -9.7922   12.4164 C   0  0  0  0  0  0  0  0  0  0  0  0
   18.2599  -10.2956   13.2844 C   0  0  0  0  0  0  0  0  0  0  0  0
   18.1811  -10.0469   14.6575 C   0  0  0  0  0  0  0  0  0  0  0  0
   17.1246   -9.2950   15.1811 C   0  0  0  0  0  0  0  0  0  0  0  0
   16.1442   -8.7927   14.3127 C   0  0  0  0  0  0  0  0  0  0  0  0
   16.2214   -9.0404   12.9394 C   0  0  0  0  0  0  0  0  0  0  0  0
   18.0071   -9.1573   10.1398 C   0  0  0  0  0  0  0  0  0  0  0  0
   17.3279  -10.0230   11.0390 O   0  0  0  0  0  0  0  0  0  0  0  0
 26 27  1  0  0  0
 27 20  1  0  0  0
 20 21  2  0  0  0
 21 22  1  0  0  0
 22 23  2  0  0  0
 23 18  1  0  0  0
 23 24  1  0  0  0
 18  1  1  0  0  0
  1  2  2  0  0  0
  2  3  1  0  0  0
  3  4  2  0  0  0
  4  6  1  0  0  0
  4  5  1  0  0  0
  6  7  2  0  0  0
  7  8  1  0  0  0
  8 12  1  0  0  0
  8  9  2  0  0  0
 12 13  1  0  0  0
  9 14  1  0  0  0
  9 10  1  0  0  0
 14 15  1  0  0  0
 10 16  1  0  0  0
 10 11  2  0  0  0
 16 17  1  0  0  0
 11  6  1  0  0  0
  5  1  1  0  0  0
 24 25  2  0  0  0
 25 20  1  0  0  0
 18 19  1  0  0  0
M  END
>  <minimizedAffinity>
-7.08269

>  <minimizedRMSD>
1.85826

$$$$
CHEMBL128293


 35 37  0  0  0  0  0  0  0  0999 V2000
   16.0743   -8.3332   17.0247 C   0  0  0  0  0  0  0  0  0  0  0  0
   15.4050   -7.4719   16.2346 N   0  0  0  0  0  0  0  0  0  0  0  0
   15.8647   -7.6533   15.0092 N   0  0  0  0  0  0  0  0  0  0  0  0
   16.7969   -8.6177   15.0954 C   0  0  0  0  0  0  0  0  0  0  0  0
   16.9672   -9.0812   16.3495 N   0  0  0  0  0  0  0  0  0  0  0  0
   15.5811   -7.1772   14.1955 H   0  0  0  0  0  0  0  0  0  0  0  0
   15.8742   -8.4586   18.4380 N   0  0  0  0  0  0  0  0  0  0  0  0
   16.3482   -9.1945   18.8886 H   0  0  0  0  0  0  0  0  0  0  0  0
   12.9417   -6.4968   19.7460 C   0  0  0  0  0  0  0  0  0  0  0  0
   13.7307   -7.3193   18.9268 C   0  0  0  0  0  0  0  0  0  0  0  0
   15.0534   -7.6206   19.2621 C   0  0  0  0  0  0  0  0  0  0  0  0
   15.5939   -7.0921   20.4323 C   0  0  0  0  0  0  0  0  0  0  0  0
   14.8296   -6.2671   21.2705 C   0  0  0  0  0  0  0  0  0  0  0  0
   13.4991   -5.9626   20.9355 C   0  0  0  0  0  0  0  0  0  0  0  0
   10.8222   -7.0933   18.6047 C   0  0  0  0  0  0  0  0  0  0  0  0
   11.6196   -6.2120   19.3849 O   0  0  0  0  0  0  0  0  0  0  0  0
   15.3733   -5.7364   22.4460 O   0  0  0  0  0  0  0  0  0  0  0  0
   16.5813   -6.2155   23.0217 C   0  0  0  0  0  0  0  0  0  0  0  0
   12.7867   -5.1309   21.8163 O   0  0  0  0  0  0  0  0  0  0  0  0
   11.9043   -5.5842   22.8327 C   0  0  0  0  0  0  0  0  0  0  0  0
   17.5264   -9.0952   13.9658 N   0  0  0  0  0  0  0  0  0  0  0  0
   18.4579   -8.8016   13.8420 H   0  0  0  0  0  0  0  0  0  0  0  0
   16.8277  -10.1734   12.8062 S   0  0  0  0  0  0  0  0  0  0  0  0
   17.3903  -11.5523   13.0126 O   0  0  0  0  0  0  0  0  0  0  0  0
   15.3345  -10.2151   12.9730 O   0  0  0  0  0  0  0  0  0  0  0  0
   17.2172   -9.6110   11.1819 C   0  0  0  0  0  0  0  0  0  0  0  0
   18.4713   -9.0324   10.9547 C   0  0  0  0  0  0  0  0  0  0  0  0
   18.8269   -8.5696    9.6857 C   0  0  0  0  0  0  0  0  0  0  0  0
   20.1733   -7.9612    9.4934 C   0  0  0  0  0  0  0  0  0  0  0  0
   17.9169   -8.6847    8.6226 C   0  0  0  0  0  0  0  0  0  0  0  0
   18.3114   -8.1195    7.0065 Cl  0  0  0  0  0  0  0  0  0  0  0  0
   16.6640   -9.2611    8.8437 C   0  0  0  0  0  0  0  0  0  0  0  0
   16.3050   -9.7252   10.1124 C   0  0  0  0  0  0  0  0  0  0  0  0
   14.6785  -10.4529   10.3143 S   0  0  0  0  0  0  0  0  0  0  0  0
   14.0211  -10.4309    9.1240 H   0  0  0  0  0  0  0  0  0  0  0  0
 15 16  1  0  0  0
 16  9  1  0  0  0
  9 10  2  0  0  0
 10 11  1  0  0  0
 11  7  1  0  0  0
 11 12  2  0  0  0
  7  1  1  0  0  0
  1  2  2  0  0  0
  2  3  1  0  0  0
  3  4  1  0  0  0
  4 21  1  0  0  0
  4  5  2  0  0  0
 21 23  1  0  0  0
 23 24  2  0  0  0
 23 25  2  0  0  0
 23 26  1  0  0  0
 26 27  2  0  0  0
 27 28  1  0  0  0
 28 29  1  0  0  0
 28 30  2  0  0  0
 30 31  1  0  0  0
 30 32  1  0  0  0
 32 33  2  0  0  0
 33 34  1  0  0  0
 33 26  1  0  0  0
  5  1  1  0  0  0
 12 13  1  0  0  0
 13 17  1  0  0  0
 13 14  2  0  0  0
 17 18  1  0  0  0
 14 19  1  0  0  0
 14  9  1  0  0  0
 19 20  1  0  0  0
  7  8  1  0  0  0
  3  6  1  0  0  0
 21 22  1  0  0  0
 34 35  1  0  0  0
M  END
>  <minimizedAffinity>
-7.08010

>  <minimizedRMSD>
1.67694

$$$$
CHEMBL1886110 3216995 CSC026026884 MCULE-4314703539 MolPort-003-998-318 PubChem-2335626 Z18507278 ZINC000003216995 ZINC03216995


 30 31  0  0  0  0  0  0  0  0999 V2000
   15.3375   -7.9380   17.3718 C   0  0  0  0  0  0  0  0  0  0  0  0
   14.2632   -7.5528   16.8371 O   0  0  0  0  0  0  0  0  0  0  0  0
   15.5597   -7.6958   18.8266 C   0  0  0  0  0  0  0  0  0  0  0  0
   14.3874   -8.2085   19.6543 C   0  0  0  0  0  0  0  0  0  0  0  0
   12.4625   -5.2586   21.0734 C   0  0  0  0  0  0  0  0  0  0  0  0
   12.9200   -6.2597   20.2018 C   0  0  0  0  0  0  0  0  0  0  0  0
   13.8990   -7.1663   20.6043 C   0  0  0  0  0  0  0  0  0  0  0  0
   14.4388   -7.0776   21.8857 C   0  0  0  0  0  0  0  0  0  0  0  0
   13.9990   -6.0883   22.7773 C   0  0  0  0  0  0  0  0  0  0  0  0
   13.0084   -5.1722   22.3804 C   0  0  0  0  0  0  0  0  0  0  0  0
   10.8795   -4.4152   19.3606 C   0  0  0  0  0  0  0  0  0  0  0  0
   11.4790   -4.3577   20.6485 O   0  0  0  0  0  0  0  0  0  0  0  0
   14.5343   -5.9945   24.0672 O   0  0  0  0  0  0  0  0  0  0  0  0
   15.3641   -7.0003   24.6326 C   0  0  0  0  0  0  0  0  0  0  0  0
   12.6114   -4.2057   23.3201 O   0  0  0  0  0  0  0  0  0  0  0  0
   11.4539   -4.2906   24.1388 C   0  0  0  0  0  0  0  0  0  0  0  0
   16.3192   -8.5896   16.6203 O   0  0  0  0  0  0  0  0  0  0  0  0
   16.0138   -9.6400   15.7104 C   0  0  0  0  0  0  0  0  0  0  0  0
   16.2435   -9.1941   14.3074 C   0  0  0  0  0  0  0  0  0  0  0  0
   16.1843   -7.9665   14.0329 O   0  0  0  0  0  0  0  0  0  0  0  0
   16.5429  -10.1695   13.3005 N   0  0  0  0  0  0  0  0  0  0  0  0
   16.5687  -11.1094   13.5923 H   0  0  0  0  0  0  0  0  0  0  0  0
   16.8092   -9.9212   11.9113 C   0  0  0  0  0  0  0  0  0  0  0  0
   18.1038   -9.6261   11.4557 C   0  0  0  0  0  0  0  0  0  0  0  0
   18.3434   -9.3883   10.1000 C   0  0  0  0  0  0  0  0  0  0  0  0
   17.2896   -9.4432    9.1858 C   0  0  0  0  0  0  0  0  0  0  0  0
   17.5425   -9.1905    7.7436 C   0  0  0  0  0  0  0  0  0  0  0  0
   15.9975   -9.7362    9.6276 C   0  0  0  0  0  0  0  0  0  0  0  0
   15.7535   -9.9749   10.9839 C   0  0  0  0  0  0  0  0  0  0  0  0
   14.1142  -10.3406   11.4954 Cl  0  0  0  0  0  0  0  0  0  0  0  0
 11 12  1  0  0  0
 12  5  1  0  0  0
  5  6  2  0  0  0
  6  7  1  0  0  0
  7  4  1  0  0  0
  7  8  2  0  0  0
  4  3  1  0  0  0
  3  1  1  0  0  0
  1  2  2  0  0  0
  1 17  1  0  0  0
 17 18  1  0  0  0
 18 19  1  0  0  0
 19 20  2  0  0  0
 19 21  1  0  0  0
 21 23  1  0  0  0
 23 24  2  0  0  0
 24 25  1  0  0  0
 25 26  2  0  0  0
 26 27  1  0  0  0
 26 28  1  0  0  0
 28 29  2  0  0  0
 29 30  1  0  0  0
 29 23  1  0  0  0
  8  9  1  0  0  0
  9 13  1  0  0  0
  9 10  2  0  0  0
 13 14  1  0  0  0
 10 15  1  0  0  0
 10  5  1  0  0  0
 15 16  1  0  0  0
 21 22  1  0  0  0
M  END
>  <minimizedAffinity>
-7.08008

>  <minimizedRMSD>
1.93742

$$$$
CHEMBL4536861 PubChem-135335458


 30 33  0  0  0  0  0  0  0  0999 V2000
   16.9842   -9.8155   13.9952 C   0  0  0  0  0  0  0  0  0  0  0  0
   16.1145   -8.8285   14.5071 C   0  0  0  0  0  0  0  0  0  0  0  0
   15.9892   -8.7194   15.8889 C   0  0  0  0  0  0  0  0  0  0  0  0
   15.2116   -7.8391   16.5415 N   0  0  0  0  0  0  0  0  0  0  0  0
   15.4390   -8.1352   17.8464 C   0  0  0  0  0  0  0  0  0  0  0  0
   16.3473   -9.1865   17.9653 C   0  0  0  0  0  0  0  0  0  0  0  0
   16.6714   -9.5278   16.7110 N   0  0  0  0  0  0  0  0  0  0  0  0
   17.5169  -10.4938   16.2799 C   0  0  0  0  0  0  0  0  0  0  0  0
   17.6849  -10.6517   14.8972 C   0  0  0  0  0  0  0  0  0  0  0  0
   15.1870   -8.7928   11.6774 C   0  0  0  0  0  0  0  0  0  0  0  0
   15.9822  -10.0901   11.6768 C   0  0  0  0  0  0  0  0  0  0  0  0
   16.4131  -10.4120   10.2443 C   0  0  0  0  0  0  0  0  0  0  0  0
   17.5037   -9.5220    9.8396 N   0  0  0  0  0  0  0  0  0  0  0  0
   18.6439   -9.3083   10.7378 C   0  0  0  0  0  0  0  0  0  0  0  0
   18.5002  -10.1318   12.0159 C   0  0  0  0  0  0  0  0  0  0  0  0
   17.1505   -9.9783   12.5705 N   0  0  0  0  0  0  0  0  0  0  0  0
   17.4083   -8.7965    8.6043 C   0  0  0  0  0  0  0  0  0  0  0  0
   16.4080   -8.9501    7.8537 O   0  0  0  0  0  0  0  0  0  0  0  0
   18.4833   -7.8525    8.1815 C   0  0  0  0  0  0  0  0  0  0  0  0
   14.8032   -7.4310   18.9854 C   0  0  0  0  0  0  0  0  0  0  0  0
   15.5268   -7.2916   20.1792 C   0  0  0  0  0  0  0  0  0  0  0  0
   14.9793   -6.6383   21.2840 C   0  0  0  0  0  0  0  0  0  0  0  0
   13.6859   -6.1072   21.2150 C   0  0  0  0  0  0  0  0  0  0  0  0
   12.9547   -6.2414   20.0265 C   0  0  0  0  0  0  0  0  0  0  0  0
   13.4969   -6.8971   18.9089 C   0  0  0  0  0  0  0  0  0  0  0  0
   15.9347   -6.4964   22.7486 Cl  0  0  0  0  0  0  0  0  0  0  0  0
   12.7502   -7.0206   17.7308 O   0  0  0  0  0  0  0  0  0  0  0  0
   11.3585   -7.3092   17.7234 C   0  0  0  0  0  0  0  0  0  0  0  0
   13.1464   -5.4541   22.3287 O   0  0  0  0  0  0  0  0  0  0  0  0
   11.7708   -5.1111   22.4279 C   0  0  0  0  0  0  0  0  0  0  0  0
 10 11  1  0  0  0
 11 12  1  0  0  0
 12 13  1  0  0  0
 13 14  1  0  0  0
 14 15  1  0  0  0
 15 16  1  0  0  0
 16  1  1  0  0  0
  1  2  2  0  0  0
  2  3  1  0  0  0
  3  4  2  0  0  0
  4  5  1  0  0  0
  5  6  2  0  0  0
  6  7  1  0  0  0
  7  8  1  0  0  0
  8  9  2  0  0  0
  5 20  1  0  0  0
 20 21  2  0  0  0
 21 22  1  0  0  0
 22 23  2  0  0  0
 23 24  1  0  0  0
 24 25  2  0  0  0
 25 27  1  0  0  0
 27 28  1  0  0  0
 23 29  1  0  0  0
 29 30  1  0  0  0
 22 26  1  0  0  0
 13 17  1  0  0  0
 17 18  2  0  0  0
 17 19  1  0  0  0
 16 11  1  0  0  0
  9  1  1  0  0  0
  7  3  1  0  0  0
 25 20  1  0  0  0
M  END
>  <minimizedAffinity>
-7.07648

>  <minimizedRMSD>
1.04460

$$$$
CHEMBL3824088 PubChem-127051761


 35 37  0  0  0  0  0  0  0  0999 V2000
   16.5571   -8.7344   16.5040 C   0  0  0  0  0  0  0  0  0  0  0  0
   17.8944   -9.1140   16.3000 C   0  0  0  0  0  0  0  0  0  0  0  0
   18.7037   -9.0655   17.2681 O   0  0  0  0  0  0  0  0  0  0  0  0
   18.3200   -9.5331   15.0654 N   0  0  0  0  0  0  0  0  0  0  0  0
   17.4510   -9.5903   14.0052 C   0  0  0  0  0  0  0  0  0  0  0  0
   16.1038   -9.2154   14.1816 C   0  0  0  0  0  0  0  0  0  0  0  0
   15.6663   -8.7902   15.4294 C   0  0  0  0  0  0  0  0  0  0  0  0
   15.2197   -9.2740   13.1040 C   0  0  0  0  0  0  0  0  0  0  0  0
   15.6580   -9.6914   11.8870 N   0  0  0  0  0  0  0  0  0  0  0  0
   16.9531  -10.0600   11.6790 C   0  0  0  0  0  0  0  0  0  0  0  0
   17.8680  -10.0163   12.7337 C   0  0  0  0  0  0  0  0  0  0  0  0
   19.7194   -9.9202   14.8911 C   0  0  0  0  0  0  0  0  0  0  0  0
   14.9182   -7.6134   18.1379 C   0  0  0  0  0  0  0  0  0  0  0  0
   14.0778   -7.3276   17.2419 O   0  0  0  0  0  0  0  0  0  0  0  0
   16.1358   -8.2990   17.8069 N   0  0  0  0  0  0  0  0  0  0  0  0
   16.7480   -8.4916   18.5534 H   0  0  0  0  0  0  0  0  0  0  0  0
   14.6488   -7.2405   19.5377 C   0  0  0  0  0  0  0  0  0  0  0  0
   13.3745   -6.8204   19.9274 C   0  0  0  0  0  0  0  0  0  0  0  0
   13.1016   -6.4618   21.2571 C   0  0  0  0  0  0  0  0  0  0  0  0
   14.1394   -6.5277   22.2215 C   0  0  0  0  0  0  0  0  0  0  0  0
   15.4208   -6.9505   21.8281 C   0  0  0  0  0  0  0  0  0  0  0  0
   15.6650   -7.3027   20.4931 C   0  0  0  0  0  0  0  0  0  0  0  0
   16.4401   -7.0130   22.7853 O   0  0  0  0  0  0  0  0  0  0  0  0
   17.6675   -6.3091   22.6514 C   0  0  0  0  0  0  0  0  0  0  0  0
   13.9597   -6.1888   23.5733 O   0  0  0  0  0  0  0  0  0  0  0  0
   13.9894   -4.8678   24.0947 C   0  0  0  0  0  0  0  0  0  0  0  0
   11.8154   -6.0445   21.6189 O   0  0  0  0  0  0  0  0  0  0  0  0
   11.2340   -4.8328   21.1553 C   0  0  0  0  0  0  0  0  0  0  0  0
   17.3886  -10.4966   10.3897 N   0  0  0  0  0  0  0  0  0  0  0  0
   17.8456  -11.3654   10.3159 H   0  0  0  0  0  0  0  0  0  0  0  0
   17.1852   -9.7115    9.1814 C   0  0  0  0  0  0  0  0  0  0  0  0
   18.1153   -8.5101    9.1787 C   0  0  0  0  0  0  0  0  0  0  0  0
   18.7602   -8.3879    7.8828 N   0  0  0  0  0  0  0  0  0  0  0  0
   17.8703   -8.9918    6.9064 C   0  0  0  0  0  0  0  0  0  0  0  0
   18.8087   -6.9705    7.5751 C   0  0  0  0  0  0  0  0  0  0  0  0
 13 14  2  0  0  0
 13 17  1  0  0  0
 17 18  2  0  0  0
 18 19  1  0  0  0
 19 20  2  0  0  0
 20 21  1  0  0  0
 21 22  2  0  0  0
 21 23  1  0  0  0
 23 24  1  0  0  0
 20 25  1  0  0  0
 25 26  1  0  0  0
 19 27  1  0  0  0
 27 28  1  0  0  0
 13 15  1  0  0  0
 15  1  1  0  0  0
  1  2  1  0  0  0
  2  3  2  0  0  0
  2  4  1  0  0  0
  4  5  1  0  0  0
  5  6  2  0  0  0
  6  7  1  0  0  0
  6  8  1  0  0  0
  8  9  2  0  0  0
  9 10  1  0  0  0
 10 11  2  0  0  0
 10 29  1  0  0  0
 29 31  1  0  0  0
 31 32  1  0  0  0
 32 33  1  0  0  0
 33 34  1  0  0  0
 33 35  1  0  0  0
  4 12  1  0  0  0
 22 17  1  0  0  0
  7  1  2  0  0  0
 11  5  1  0  0  0
 15 16  1  0  0  0
 29 30  1  0  0  0
M  END
>  <minimizedAffinity>
-7.06689

>  <minimizedRMSD>
1.56186

$$$$
CHEMBL3799305 PubChem-127046184


 38 40  0  0  0  0  0  0  0  0999 V2000
   13.4076   -6.6091   20.1997 C   0  0  0  0  0  0  0  0  0  0  0  0
   14.7063   -7.1568   20.3914 C   0  0  0  0  0  0  0  0  0  0  0  0
   15.3792   -7.7388   19.3113 C   0  0  0  0  0  0  0  0  0  0  0  0
   14.7971   -7.7912   18.0427 C   0  0  0  0  0  0  0  0  0  0  0  0
   13.5188   -7.2621   17.8555 C   0  0  0  0  0  0  0  0  0  0  0  0
   12.8279   -6.6795   18.9189 C   0  0  0  0  0  0  0  0  0  0  0  0
   11.4669   -6.1276   18.6657 C   0  0  0  0  0  0  0  0  0  0  0  0
   15.5197   -8.4041   16.9173 C   0  0  0  0  0  0  0  0  0  0  0  0
   16.7198   -9.0069   17.0362 N   0  0  0  0  0  0  0  0  0  0  0  0
   17.0114   -9.4092   15.8372 O   0  0  0  0  0  0  0  0  0  0  0  0
   16.0474   -9.0774   15.0131 C   0  0  0  0  0  0  0  0  0  0  0  0
   15.0546   -8.4251   15.6498 N   0  0  0  0  0  0  0  0  0  0  0  0
   16.0481   -9.3795   13.5753 C   0  0  0  0  0  0  0  0  0  0  0  0
   17.2253   -9.2511   12.8310 C   0  0  0  0  0  0  0  0  0  0  0  0
   17.2141   -9.5426   11.4649 C   0  0  0  0  0  0  0  0  0  0  0  0
   16.0580   -9.9523   10.8698 N   0  0  0  0  0  0  0  0  0  0  0  0
   14.9011  -10.0849   11.5719 C   0  0  0  0  0  0  0  0  0  0  0  0
   14.8757   -9.8002   12.9384 C   0  0  0  0  0  0  0  0  0  0  0  0
   13.6628  -10.5338   10.8846 C   0  0  0  0  0  0  0  0  0  0  0  0
   18.3941   -9.4124   10.7284 O   0  0  0  0  0  0  0  0  0  0  0  0
   18.5400   -8.4676    9.6751 C   0  0  0  0  0  0  0  0  0  0  0  0
   18.1195   -9.1058    8.3684 C   0  0  0  0  0  0  0  0  0  0  0  0
   19.9878   -8.0265    9.5678 C   0  0  0  0  0  0  0  0  0  0  0  0
   15.3955   -7.1971   21.7157 C   0  0  0  0  0  0  0  0  0  0  0  0
   14.8114   -8.3008   22.5774 C   0  0  0  0  0  0  0  0  0  0  0  0
   12.6538   -5.9960   21.2180 O   0  0  0  0  0  0  0  0  0  0  0  0
   13.1406   -5.6314   22.5018 C   0  0  0  0  0  0  0  0  0  0  0  0
   13.4161   -4.1380   22.5456 C   0  0  0  0  0  0  0  0  0  0  0  0
   12.2159   -3.4252   22.5093 O   0  0  0  0  0  0  0  0  0  0  0  0
   11.6795   -3.6556   23.2840 H   0  0  0  0  0  0  0  0  0  0  0  0
   14.2086   -3.7728   23.7933 C   0  0  0  0  0  0  0  0  0  0  0  0
   13.3025   -4.6207   25.9892 C   0  0  0  0  0  0  0  0  0  0  0  0
   14.0423   -5.6393   25.9345 O   0  0  0  0  0  0  0  0  0  0  0  0
   13.3292   -3.6454   24.9475 N   0  0  0  0  0  0  0  0  0  0  0  0
   12.7352   -2.8628   25.0110 H   0  0  0  0  0  0  0  0  0  0  0  0
   12.3632   -4.4525   27.1298 C   0  0  0  0  0  0  0  0  0  0  0  0
   12.2227   -5.6654   27.8029 O   0  0  0  0  0  0  0  0  0  0  0  0
   11.8725   -6.3344   27.1941 H   0  0  0  0  0  0  0  0  0  0  0  0
 32 33  2  0  0  0
 32 36  1  0  0  0
 36 37  1  0  0  0
 32 34  1  0  0  0
 34 31  1  0  0  0
 28 31  1  0  0  0
 28 27  1  0  0  0
 27 26  1  0  0  0
 26  1  1  0  0  0
  1  2  2  0  0  0
  2  3  1  0  0  0
  3  4  2  0  0  0
  4  5  1  0  0  0
  5  6  2  0  0  0
  6  7  1  0  0  0
  4  8  1  0  0  0
  8  9  2  0  0  0
  9 10  1  0  0  0
 10 11  1  0  0  0
 11 12  2  0  0  0
 11 13  1  0  0  0
 13 14  2  0  0  0
 14 15  1  0  0  0
 15 16  2  0  0  0
 16 17  1  0  0  0
 17 18  2  0  0  0
 17 19  1  0  0  0
 15 20  1  0  0  0
 20 21  1  0  0  0
 21 22  1  0  0  0
 21 23  1  0  0  0
  2 24  1  0  0  0
 24 25  1  0  0  0
 28 29  1  0  0  0
  6  1  1  0  0  0
 12  8  1  0  0  0
 18 13  1  0  0  0
 37 38  1  0  0  0
 34 35  1  0  0  0
 29 30  1  0  0  0
M  END
>  <minimizedAffinity>
-7.06230

>  <minimizedRMSD>
1.90667

$$$$
CHEMBL1314532 8611132 ChemDiv-G699-0194 MCULE-7674547095 MolPort-005-285-515 PubChem-16029642 ZINC000008611132 ZINC08611132


 32 35  0  0  0  0  0  0  0  0999 V2000
   15.8864   -8.0784   18.8306 N   0  0  0  0  0  0  0  0  0  0  0  0
   15.6440   -8.1799   17.4216 C   0  0  0  0  0  0  0  0  0  0  0  0
   14.5915   -7.7124   16.9080 O   0  0  0  0  0  0  0  0  0  0  0  0
   16.7287   -8.4652   19.1625 H   0  0  0  0  0  0  0  0  0  0  0  0
   12.8900   -6.5313   20.4913 C   0  0  0  0  0  0  0  0  0  0  0  0
   13.7074   -7.1233   19.5182 C   0  0  0  0  0  0  0  0  0  0  0  0
   15.0290   -7.4720   19.8071 C   0  0  0  0  0  0  0  0  0  0  0  0
   15.5330   -7.2242   21.0825 C   0  0  0  0  0  0  0  0  0  0  0  0
   14.7381   -6.6325   22.0776 C   0  0  0  0  0  0  0  0  0  0  0  0
   13.3971   -6.2809   21.7778 C   0  0  0  0  0  0  0  0  0  0  0  0
   10.9278   -6.5269   18.9793 C   0  0  0  0  0  0  0  0  0  0  0  0
   11.5659   -6.1821   20.2016 O   0  0  0  0  0  0  0  0  0  0  0  0
   15.2713   -6.3955   23.3499 O   0  0  0  0  0  0  0  0  0  0  0  0
   16.5345   -6.8970   23.7671 C   0  0  0  0  0  0  0  0  0  0  0  0
   12.5284   -5.6857   22.7083 O   0  0  0  0  0  0  0  0  0  0  0  0
   12.4871   -4.2997   23.0157 C   0  0  0  0  0  0  0  0  0  0  0  0
   16.6687   -8.8546   16.5616 C   0  0  0  0  0  0  0  0  0  0  0  0
   17.2707   -7.9106   15.5124 C   0  0  0  0  0  0  0  0  0  0  0  0
   16.3062   -7.6755   14.3511 C   0  0  0  0  0  0  0  0  0  0  0  0
   15.8478   -8.9590   13.8295 N   0  0  0  0  0  0  0  0  0  0  0  0
   15.2087   -9.8822   14.7636 C   0  0  0  0  0  0  0  0  0  0  0  0
   16.1487  -10.1562   15.9372 C   0  0  0  0  0  0  0  0  0  0  0  0
   16.0420   -9.3013   12.4478 C   0  0  0  0  0  0  0  0  0  0  0  0
   15.1604  -10.1742   11.7910 C   0  0  0  0  0  0  0  0  0  0  0  0
   15.3632  -10.4859   10.4833 N   0  0  0  0  0  0  0  0  0  0  0  0
   16.4109   -9.9649    9.7947 C   0  0  0  0  0  0  0  0  0  0  0  0
   16.6120  -10.2908    8.4509 C   0  0  0  0  0  0  0  0  0  0  0  0
   17.6973   -9.7441    7.7577 C   0  0  0  0  0  0  0  0  0  0  0  0
   18.5805   -8.8732    8.4066 C   0  0  0  0  0  0  0  0  0  0  0  0
   18.3828   -8.5442    9.7519 C   0  0  0  0  0  0  0  0  0  0  0  0
   17.3001   -9.0879   10.4480 C   0  0  0  0  0  0  0  0  0  0  0  0
   17.0930   -8.7798   11.7541 N   0  0  0  0  0  0  0  0  0  0  0  0
 11 12  1  0  0  0
 12  5  1  0  0  0
  5  6  2  0  0  0
  6  7  1  0  0  0
  7  1  1  0  0  0
  7  8  2  0  0  0
  1  2  1  0  0  0
  2  3  2  0  0  0
  2 17  1  0  0  0
 17 18  1  0  0  0
 18 19  1  0  0  0
 19 20  1  0  0  0
 20 21  1  0  0  0
 20 23  1  0  0  0
 21 22  1  0  0  0
 22 17  1  0  0  0
 23 24  2  0  0  0
 24 25  1  0  0  0
 25 26  2  0  0  0
 26 27  1  0  0  0
 27 28  2  0  0  0
 28 29  1  0  0  0
 29 30  2  0  0  0
 30 31  1  0  0  0
 31 32  2  0  0  0
 31 26  1  0  0  0
 32 23  1  0  0  0
  8  9  1  0  0  0
  9 13  1  0  0  0
  9 10  2  0  0  0
 13 14  1  0  0  0
 10 15  1  0  0  0
 10  5  1  0  0  0
 15 16  1  0  0  0
  1  4  1  0  0  0
M  END
>  <minimizedAffinity>
-7.05559

>  <minimizedRMSD>
1.03627

$$$$
CHEMBL4454259 PubChem-155524231


 37 39  0  0  0  0  0  0  0  0999 V2000
   15.4960   -8.2443   17.6020 C   0  0  0  0  0  0  0  0  0  0  0  0
   15.3848   -7.6293   16.3924 N   0  0  0  0  0  0  0  0  0  0  0  0
   15.8602   -8.1773   15.2412 C   0  0  0  0  0  0  0  0  0  0  0  0
   16.5032   -9.4393   15.2763 C   0  0  0  0  0  0  0  0  0  0  0  0
   16.6146  -10.0831   16.5158 C   0  0  0  0  0  0  0  0  0  0  0  0
   16.1174   -9.4945   17.6756 C   0  0  0  0  0  0  0  0  0  0  0  0
   15.6494   -7.4153   13.9771 C   0  0  0  0  0  0  0  0  0  0  0  0
   15.1735   -6.9680   21.1618 C   0  0  0  0  0  0  0  0  0  0  0  0
   13.9171   -6.3401   21.1255 C   0  0  0  0  0  0  0  0  0  0  0  0
   13.1741   -6.3396   19.9177 C   0  0  0  0  0  0  0  0  0  0  0  0
   13.7086   -6.9666   18.7812 C   0  0  0  0  0  0  0  0  0  0  0  0
   14.9584   -7.5918   18.8152 C   0  0  0  0  0  0  0  0  0  0  0  0
   15.6828   -7.5865   20.0113 C   0  0  0  0  0  0  0  0  0  0  0  0
   11.9196   -5.7222   19.8507 O   0  0  0  0  0  0  0  0  0  0  0  0
   11.5791   -4.7638   18.8574 C   0  0  0  0  0  0  0  0  0  0  0  0
   13.4629   -5.7385   22.3115 O   0  0  0  0  0  0  0  0  0  0  0  0
   13.5587   -4.3538   22.6131 C   0  0  0  0  0  0  0  0  0  0  0  0
   15.9013   -6.9646   22.3574 O   0  0  0  0  0  0  0  0  0  0  0  0
   17.1911   -6.3789   22.4731 C   0  0  0  0  0  0  0  0  0  0  0  0
   17.0599  -10.1235   14.0807 C   0  0  0  0  0  0  0  0  0  0  0  0
   17.6578  -11.2257   14.2212 O   0  0  0  0  0  0  0  0  0  0  0  0
   16.9834   -9.5265   12.7807 N   0  0  0  0  0  0  0  0  0  0  0  0
   16.7078   -8.5835   12.7184 H   0  0  0  0  0  0  0  0  0  0  0  0
   17.2797  -10.2108   11.5885 N   0  0  0  0  0  0  0  0  0  0  0  0
   18.1463  -10.6739   11.5276 H   0  0  0  0  0  0  0  0  0  0  0  0
   16.4029  -10.2788   10.4551 C   0  0  0  0  0  0  0  0  0  0  0  0
   14.8111   -9.9304   10.6205 S   0  0  0  0  0  0  0  0  0  0  0  0
   16.9352  -10.3848    9.1291 N   0  0  0  0  0  0  0  0  0  0  0  0
   16.7854  -11.2377    8.6608 H   0  0  0  0  0  0  0  0  0  0  0  0
   17.6634   -9.3784    8.4131 C   0  0  0  0  0  0  0  0  0  0  0  0
   18.4081   -8.3898    9.0729 C   0  0  0  0  0  0  0  0  0  0  0  0
   19.1203   -7.4358    8.3414 C   0  0  0  0  0  0  0  0  0  0  0  0
   19.1001   -7.4618    6.9380 C   0  0  0  0  0  0  0  0  0  0  0  0
   18.3636   -8.4523    6.2813 C   0  0  0  0  0  0  0  0  0  0  0  0
   17.6516   -9.4060    7.0148 C   0  0  0  0  0  0  0  0  0  0  0  0
   19.8002   -6.5219    6.1766 O   0  0  0  0  0  0  0  0  0  0  0  0
   20.4574   -6.8544    4.9612 C   0  0  0  0  0  0  0  0  0  0  0  0
  8  9  2  0  0  0
  9 10  1  0  0  0
 10 11  2  0  0  0
 11 12  1  0  0  0
 12 13  2  0  0  0
 12  1  1  0  0  0
  1  2  2  0  0  0
  2  3  1  0  0  0
  3  4  2  0  0  0
  4  5  1  0  0  0
  5  6  2  0  0  0
  4 20  1  0  0  0
 20 21  2  0  0  0
 20 22  1  0  0  0
 22 24  1  0  0  0
 24 26  1  0  0  0
 26 27  2  0  0  0
 26 28  1  0  0  0
 28 30  1  0  0  0
 30 31  2  0  0  0
 31 32  1  0  0  0
 32 33  2  0  0  0
 33 34  1  0  0  0
 34 35  2  0  0  0
 33 36  1  0  0  0
 36 37  1  0  0  0
  3  7  1  0  0  0
 10 14  1  0  0  0
 14 15  1  0  0  0
  9 16  1  0  0  0
 16 17  1  0  0  0
  8 18  1  0  0  0
 18 19  1  0  0  0
 13  8  1  0  0  0
  6  1  1  0  0  0
 35 30  1  0  0  0
 22 23  1  0  0  0
 24 25  1  0  0  0
 28 29  1  0  0  0
M  END
>  <minimizedAffinity>
-7.05447

>  <minimizedRMSD>
1.30912

$$$$
CHEMBL3657343 PubChem-58522675


 32 35  0  0  0  0  0  0  0  0999 V2000
   17.2372   -9.5601   14.2578 C   0  0  0  0  0  0  0  0  0  0  0  0
   16.3289   -8.7108   14.8120 N   0  0  0  0  0  0  0  0  0  0  0  0
   16.0558   -8.7353   16.1430 C   0  0  0  0  0  0  0  0  0  0  0  0
   16.7011   -9.6258   16.9443 N   0  0  0  0  0  0  0  0  0  0  0  0
   17.6145  -10.4913   16.4343 C   0  0  0  0  0  0  0  0  0  0  0  0
   17.9031  -10.4759   15.0714 C   0  0  0  0  0  0  0  0  0  0  0  0
   15.0898   -7.8178   16.6734 N   0  0  0  0  0  0  0  0  0  0  0  0
   14.5877   -7.2863   16.0141 H   0  0  0  0  0  0  0  0  0  0  0  0
   14.7685   -7.5831   18.0539 C   0  0  0  0  0  0  0  0  0  0  0  0
   13.4498   -7.2435   18.3990 C   0  0  0  0  0  0  0  0  0  0  0  0
   13.1220   -7.0112   19.7452 C   0  0  0  0  0  0  0  0  0  0  0  0
   14.0929   -7.1141   20.7477 C   0  0  0  0  0  0  0  0  0  0  0  0
   15.4049   -7.4528   20.3972 C   0  0  0  0  0  0  0  0  0  0  0  0
   15.7386   -7.6851   19.0618 C   0  0  0  0  0  0  0  0  0  0  0  0
   13.7331   -6.8677   22.1531 C   0  0  0  0  0  0  0  0  0  0  0  0
   14.4760   -7.2785   23.0842 O   0  0  0  0  0  0  0  0  0  0  0  0
   12.5677   -6.1779   22.4671 O   0  0  0  0  0  0  0  0  0  0  0  0
   12.0079   -5.8679   21.7827 H   0  0  0  0  0  0  0  0  0  0  0  0
   12.4823   -7.1419   17.3927 O   0  0  0  0  0  0  0  0  0  0  0  0
   11.0987   -7.3644   17.6295 C   0  0  0  0  0  0  0  0  0  0  0  0
   17.5267   -9.5434   12.8854 O   0  0  0  0  0  0  0  0  0  0  0  0
   19.2113   -8.2382    7.7319 C   0  0  0  0  0  0  0  0  0  0  0  0
   18.1541   -8.7117    8.6069 N   0  0  0  0  0  0  0  0  0  0  0  0
   16.8102   -9.0869    8.1694 C   0  0  0  0  0  0  0  0  0  0  0  0
   16.1431   -9.4928    9.4521 C   0  0  0  0  0  0  0  0  0  0  0  0
   16.9993   -9.3705   10.5287 C   0  0  0  0  0  0  0  0  0  0  0  0
   18.2564   -8.8844   10.0135 C   0  0  0  0  0  0  0  0  0  0  0  0
   19.2933   -8.6443   10.6873 O   0  0  0  0  0  0  0  0  0  0  0  0
   16.6088   -9.6890   11.8320 C   0  0  0  0  0  0  0  0  0  0  0  0
   15.2880  -10.1474   12.0148 C   0  0  0  0  0  0  0  0  0  0  0  0
   14.4104  -10.2739   10.9207 C   0  0  0  0  0  0  0  0  0  0  0  0
   14.8363   -9.9449    9.6239 C   0  0  0  0  0  0  0  0  0  0  0  0
 22 23  1  0  0  0
 23 24  1  0  0  0
 24 25  1  0  0  0
 25 26  2  0  0  0
 26 27  1  0  0  0
 26 29  1  0  0  0
 27 28  2  0  0  0
 27 23  1  0  0  0
 29 30  2  0  0  0
 29 21  1  0  0  0
 30 31  1  0  0  0
 31 32  2  0  0  0
 32 25  1  0  0  0
 21  1  1  0  0  0
  1  2  2  0  0  0
  2  3  1  0  0  0
  3  4  2  0  0  0
  3  7  1  0  0  0
  4  5  1  0  0  0
  5  6  2  0  0  0
  6  1  1  0  0  0
  7  9  1  0  0  0
  9 10  2  0  0  0
 10 11  1  0  0  0
 10 19  1  0  0  0
 11 12  2  0  0  0
 12 13  1  0  0  0
 12 15  1  0  0  0
 13 14  2  0  0  0
 14  9  1  0  0  0
 15 16  2  0  0  0
 15 17  1  0  0  0
 19 20  1  0  0  0
  7  8  1  0  0  0
 17 18  1  0  0  0
M  END
>  <minimizedAffinity>
-7.03040

>  <minimizedRMSD>
1.99107

$$$$
CHEMBL1370173 MCULE-6254723698 MolPort-003-553-049 PubChem-24892192


 33 35  0  0  0  0  0  0  0  0999 V2000
   16.2966   -8.8780   17.0069 C   0  0  0  0  0  0  0  0  0  0  0  0
   16.0420   -8.3737   15.7791 N   0  0  0  0  0  0  0  0  0  0  0  0
   16.4860   -9.1534   14.7953 N   0  0  0  0  0  0  0  0  0  0  0  0
   17.0937  -10.2743   15.2413 C   0  0  0  0  0  0  0  0  0  0  0  0
   17.1032  -10.3522   16.9239 S   0  0  0  0  0  0  0  0  0  0  0  0
   14.6489   -7.6440   18.4976 C   0  0  0  0  0  0  0  0  0  0  0  0
   13.7476   -7.6475   17.6150 O   0  0  0  0  0  0  0  0  0  0  0  0
   15.9250   -8.2415   18.2330 N   0  0  0  0  0  0  0  0  0  0  0  0
   16.5979   -8.2115   18.9510 H   0  0  0  0  0  0  0  0  0  0  0  0
   12.9384   -5.7248   21.2806 C   0  0  0  0  0  0  0  0  0  0  0  0
   13.2009   -6.3240   20.0383 C   0  0  0  0  0  0  0  0  0  0  0  0
   14.3894   -7.0215   19.8076 C   0  0  0  0  0  0  0  0  0  0  0  0
   15.3290   -7.1208   20.8355 C   0  0  0  0  0  0  0  0  0  0  0  0
   15.0931   -6.5323   22.0861 C   0  0  0  0  0  0  0  0  0  0  0  0
   13.8981   -5.8304   22.3196 C   0  0  0  0  0  0  0  0  0  0  0  0
   10.7076   -4.9648   20.5072 C   0  0  0  0  0  0  0  0  0  0  0  0
   11.7390   -5.0322   21.4835 O   0  0  0  0  0  0  0  0  0  0  0  0
   16.0354   -6.6325   23.1162 O   0  0  0  0  0  0  0  0  0  0  0  0
   17.4210   -6.3833   22.9205 C   0  0  0  0  0  0  0  0  0  0  0  0
   13.7222   -5.2637   23.5934 O   0  0  0  0  0  0  0  0  0  0  0  0
   13.9792   -3.9070   23.9259 C   0  0  0  0  0  0  0  0  0  0  0  0
   17.7885  -11.5205   14.1633 S   0  0  0  0  0  0  0  0  0  0  0  0
   18.8253  -10.3100   13.2760 C   0  0  0  0  0  0  0  0  0  0  0  0
   18.3114   -9.9824   11.9073 C   0  0  0  0  0  0  0  0  0  0  0  0
   19.1384   -9.6782   11.0072 O   0  0  0  0  0  0  0  0  0  0  0  0
   16.9103  -10.0114   11.6147 N   0  0  0  0  0  0  0  0  0  0  0  0
   16.2818  -10.2333   12.3393 H   0  0  0  0  0  0  0  0  0  0  0  0
   16.3756   -9.7265   10.2901 C   0  0  0  0  0  0  0  0  0  0  0  0
   17.5038   -9.4998    9.2959 C   0  0  0  0  0  0  0  0  0  0  0  0
   17.1323  -10.0524    7.9380 C   0  0  0  0  0  0  0  0  0  0  0  0
   17.6626   -9.0314    6.9778 C   0  0  0  0  0  0  0  0  0  0  0  0
   18.2732   -7.9751    7.8687 C   0  0  0  0  0  0  0  0  0  0  0  0
   17.7480   -8.1262    9.1603 O   0  0  0  0  0  0  0  0  0  0  0  0
 16 17  1  0  0  0
 17 10  1  0  0  0
 10 11  2  0  0  0
 11 12  1  0  0  0
 12 13  2  0  0  0
 12  6  1  0  0  0
 13 14  1  0  0  0
 14 18  1  0  0  0
 14 15  2  0  0  0
 18 19  1  0  0  0
 15 20  1  0  0  0
 15 10  1  0  0  0
 20 21  1  0  0  0
  6  7  2  0  0  0
  6  8  1  0  0  0
  8  1  1  0  0  0
  1  2  2  0  0  0
  2  3  1  0  0  0
  3  4  2  0  0  0
  4 22  1  0  0  0
  4  5  1  0  0  0
 22 23  1  0  0  0
 23 24  1  0  0  0
 24 25  2  0  0  0
 24 26  1  0  0  0
 26 28  1  0  0  0
 29 28  1  0  0  0
 29 30  1  0  0  0
 30 31  1  0  0  0
 31 32  1  0  0  0
 32 33  1  0  0  0
 33 29  1  0  0  0
  5  1  1  0  0  0
  8  9  1  0  0  0
 26 27  1  0  0  0
M  END
>  <minimizedAffinity>
-7.02531

>  <minimizedRMSD>
1.79586

$$$$
CHEMBL3126615 PubChem-76318198


 39 41  0  0  0  0  0  0  0  0999 V2000
   12.6825   -6.7529   19.0623 C   0  0  0  0  0  0  0  0  0  0  0  0
   13.5284   -7.3000   18.0919 C   0  0  0  0  0  0  0  0  0  0  0  0
   14.7239   -7.9230   18.4577 C   0  0  0  0  0  0  0  0  0  0  0  0
   15.0631   -8.0109   19.8103 C   0  0  0  0  0  0  0  0  0  0  0  0
   14.2312   -7.4731   20.7959 C   0  0  0  0  0  0  0  0  0  0  0  0
   14.6412   -7.6749   22.2146 C   0  0  0  0  0  0  0  0  0  0  0  0
   13.0255   -6.8230   20.4257 C   0  0  0  0  0  0  0  0  0  0  0  0
   15.6095   -8.4913   17.4298 C   0  0  0  0  0  0  0  0  0  0  0  0
   16.7436   -9.1657   17.7069 N   0  0  0  0  0  0  0  0  0  0  0  0
   17.2271   -9.4956   16.5485 O   0  0  0  0  0  0  0  0  0  0  0  0
   16.4395   -9.0532   15.5993 C   0  0  0  0  0  0  0  0  0  0  0  0
   15.3764   -8.3957   16.1031 N   0  0  0  0  0  0  0  0  0  0  0  0
   16.6864   -9.2519   14.1663 C   0  0  0  0  0  0  0  0  0  0  0  0
   15.6192   -9.3552   13.2706 C   0  0  0  0  0  0  0  0  0  0  0  0
   15.8677   -9.5488   11.9108 C   0  0  0  0  0  0  0  0  0  0  0  0
   14.6946   -9.5848   10.9921 C   0  0  0  0  0  0  0  0  0  0  0  0
   17.2008   -9.6408   11.4478 C   0  0  0  0  0  0  0  0  0  0  0  0
   18.2357   -9.5147   12.3863 C   0  0  0  0  0  0  0  0  0  0  0  0
   17.9622   -9.3279   13.7040 N   0  0  0  0  0  0  0  0  0  0  0  0
   17.5281   -9.8533   10.0568 N   0  0  0  0  0  0  0  0  0  0  0  0
   18.8272   -9.4503    9.5318 C   0  0  0  0  0  0  0  0  0  0  0  0
   18.8952   -7.9403    9.3923 C   0  0  0  0  0  0  0  0  0  0  0  0
   16.5838  -10.4462    9.1167 C   0  0  0  0  0  0  0  0  0  0  0  0
   16.7593   -9.8340    7.7390 C   0  0  0  0  0  0  0  0  0  0  0  0
   11.5894   -4.6047   18.4865 C   0  0  0  0  0  0  0  0  0  0  0  0
   11.4049   -6.1039   18.6353 C   0  0  0  0  0  0  0  0  0  0  0  0
   12.1386   -6.2516   21.3561 O   0  0  0  0  0  0  0  0  0  0  0  0
   12.5247   -5.6280   22.5753 C   0  0  0  0  0  0  0  0  0  0  0  0
   13.1859   -4.2856   22.2957 C   0  0  0  0  0  0  0  0  0  0  0  0
   12.2175   -3.3212   22.0111 O   0  0  0  0  0  0  0  0  0  0  0  0
   11.6329   -3.2139   22.7776 H   0  0  0  0  0  0  0  0  0  0  0  0
   14.0403   -3.8453   23.4769 C   0  0  0  0  0  0  0  0  0  0  0  0
   13.2260   -3.6694   24.6719 N   0  0  0  0  0  0  0  0  0  0  0  0
   13.3282   -4.5498   25.7907 C   0  0  0  0  0  0  0  0  0  0  0  0
   14.1227   -5.5275   25.7678 O   0  0  0  0  0  0  0  0  0  0  0  0
   12.5867   -2.9216   24.7089 H   0  0  0  0  0  0  0  0  0  0  0  0
   12.4580   -4.3356   26.9769 C   0  0  0  0  0  0  0  0  0  0  0  0
   12.3227   -5.5316   27.6805 O   0  0  0  0  0  0  0  0  0  0  0  0
   11.9220   -6.2017   27.1050 H   0  0  0  0  0  0  0  0  0  0  0  0
 25 26  1  0  0  0
 26  1  1  0  0  0
  1  2  2  0  0  0
  2  3  1  0  0  0
  3  8  1  0  0  0
  3  4  2  0  0  0
  8  9  2  0  0  0
  9 10  1  0  0  0
 10 11  1  0  0  0
 11 13  1  0  0  0
 11 12  2  0  0  0
 13 14  2  0  0  0
 14 15  1  0  0  0
 15 16  1  0  0  0
 15 17  2  0  0  0
 17 20  1  0  0  0
 17 18  1  0  0  0
 20 21  1  0  0  0
 20 23  1  0  0  0
 21 22  1  0  0  0
 23 24  1  0  0  0
 18 19  2  0  0  0
 19 13  1  0  0  0
 12  8  1  0  0  0
  4  5  1  0  0  0
  5  6  1  0  0  0
  5  7  2  0  0  0
  7 27  1  0  0  0
  7  1  1  0  0  0
 27 28  1  0  0  0
 29 28  1  0  0  0
 29 30  1  0  0  0
 29 32  1  0  0  0
 32 33  1  0  0  0
 33 34  1  0  0  0
 34 35  2  0  0  0
 34 37  1  0  0  0
 37 38  1  0  0  0
 30 31  1  0  0  0
 33 36  1  0  0  0
 38 39  1  0  0  0
M  END
>  <minimizedAffinity>
-7.02498

>  <minimizedRMSD>
1.66731

$$$$
CHEMBL3618453 PubChem-45279405


 33 36  0  0  0  0  0  0  0  0999 V2000
   15.7455   -8.5079   17.3278 N   0  0  0  0  0  0  0  0  0  0  0  0
   16.6658   -9.5172   17.4754 C   0  0  0  0  0  0  0  0  0  0  0  0
   17.2473  -10.0934   16.3867 N   0  0  0  0  0  0  0  0  0  0  0  0
   16.9099   -9.6628   15.1764 N   0  0  0  0  0  0  0  0  0  0  0  0
   17.3738  -10.1008   13.9993 C   0  0  0  0  0  0  0  0  0  0  0  0
   16.7388   -9.3439   13.0172 C   0  0  0  0  0  0  0  0  0  0  0  0
   15.8736   -8.4275   13.6239 C   0  0  0  0  0  0  0  0  0  0  0  0
   16.0287   -8.6819   14.9724 C   0  0  0  0  0  0  0  0  0  0  0  0
   15.4202   -8.0678   16.0625 C   0  0  0  0  0  0  0  0  0  0  0  0
   14.6088   -7.1188   15.8804 O   0  0  0  0  0  0  0  0  0  0  0  0
   16.9479   -9.4848   11.5644 C   0  0  0  0  0  0  0  0  0  0  0  0
   18.1692   -9.1116   10.9830 C   0  0  0  0  0  0  0  0  0  0  0  0
   18.3670   -9.2454    9.6057 C   0  0  0  0  0  0  0  0  0  0  0  0
   17.3452   -9.7533    8.7992 C   0  0  0  0  0  0  0  0  0  0  0  0
   16.1257  -10.1276    9.3693 C   0  0  0  0  0  0  0  0  0  0  0  0
   15.9277   -9.9938   10.7466 C   0  0  0  0  0  0  0  0  0  0  0  0
   17.5929   -9.9208    7.0749 Cl  0  0  0  0  0  0  0  0  0  0  0  0
   13.2007   -7.1069   19.7349 C   0  0  0  0  0  0  0  0  0  0  0  0
   13.9965   -6.8825   20.8670 C   0  0  0  0  0  0  0  0  0  0  0  0
   15.3631   -7.1977   20.8257 C   0  0  0  0  0  0  0  0  0  0  0  0
   15.9336   -7.7237   19.6657 C   0  0  0  0  0  0  0  0  0  0  0  0
   15.1524   -7.9429   18.5198 C   0  0  0  0  0  0  0  0  0  0  0  0
   13.7830   -7.6371   18.5725 C   0  0  0  0  0  0  0  0  0  0  0  0
   10.9549   -7.0293   18.6959 C   0  0  0  0  0  0  0  0  0  0  0  0
   11.8374   -6.7966   19.7853 O   0  0  0  0  0  0  0  0  0  0  0  0
   13.4082   -6.3540   22.0221 O   0  0  0  0  0  0  0  0  0  0  0  0
   14.1629   -5.8068   23.1000 C   0  0  0  0  0  0  0  0  0  0  0  0
   13.4666   -4.5847   23.6913 C   0  0  0  0  0  0  0  0  0  0  0  0
   12.5565   -4.9817   24.6712 O   0  0  0  0  0  0  0  0  0  0  0  0
   11.8763   -5.5458   24.2712 H   0  0  0  0  0  0  0  0  0  0  0  0
   12.7504   -3.7743   22.6241 C   0  0  0  0  0  0  0  0  0  0  0  0
   13.6815   -3.1834   21.7696 O   0  0  0  0  0  0  0  0  0  0  0  0
   14.2597   -2.5944   22.2792 H   0  0  0  0  0  0  0  0  0  0  0  0
 24 25  1  0  0  0
 25 18  1  0  0  0
 18 19  2  0  0  0
 19 20  1  0  0  0
 19 26  1  0  0  0
 20 21  2  0  0  0
 21 22  1  0  0  0
 22 23  2  0  0  0
 22  1  1  0  0  0
 23 18  1  0  0  0
  1  2  1  0  0  0
  2  3  2  0  0  0
  3  4  1  0  0  0
  4  5  1  0  0  0
  5  6  2  0  0  0
  6  7  1  0  0  0
  6 11  1  0  0  0
  7  8  2  0  0  0
  8  9  1  0  0  0
  8  4  1  0  0  0
  9 10  2  0  0  0
  9  1  1  0  0  0
 11 12  2  0  0  0
 12 13  1  0  0  0
 13 14  2  0  0  0
 14 15  1  0  0  0
 14 17  1  0  0  0
 15 16  2  0  0  0
 16 11  1  0  0  0
 26 27  1  0  0  0
 28 27  1  0  0  0
 28 31  1  0  0  0
 28 29  1  0  0  0
 31 32  1  0  0  0
 32 33  1  0  0  0
 29 30  1  0  0  0
M  END
>  <minimizedAffinity>
-7.02304

>  <minimizedRMSD>
1.51718

$$$$
CHEMBL3193373 MolPort-004-253-704 PubChem-6903298 ZINC03262515


 27 28  0  0  0  0  0  0  0  0999 V2000
   16.5102   -9.0644   16.0754 C   0  0  0  0  0  0  0  0  0  0  0  0
   17.0932   -9.8733   16.8480 O   0  0  0  0  0  0  0  0  0  0  0  0
   15.6908   -8.0287   16.6204 N   0  0  0  0  0  0  0  0  0  0  0  0
   15.2376   -7.3997   16.0135 H   0  0  0  0  0  0  0  0  0  0  0  0
   16.9860   -9.4223   11.8224 C   0  0  0  0  0  0  0  0  0  0  0  0
   15.9733   -8.6139   12.3635 C   0  0  0  0  0  0  0  0  0  0  0  0
   15.8187   -8.4976   13.7472 C   0  0  0  0  0  0  0  0  0  0  0  0
   16.6739   -9.1874   14.6163 C   0  0  0  0  0  0  0  0  0  0  0  0
   17.6863   -9.9953   14.0815 C   0  0  0  0  0  0  0  0  0  0  0  0
   17.8408  -10.1114   12.6977 C   0  0  0  0  0  0  0  0  0  0  0  0
   17.1464   -9.5413   10.3925 N   0  0  0  0  0  0  0  0  0  0  0  0
   19.3963   -8.6513   10.0423 C   0  0  0  0  0  0  0  0  0  0  0  0
   17.9367   -8.5800    9.6309 C   0  0  0  0  0  0  0  0  0  0  0  0
   16.5341  -10.6354    9.6471 C   0  0  0  0  0  0  0  0  0  0  0  0
   16.5995  -10.3584    8.1560 C   0  0  0  0  0  0  0  0  0  0  0  0
   15.5219   -7.8940   18.0028 N   0  0  0  0  0  0  0  0  0  0  0  0
   14.5260   -7.2147   18.4692 C   0  0  0  0  0  0  0  0  0  0  0  0
   14.3157   -7.0511   19.9157 C   0  0  0  0  0  0  0  0  0  0  0  0
   15.3548   -7.3201   20.8184 C   0  0  0  0  0  0  0  0  0  0  0  0
   15.1573   -7.1653   22.1915 C   0  0  0  0  0  0  0  0  0  0  0  0
   13.9151   -6.7385   22.6825 C   0  0  0  0  0  0  0  0  0  0  0  0
   12.8789   -6.4703   21.7843 C   0  0  0  0  0  0  0  0  0  0  0  0
   13.0668   -6.6227   20.4001 C   0  0  0  0  0  0  0  0  0  0  0  0
   13.6843   -6.5735   24.0509 O   0  0  0  0  0  0  0  0  0  0  0  0
   14.6257   -5.9586   24.9198 C   0  0  0  0  0  0  0  0  0  0  0  0
   12.0293   -6.3542   19.4986 O   0  0  0  0  0  0  0  0  0  0  0  0
   10.9823   -5.4355   19.7807 C   0  0  0  0  0  0  0  0  0  0  0  0
 12 13  1  0  0  0
 13 11  1  0  0  0
 11 14  1  0  0  0
 11  5  1  0  0  0
 14 15  1  0  0  0
  5  6  2  0  0  0
  6  7  1  0  0  0
  7  8  2  0  0  0
  8  9  1  0  0  0
  8  1  1  0  0  0
  9 10  2  0  0  0
 10  5  1  0  0  0
  1  2  2  0  0  0
  1  3  1  0  0  0
  3 16  1  0  0  0
 16 17  2  0  0  0
 17 18  1  0  0  0
 18 19  2  0  0  0
 19 20  1  0  0  0
 20 21  2  0  0  0
 21 24  1  0  0  0
 21 22  1  0  0  0
 24 25  1  0  0  0
 22 23  2  0  0  0
 23 26  1  0  0  0
 23 18  1  0  0  0
 26 27  1  0  0  0
  3  4  1  0  0  0
M  END
>  <minimizedAffinity>
-7.02264

>  <minimizedRMSD>
1.75048

$$$$
CHEMBL214666 PubChem-6907854 ZINC03474518


 28 29  0  0  0  0  0  0  0  0999 V2000
   14.4717   -7.3239   17.5093 N   0  0  0  0  0  0  0  0  0  0  0  0
   14.9654   -7.6162   18.8275 C   0  0  0  0  0  0  0  0  0  0  0  0
   16.0103   -8.3041   18.9852 O   0  0  0  0  0  0  0  0  0  0  0  0
   13.6518   -6.7825   17.4480 H   0  0  0  0  0  0  0  0  0  0  0  0
   14.2430   -7.1067   20.0065 C   0  0  0  0  0  0  0  0  0  0  0  0
   14.7625   -7.2907   21.2906 C   0  0  0  0  0  0  0  0  0  0  0  0
   14.0871   -6.8117   22.4244 C   0  0  0  0  0  0  0  0  0  0  0  0
   12.8549   -6.1284   22.2620 C   0  0  0  0  0  0  0  0  0  0  0  0
   12.3335   -5.9440   20.9700 C   0  0  0  0  0  0  0  0  0  0  0  0
   13.0294   -6.4330   19.8553 C   0  0  0  0  0  0  0  0  0  0  0  0
   11.1169   -5.2687   20.8177 O   0  0  0  0  0  0  0  0  0  0  0  0
   10.7787   -4.5453   19.6420 C   0  0  0  0  0  0  0  0  0  0  0  0
   12.1096   -5.6149   23.3369 O   0  0  0  0  0  0  0  0  0  0  0  0
   12.3413   -4.3630   23.9666 C   0  0  0  0  0  0  0  0  0  0  0  0
   14.6314   -7.0106   23.6986 O   0  0  0  0  0  0  0  0  0  0  0  0
   16.0302   -7.0857   23.9412 C   0  0  0  0  0  0  0  0  0  0  0  0
   15.9463   -8.6805   16.2171 C   0  0  0  0  0  0  0  0  0  0  0  0
   15.0553   -7.7424   16.2977 N   0  0  0  0  0  0  0  0  0  0  0  0
   17.5522   -9.8156   12.4030 C   0  0  0  0  0  0  0  0  0  0  0  0
   16.3217   -9.1570   12.5022 C   0  0  0  0  0  0  0  0  0  0  0  0
   15.8190   -8.7975   13.7516 C   0  0  0  0  0  0  0  0  0  0  0  0
   16.5301   -9.0859   14.9272 C   0  0  0  0  0  0  0  0  0  0  0  0
   17.7821   -9.7556   14.8315 C   0  0  0  0  0  0  0  0  0  0  0  0
   18.2673  -10.1071   13.5657 C   0  0  0  0  0  0  0  0  0  0  0  0
   18.2854   -9.2687   10.1046 C   0  0  0  0  0  0  0  0  0  0  0  0
   18.0866  -10.1909   11.1674 O   0  0  0  0  0  0  0  0  0  0  0  0
   18.5928  -10.1029   15.9255 O   0  0  0  0  0  0  0  0  0  0  0  0
   18.1546  -10.7444   17.1139 C   0  0  0  0  0  0  0  0  0  0  0  0
 25 26  1  0  0  0
 26 19  1  0  0  0
 19 20  2  0  0  0
 20 21  1  0  0  0
 21 22  2  0  0  0
 22 23  1  0  0  0
 22 17  1  0  0  0
 23 24  2  0  0  0
 23 27  1  0  0  0
 24 19  1  0  0  0
 27 28  1  0  0  0
 17 18  2  0  0  0
 18  1  1  0  0  0
  1  2  1  0  0  0
  2  3  2  0  0  0
  2  5  1  0  0  0
  5  6  2  0  0  0
  6  7  1  0  0  0
  7  8  2  0  0  0
  7 15  1  0  0  0
  8  9  1  0  0  0
  8 13  1  0  0  0
  9 10  2  0  0  0
  9 11  1  0  0  0
 10  5  1  0  0  0
 11 12  1  0  0  0
 13 14  1  0  0  0
 15 16  1  0  0  0
  1  4  1  0  0  0
M  END
>  <minimizedAffinity>
-7.02189

>  <minimizedRMSD>
1.52692

$$$$
CHEMBL3984818 PubChem-66954874


 30 32  0  0  0  0  0  0  0  0999 V2000
   15.3430   -8.1034   15.8334 N   0  0  0  0  0  0  0  0  0  0  0  0
   16.1287   -9.1931   15.3282 C   0  0  0  0  0  0  0  0  0  0  0  0
   16.8059   -9.9252   16.0975 O   0  0  0  0  0  0  0  0  0  0  0  0
   14.8493   -7.5624   15.1755 H   0  0  0  0  0  0  0  0  0  0  0  0
   14.0819   -7.4651   17.7503 C   0  0  0  0  0  0  0  0  0  0  0  0
   15.2166   -7.7406   17.1883 N   0  0  0  0  0  0  0  0  0  0  0  0
   14.7901   -7.7555   20.1140 C   0  0  0  0  0  0  0  0  0  0  0  0
   14.7123   -7.4028   21.4631 C   0  0  0  0  0  0  0  0  0  0  0  0
   13.8441   -6.3845   21.8879 C   0  0  0  0  0  0  0  0  0  0  0  0
   13.0480   -5.7161   20.9460 C   0  0  0  0  0  0  0  0  0  0  0  0
   13.1300   -6.0745   19.5909 C   0  0  0  0  0  0  0  0  0  0  0  0
   13.9970   -7.0911   19.1688 C   0  0  0  0  0  0  0  0  0  0  0  0
   15.6385   -8.7437   19.7339 F   0  0  0  0  0  0  0  0  0  0  0  0
   12.1852   -4.7022   21.3764 O   0  0  0  0  0  0  0  0  0  0  0  0
   10.7788   -4.7535   21.1789 C   0  0  0  0  0  0  0  0  0  0  0  0
   13.7570   -6.0219   23.2366 O   0  0  0  0  0  0  0  0  0  0  0  0
   14.7570   -6.3565   24.1894 C   0  0  0  0  0  0  0  0  0  0  0  0
   16.1693   -9.4417   13.8627 C   0  0  0  0  0  0  0  0  0  0  0  0
   17.5058  -10.0548   13.4813 C   0  0  0  0  0  0  0  0  0  0  0  0
   17.8782   -9.6537   12.1320 N   0  0  0  0  0  0  0  0  0  0  0  0
   19.0400   -9.0508   11.7921 C   0  0  0  0  0  0  0  0  0  0  0  0
   19.0284   -8.7923   10.4253 C   0  0  0  0  0  0  0  0  0  0  0  0
   17.8159   -9.2482    9.9357 C   0  0  0  0  0  0  0  0  0  0  0  0
   17.1393   -9.7654   11.0117 C   0  0  0  0  0  0  0  0  0  0  0  0
   15.8590  -10.3077   10.8858 C   0  0  0  0  0  0  0  0  0  0  0  0
   15.2741  -10.3155    9.6081 C   0  0  0  0  0  0  0  0  0  0  0  0
   15.9672   -9.7878    8.4987 C   0  0  0  0  0  0  0  0  0  0  0  0
   17.2544   -9.2440    8.6519 C   0  0  0  0  0  0  0  0  0  0  0  0
   17.9694   -8.6884    7.4696 C   0  0  0  0  0  0  0  0  0  0  0  0
   20.1264   -8.1358    9.6635 C   0  0  0  0  0  0  0  0  0  0  0  0
  7  8  2  0  0  0
  8  9  1  0  0  0
  9 10  2  0  0  0
 10 11  1  0  0  0
 11 12  2  0  0  0
 12  5  1  0  0  0
  5  6  2  0  0  0
  6  1  1  0  0  0
  1  2  1  0  0  0
  2  3  2  0  0  0
  2 18  1  0  0  0
 18 19  1  0  0  0
 19 20  1  0  0  0
 20 21  1  0  0  0
 21 22  2  0  0  0
 22 23  1  0  0  0
 23 24  2  0  0  0
 24 25  1  0  0  0
 25 26  2  0  0  0
 26 27  1  0  0  0
 27 28  2  0  0  0
 28 29  1  0  0  0
 22 30  1  0  0  0
 10 14  1  0  0  0
 14 15  1  0  0  0
  9 16  1  0  0  0
 16 17  1  0  0  0
  7 13  1  0  0  0
 12  7  1  0  0  0
 24 20  1  0  0  0
 28 23  1  0  0  0
  1  4  1  0  0  0
M  END
>  <minimizedAffinity>
-7.00505

>  <minimizedRMSD>
1.55467

$$$$
CHEMBL5205500


 33 36  0  0  0  0  0  0  0  0999 V2000
   16.1084   -8.9091   17.2747 C   0  0  0  0  0  0  0  0  0  0  0  0
   16.3363   -9.4316   18.3988 O   0  0  0  0  0  0  0  0  0  0  0  0
   15.1996   -7.8053   17.1414 N   0  0  0  0  0  0  0  0  0  0  0  0
   15.0645   -7.4418   16.2365 H   0  0  0  0  0  0  0  0  0  0  0  0
   17.2741   -9.6849   12.6472 C   0  0  0  0  0  0  0  0  0  0  0  0
   17.2422   -9.7286   14.0395 C   0  0  0  0  0  0  0  0  0  0  0  0
   18.1031  -10.5196   14.7510 C   0  0  0  0  0  0  0  0  0  0  0  0
   19.0485  -11.3305   14.1241 C   0  0  0  0  0  0  0  0  0  0  0  0
   19.0989  -11.3110   12.7171 C   0  0  0  0  0  0  0  0  0  0  0  0
   18.2189  -10.4883   11.9818 C   0  0  0  0  0  0  0  0  0  0  0  0
   18.2580  -10.4769   10.5832 O   0  0  0  0  0  0  0  0  0  0  0  0
   17.6207   -9.4538    9.8043 C   0  0  0  0  0  0  0  0  0  0  0  0
   16.4580   -8.8178   10.5304 C   0  0  0  0  0  0  0  0  0  0  0  0
   16.3234   -8.8960   11.8569 C   0  0  0  0  0  0  0  0  0  0  0  0
   18.6385   -8.3773    9.4802 C   0  0  0  0  0  0  0  0  0  0  0  0
   17.1245  -10.0551    8.5063 C   0  0  0  0  0  0  0  0  0  0  0  0
   17.8313  -10.3533   16.0921 C   0  0  0  0  0  0  0  0  0  0  0  0
   16.7792   -9.4325   16.0803 C   0  0  0  0  0  0  0  0  0  0  0  0
   16.4496   -9.0800   14.8510 O   0  0  0  0  0  0  0  0  0  0  0  0
   14.4845   -7.1969   18.1911 N   0  0  0  0  0  0  0  0  0  0  0  0
   14.7235   -7.4246   19.4441 C   0  0  0  0  0  0  0  0  0  0  0  0
   13.9517   -6.7668   20.5029 C   0  0  0  0  0  0  0  0  0  0  0  0
   12.7384   -6.1243   20.2280 C   0  0  0  0  0  0  0  0  0  0  0  0
   12.0129   -5.4997   21.2543 C   0  0  0  0  0  0  0  0  0  0  0  0
   12.5131   -5.5230   22.5646 C   0  0  0  0  0  0  0  0  0  0  0  0
   13.7279   -6.1644   22.8488 C   0  0  0  0  0  0  0  0  0  0  0  0
   14.4409   -6.7841   21.8103 C   0  0  0  0  0  0  0  0  0  0  0  0
   11.8009   -4.9066   23.5876 O   0  0  0  0  0  0  0  0  0  0  0  0
   10.9892   -4.4774   23.4007 H   0  0  0  0  0  0  0  0  0  0  0  0
   14.2056   -6.1737   24.1637 O   0  0  0  0  0  0  0  0  0  0  0  0
   15.2977   -6.9827   24.5795 C   0  0  0  0  0  0  0  0  0  0  0  0
   10.7991   -4.8536   20.9960 O   0  0  0  0  0  0  0  0  0  0  0  0
   10.4519   -4.3544   19.7116 C   0  0  0  0  0  0  0  0  0  0  0  0
  5  6  2  0  0  0
  6  7  1  0  0  0
  7  8  2  0  0  0
  8  9  1  0  0  0
  9 10  2  0  0  0
 10 11  1  0  0  0
 11 12  1  0  0  0
 12 13  1  0  0  0
 13 14  2  0  0  0
 12 15  1  0  0  0
 12 16  1  0  0  0
  7 17  1  0  0  0
 17 18  2  0  0  0
 18 19  1  0  0  0
 18  1  1  0  0  0
  1  2  2  0  0  0
  1  3  1  0  0  0
  3 20  1  0  0  0
 20 21  2  0  0  0
 21 22  1  0  0  0
 22 23  2  0  0  0
 23 24  1  0  0  0
 24 25  2  0  0  0
 25 26  1  0  0  0
 26 27  2  0  0  0
 26 30  1  0  0  0
 30 31  1  0  0  0
 25 28  1  0  0  0
 24 32  1  0  0  0
 32 33  1  0  0  0
 10  5  1  0  0  0
 27 22  1  0  0  0
 14  5  1  0  0  0
 19  6  1  0  0  0
  3  4  1  0  0  0
 28 29  1  0  0  0
M  END
>  <minimizedAffinity>
-6.99634

>  <minimizedRMSD>
1.96380

$$$$
CHEMBL3753275 PubChem-124171494


 33 35  0  0  0  0  0  0  0  0999 V2000
   14.2730   -7.5731   18.1776 C   0  0  0  0  0  0  0  0  0  0  0  0
   12.9632   -7.4152   17.7031 C   0  0  0  0  0  0  0  0  0  0  0  0
   11.9768   -6.8048   18.4791 C   0  0  0  0  0  0  0  0  0  0  0  0
   12.2915   -6.3303   19.7676 C   0  0  0  0  0  0  0  0  0  0  0  0
   13.5917   -6.4932   20.2496 C   0  0  0  0  0  0  0  0  0  0  0  0
   14.5836   -7.1037   19.4770 C   0  0  0  0  0  0  0  0  0  0  0  0
   16.1774   -7.2412   20.2065 Cl  0  0  0  0  0  0  0  0  0  0  0  0
   10.7249   -6.7030   17.9693 F   0  0  0  0  0  0  0  0  0  0  0  0
   16.2011   -8.9801   15.5731 C   0  0  0  0  0  0  0  0  0  0  0  0
   15.0847   -8.3246   15.9436 N   0  0  0  0  0  0  0  0  0  0  0  0
   15.2547   -8.2306   17.2812 C   0  0  0  0  0  0  0  0  0  0  0  0
   16.4090   -8.7982   17.6854 N   0  0  0  0  0  0  0  0  0  0  0  0
   16.9642   -9.2493   16.6028 O   0  0  0  0  0  0  0  0  0  0  0  0
   14.6350   -9.8436   11.0070 C   0  0  0  0  0  0  0  0  0  0  0  0
   15.7713   -9.7662   11.9668 C   0  0  0  0  0  0  0  0  0  0  0  0
   17.0836  -10.0337   11.5472 C   0  0  0  0  0  0  0  0  0  0  0  0
   18.1178   -9.9471   12.4903 C   0  0  0  0  0  0  0  0  0  0  0  0
   17.8385   -9.6025   13.8121 C   0  0  0  0  0  0  0  0  0  0  0  0
   16.5179   -9.3443   14.1877 C   0  0  0  0  0  0  0  0  0  0  0  0
   15.5237   -9.4320   13.2621 N   0  0  0  0  0  0  0  0  0  0  0  0
   17.3291  -10.3783   10.2063 O   0  0  0  0  0  0  0  0  0  0  0  0
   17.8350   -9.4947    9.2020 C   0  0  0  0  0  0  0  0  0  0  0  0
   16.7641   -9.1252    8.1906 C   0  0  0  0  0  0  0  0  0  0  0  0
   18.4616   -8.2533    9.8126 C   0  0  0  0  0  0  0  0  0  0  0  0
   11.3573   -5.7057   20.6061 O   0  0  0  0  0  0  0  0  0  0  0  0
   11.0475   -4.3154   20.5755 C   0  0  0  0  0  0  0  0  0  0  0  0
   11.3959   -3.6318   21.8969 C   0  0  0  0  0  0  0  0  0  0  0  0
   12.8352   -3.5569   22.0899 N   0  0  0  0  0  0  0  0  0  0  0  0
   13.2196   -4.4998   22.1505 H   0  0  0  0  0  0  0  0  0  0  0  0
   13.0367   -3.0515   22.9526 H   0  0  0  0  0  0  0  0  0  0  0  0
   10.7207   -4.2983   23.0907 C   0  0  0  0  0  0  0  0  0  0  0  0
   11.4093   -5.4497   23.4794 O   0  0  0  0  0  0  0  0  0  0  0  0
   11.4176   -6.0845   22.7460 H   0  0  0  0  0  0  0  0  0  0  0  0
 14 15  1  0  0  0
 15 16  2  0  0  0
 16 17  1  0  0  0
 17 18  2  0  0  0
 18 19  1  0  0  0
 19 20  2  0  0  0
 19  9  1  0  0  0
  9 10  2  0  0  0
 10 11  1  0  0  0
 11 12  2  0  0  0
 12 13  1  0  0  0
 11  1  1  0  0  0
  1  2  2  0  0  0
  2  3  1  0  0  0
  3  4  2  0  0  0
  4  5  1  0  0  0
  5  6  2  0  0  0
  6  7  1  0  0  0
  4 25  1  0  0  0
 25 26  1  0  0  0
 27 26  1  0  0  0
 27 31  1  0  0  0
 31 32  1  0  0  0
 27 28  1  0  0  0
  3  8  1  0  0  0
 16 21  1  0  0  0
 21 22  1  0  0  0
 22 23  1  0  0  0
 22 24  1  0  0  0
 20 15  1  0  0  0
 13  9  1  0  0  0
  6  1  1  0  0  0
 32 33  1  0  0  0
 28 29  1  0  0  0
 28 30  1  0  0  0
M  END
>  <minimizedAffinity>
-6.99129

>  <minimizedRMSD>
1.77622

$$$$
CHEMBL3668602 PubChem-68284221


 39 42  0  0  0  0  0  0  0  0999 V2000
   18.1599  -10.8533   14.3449 C   0  0  0  0  0  0  0  0  0  0  0  0
   18.6100  -11.2923   15.7326 C   0  0  0  0  0  0  0  0  0  0  0  0
   17.7683  -10.5290   16.7378 C   0  0  0  0  0  0  0  0  0  0  0  0
   17.0324   -9.5454   15.9715 N   0  0  0  0  0  0  0  0  0  0  0  0
   17.2359   -9.6624   14.5375 C   0  0  0  0  0  0  0  0  0  0  0  0
   16.2669   -8.5020   16.5873 C   0  0  0  0  0  0  0  0  0  0  0  0
   15.8168   -7.5571   15.8854 O   0  0  0  0  0  0  0  0  0  0  0  0
   16.0636   -8.5122   18.0052 N   0  0  0  0  0  0  0  0  0  0  0  0
   18.3946  -12.7178   15.8924 N   0  0  0  0  0  0  0  0  0  0  0  0
   16.6440   -9.1052   18.5349 H   0  0  0  0  0  0  0  0  0  0  0  0
   17.4058  -12.9294   15.7586 H   0  0  0  0  0  0  0  0  0  0  0  0
   18.6793  -13.0017   16.8298 H   0  0  0  0  0  0  0  0  0  0  0  0
   15.0946   -7.7401   18.7246 C   0  0  0  0  0  0  0  0  0  0  0  0
   15.3407   -7.1080   19.9361 C   0  0  0  0  0  0  0  0  0  0  0  0
   14.1906   -6.5489   20.3872 N   0  0  0  0  0  0  0  0  0  0  0  0
   13.2273   -6.8500   19.4879 C   0  0  0  0  0  0  0  0  0  0  0  0
   11.8666   -6.5385   19.5478 C   0  0  0  0  0  0  0  0  0  0  0  0
   11.0360   -7.0143   18.5185 C   0  0  0  0  0  0  0  0  0  0  0  0
   11.5688   -7.7943   17.4717 C   0  0  0  0  0  0  0  0  0  0  0  0
   12.9397   -8.0987   17.4361 C   0  0  0  0  0  0  0  0  0  0  0  0
   13.7459   -7.5923   18.4557 C   0  0  0  0  0  0  0  0  0  0  0  0
   14.0629   -5.8127   21.6145 C   0  0  0  0  0  0  0  0  0  0  0  0
   15.0686   -5.6409   22.3538 O   0  0  0  0  0  0  0  0  0  0  0  0
   12.8087   -5.2682   22.0133 N   0  0  0  0  0  0  0  0  0  0  0  0
   12.0144   -5.3946   21.4456 H   0  0  0  0  0  0  0  0  0  0  0  0
   12.7362   -4.7655   22.8566 H   0  0  0  0  0  0  0  0  0  0  0  0
   15.9374   -9.9053   13.8349 C   0  0  0  0  0  0  0  0  0  0  0  0
   14.8654  -10.0054   14.4924 O   0  0  0  0  0  0  0  0  0  0  0  0
   15.9273  -10.0146   12.4127 N   0  0  0  0  0  0  0  0  0  0  0  0
   16.7840  -10.0003   11.9279 H   0  0  0  0  0  0  0  0  0  0  0  0
   14.6925  -10.1465   11.6555 C   0  0  0  0  0  0  0  0  0  0  0  0
   14.7451   -9.2578   10.4236 C   0  0  0  0  0  0  0  0  0  0  0  0
   16.0733   -9.3533    9.7478 C   0  0  0  0  0  0  0  0  0  0  0  0
   17.2139   -8.7707   10.3178 C   0  0  0  0  0  0  0  0  0  0  0  0
   18.4491   -8.8670    9.6697 C   0  0  0  0  0  0  0  0  0  0  0  0
   18.5472   -9.5385    8.4474 C   0  0  0  0  0  0  0  0  0  0  0  0
   17.4087  -10.1113    7.8714 C   0  0  0  0  0  0  0  0  0  0  0  0
   16.1732  -10.0166    8.5199 C   0  0  0  0  0  0  0  0  0  0  0  0
   19.5462   -8.2944   10.2178 F   0  0  0  0  0  0  0  0  0  0  0  0
  1  2  1  0  0  0
  2  3  1  0  0  0
  2  9  1  0  0  0
  3  4  1  0  0  0
  4  5  1  0  0  0
  4  6  1  0  0  0
  5 27  1  0  0  0
  5  1  1  0  0  0
 27 28  2  0  0  0
 27 29  1  0  0  0
 29 31  1  0  0  0
 31 32  1  0  0  0
 32 33  1  0  0  0
 33 34  2  0  0  0
 34 35  1  0  0  0
 35 36  2  0  0  0
 35 39  1  0  0  0
 36 37  1  0  0  0
 37 38  2  0  0  0
 38 33  1  0  0  0
  6  7  2  0  0  0
  6  8  1  0  0  0
  8 13  1  0  0  0
 13 14  2  0  0  0
 14 15  1  0  0  0
 15 16  1  0  0  0
 15 22  1  0  0  0
 16 17  2  0  0  0
 17 18  1  0  0  0
 18 19  2  0  0  0
 19 20  1  0  0  0
 20 21  2  0  0  0
 21 13  1  0  0  0
 21 16  1  0  0  0
 22 23  2  0  0  0
 22 24  1  0  0  0
 29 30  1  0  0  0
  8 10  1  0  0  0
 24 25  1  0  0  0
 24 26  1  0  0  0
  9 11  1  0  0  0
  9 12  1  0  0  0
M  END
>  <minimizedAffinity>
-6.98760

>  <minimizedRMSD>
1.79762

$$$$
CHEMBL1861567 PubChem-56669712


 29 31  0  0  0  0  0  0  0  0999 V2000
   16.2243   -8.8314   14.9569 C   0  0  0  0  0  0  0  0  0  0  0  0
   17.0089   -9.5871   15.8087 C   0  0  0  0  0  0  0  0  0  0  0  0
   16.6060   -9.3015   17.0238 O   0  0  0  0  0  0  0  0  0  0  0  0
   15.6320   -8.4240   16.9354 C   0  0  0  0  0  0  0  0  0  0  0  0
   15.3487   -8.0914   15.6605 N   0  0  0  0  0  0  0  0  0  0  0  0
   14.9295   -7.8662   18.0998 C   0  0  0  0  0  0  0  0  0  0  0  0
   15.5596   -7.8243   19.3441 C   0  0  0  0  0  0  0  0  0  0  0  0
   14.9081   -7.2950   20.4696 C   0  0  0  0  0  0  0  0  0  0  0  0
   13.5871   -6.7954   20.3371 C   0  0  0  0  0  0  0  0  0  0  0  0
   12.9553   -6.8397   19.0821 C   0  0  0  0  0  0  0  0  0  0  0  0
   13.6299   -7.3735   17.9748 C   0  0  0  0  0  0  0  0  0  0  0  0
   15.5627   -7.2644   21.7064 O   0  0  0  0  0  0  0  0  0  0  0  0
   16.7171   -6.4724   21.9532 C   0  0  0  0  0  0  0  0  0  0  0  0
   12.8579   -6.2481   21.4065 O   0  0  0  0  0  0  0  0  0  0  0  0
   12.9782   -4.9139   21.8783 C   0  0  0  0  0  0  0  0  0  0  0  0
   11.6517   -6.3452   18.9593 O   0  0  0  0  0  0  0  0  0  0  0  0
   10.5521   -7.1581   18.5718 C   0  0  0  0  0  0  0  0  0  0  0  0
   16.2993   -8.8028   13.4607 C   0  0  0  0  0  0  0  0  0  0  0  0
   17.2835   -9.7501   12.9584 N   0  0  0  0  0  0  0  0  0  0  0  0
   18.2138   -9.3324   12.9802 H   0  0  0  0  0  0  0  0  0  0  0  0
   16.9120  -10.0684   11.5894 C   0  0  0  0  0  0  0  0  0  0  0  0
   18.1426   -8.3366    8.4472 C   0  0  0  0  0  0  0  0  0  0  0  0
   19.4174   -7.9269    8.8522 C   0  0  0  0  0  0  0  0  0  0  0  0
   19.8731   -8.2094   10.1434 C   0  0  0  0  0  0  0  0  0  0  0  0
   19.0535   -8.9024   11.0384 C   0  0  0  0  0  0  0  0  0  0  0  0
   17.7748   -9.3091   10.6449 C   0  0  0  0  0  0  0  0  0  0  0  0
   17.3228   -9.0332    9.3507 C   0  0  0  0  0  0  0  0  0  0  0  0
   18.6093   -7.9854    6.0438 C   0  0  0  0  0  0  0  0  0  0  0  0
   17.7178   -8.0417    7.1489 O   0  0  0  0  0  0  0  0  0  0  0  0
 28 29  1  0  0  0
 29 22  1  0  0  0
 22 23  2  0  0  0
 23 24  1  0  0  0
 24 25  2  0  0  0
 25 26  1  0  0  0
 26 21  1  0  0  0
 26 27  2  0  0  0
 21 19  1  0  0  0
 19 18  1  0  0  0
 18  1  1  0  0  0
  1  2  2  0  0  0
  2  3  1  0  0  0
  3  4  1  0  0  0
  4  6  1  0  0  0
  4  5  2  0  0  0
  6  7  2  0  0  0
  7  8  1  0  0  0
  8 12  1  0  0  0
  8  9  2  0  0  0
 12 13  1  0  0  0
  9 14  1  0  0  0
  9 10  1  0  0  0
 14 15  1  0  0  0
 10 16  1  0  0  0
 10 11  2  0  0  0
 16 17  1  0  0  0
 11  6  1  0  0  0
  5  1  1  0  0  0
 27 22  1  0  0  0
 19 20  1  0  0  0
M  END
>  <minimizedAffinity>
-6.98506

>  <minimizedRMSD>
1.93795

$$$$
CHEMBL1698181 9586246 CSC026322533 MCULE-9161912361 MolPort-004-115-362 PubChem-16250914 Z28259828 ZINC000009586246 ZINC09586246


 35 37  0  0  0  0  0  0  0  0999 V2000
   17.4266  -10.0635   14.7244 C   0  0  0  0  0  0  0  0  0  0  0  0
   16.7053   -8.9158   14.3791 C   0  0  0  0  0  0  0  0  0  0  0  0
   15.9947   -8.2142   15.3568 C   0  0  0  0  0  0  0  0  0  0  0  0
   16.0000   -8.6535   16.6896 C   0  0  0  0  0  0  0  0  0  0  0  0
   16.7272   -9.8042   17.0296 C   0  0  0  0  0  0  0  0  0  0  0  0
   17.4382  -10.5054   16.0518 C   0  0  0  0  0  0  0  0  0  0  0  0
   15.2539   -7.9129   17.7222 C   0  0  0  0  0  0  0  0  0  0  0  0
   14.2263   -7.2552   17.4005 O   0  0  0  0  0  0  0  0  0  0  0  0
   15.7026   -7.9477   19.0862 N   0  0  0  0  0  0  0  0  0  0  0  0
   16.4997   -8.4944   19.2736 H   0  0  0  0  0  0  0  0  0  0  0  0
   15.1124   -7.2706   20.2039 C   0  0  0  0  0  0  0  0  0  0  0  0
   15.9237   -6.9129   21.2765 C   0  0  0  0  0  0  0  0  0  0  0  0
   15.4073   -6.2481   22.3918 C   0  0  0  0  0  0  0  0  0  0  0  0
   14.0239   -5.9261   22.4407 C   0  0  0  0  0  0  0  0  0  0  0  0
   13.1945   -6.2902   21.3457 C   0  0  0  0  0  0  0  0  0  0  0  0
   13.7539   -6.9562   20.2455 C   0  0  0  0  0  0  0  0  0  0  0  0
   16.3207   -5.9378   23.4123 O   0  0  0  0  0  0  0  0  0  0  0  0
   16.9127   -6.8779   24.2978 C   0  0  0  0  0  0  0  0  0  0  0  0
   13.5252   -5.2572   23.5724 O   0  0  0  0  0  0  0  0  0  0  0  0
   13.4388   -3.8486   23.7276 C   0  0  0  0  0  0  0  0  0  0  0  0
   11.8266   -5.9914   21.3530 O   0  0  0  0  0  0  0  0  0  0  0  0
   11.2710   -4.8742   20.6691 C   0  0  0  0  0  0  0  0  0  0  0  0
   18.3318  -10.9270   13.4953 S   0  0  0  0  0  0  0  0  0  0  0  0
   17.5444  -12.1277   13.0502 O   0  0  0  0  0  0  0  0  0  0  0  0
   19.6447  -11.3980   14.0552 O   0  0  0  0  0  0  0  0  0  0  0  0
   18.6267   -9.8736   12.1508 N   0  0  0  0  0  0  0  0  0  0  0  0
   19.6284   -8.8309   12.2929 C   0  0  0  0  0  0  0  0  0  0  0  0
   17.9894   -9.2486    9.8249 C   0  0  0  0  0  0  0  0  0  0  0  0
   17.0334   -9.2915    8.8031 C   0  0  0  0  0  0  0  0  0  0  0  0
   15.7612   -9.8163    9.0347 C   0  0  0  0  0  0  0  0  0  0  0  0
   15.4300  -10.3108   10.2961 C   0  0  0  0  0  0  0  0  0  0  0  0
   16.3766  -10.2956   11.3211 C   0  0  0  0  0  0  0  0  0  0  0  0
   17.6606   -9.7780   11.1004 C   0  0  0  0  0  0  0  0  0  0  0  0
   19.3860   -7.4702    8.7723 C   0  0  0  0  0  0  0  0  0  0  0  0
   19.2281   -8.6690    9.5181 O   0  0  0  0  0  0  0  0  0  0  0  0
 34 35  1  0  0  0
 35 28  1  0  0  0
 28 29  2  0  0  0
 29 30  1  0  0  0
 30 31  2  0  0  0
 31 32  1  0  0  0
 32 33  2  0  0  0
 33 26  1  0  0  0
 33 28  1  0  0  0
 26 27  1  0  0  0
 26 23  1  0  0  0
 23 24  2  0  0  0
 23 25  2  0  0  0
 23  1  1  0  0  0
  1  2  2  0  0  0
  2  3  1  0  0  0
  3  4  2  0  0  0
  4  5  1  0  0  0
  4  7  1  0  0  0
  5  6  2  0  0  0
  6  1  1  0  0  0
  7  8  2  0  0  0
  7  9  1  0  0  0
  9 11  1  0  0  0
 11 12  2  0  0  0
 12 13  1  0  0  0
 13 17  1  0  0  0
 13 14  2  0  0  0
 17 18  1  0  0  0
 14 19  1  0  0  0
 14 15  1  0  0  0
 19 20  1  0  0  0
 15 21  1  0  0  0
 15 16  2  0  0  0
 21 22  1  0  0  0
 16 11  1  0  0  0
  9 10  1  0  0  0
M  END
>  <minimizedAffinity>
-6.97162

>  <minimizedRMSD>
1.92555

$$$$
CHEMBL4524159 117197765 LN03250977 MCULE-1701178413 MCULE-5548350476 MolPort-046-418-409 ZINC000117197765


 30 32  0  0  0  0  0  0  0  0999 V2000
   16.1312   -9.6702   12.9027 C   0  0  0  0  0  0  0  0  0  0  0  0
   14.7451  -10.1862   13.2379 C   0  0  0  0  0  0  0  0  0  0  0  0
   17.4785   -9.5287   10.7645 C   0  0  0  0  0  0  0  0  0  0  0  0
   18.5463   -9.7828   11.3854 O   0  0  0  0  0  0  0  0  0  0  0  0
   16.2328   -9.4728   11.4648 N   0  0  0  0  0  0  0  0  0  0  0  0
   15.4109   -9.2934   10.9533 H   0  0  0  0  0  0  0  0  0  0  0  0
   18.0756   -8.7028    7.3230 C   0  0  0  0  0  0  0  0  0  0  0  0
   18.5358   -8.6691    8.6282 C   0  0  0  0  0  0  0  0  0  0  0  0
   17.5105   -9.2924    9.3171 C   0  0  0  0  0  0  0  0  0  0  0  0
   16.5251   -9.6628    8.4787 N   0  0  0  0  0  0  0  0  0  0  0  0
   16.8716   -9.3012    7.2559 N   0  0  0  0  0  0  0  0  0  0  0  0
   16.3418   -9.4445    6.4386 H   0  0  0  0  0  0  0  0  0  0  0  0
   20.0005   -7.3248    6.3147 C   0  0  0  0  0  0  0  0  0  0  0  0
   18.7825   -8.1671    6.1521 C   0  0  0  0  0  0  0  0  0  0  0  0
   18.3596   -8.4185    4.9931 O   0  0  0  0  0  0  0  0  0  0  0  0
   16.3798   -8.3520   13.6246 C   0  0  0  0  0  0  0  0  0  0  0  0
   16.2510   -8.5205   15.0639 N   0  0  0  0  0  0  0  0  0  0  0  0
   16.9773   -9.3613   15.8235 C   0  0  0  0  0  0  0  0  0  0  0  0
   16.5728   -9.2099   17.1399 C   0  0  0  0  0  0  0  0  0  0  0  0
   15.5855   -8.2362   17.0763 C   0  0  0  0  0  0  0  0  0  0  0  0
   15.4086   -7.8285   15.8067 N   0  0  0  0  0  0  0  0  0  0  0  0
   14.8259   -7.7050   18.2207 C   0  0  0  0  0  0  0  0  0  0  0  0
   15.3882   -7.6894   19.5041 C   0  0  0  0  0  0  0  0  0  0  0  0
   14.6630   -7.1847   20.5862 C   0  0  0  0  0  0  0  0  0  0  0  0
   13.3689   -6.6902   20.3986 C   0  0  0  0  0  0  0  0  0  0  0  0
   12.7974   -6.7024   19.1131 C   0  0  0  0  0  0  0  0  0  0  0  0
   11.1751   -6.0945   18.8161 Cl  0  0  0  0  0  0  0  0  0  0  0  0
   13.5288   -7.2091   18.0345 C   0  0  0  0  0  0  0  0  0  0  0  0
   12.6493   -6.1774   21.5347 C   0  0  0  0  0  0  0  0  0  0  0  0
   12.0707   -5.7650   22.4482 N   0  0  0  0  0  0  0  0  0  0  0  0
 13 14  1  0  0  0
 14 15  2  0  0  0
 14  7  1  0  0  0
  7  8  2  0  0  0
  8  9  1  0  0  0
  9  3  1  0  0  0
  3  4  2  0  0  0
  3  5  1  0  0  0
  1  5  1  0  0  0
  1  2  1  0  0  0
  1 16  1  0  0  0
 16 17  1  0  0  0
 17 18  1  0  0  0
 18 19  2  0  0  0
 19 20  1  0  0  0
 20 22  1  0  0  0
 22 23  2  0  0  0
 23 24  1  0  0  0
 24 25  2  0  0  0
 25 29  1  0  0  0
 29 30  3  0  0  0
 25 26  1  0  0  0
 26 27  1  0  0  0
 26 28  2  0  0  0
 20 21  2  0  0  0
  9 10  2  0  0  0
 10 11  1  0  0  0
 11  7  1  0  0  0
 21 17  1  0  0  0
 28 22  1  0  0  0
  5  6  1  0  0  0
 11 12  1  0  0  0
M  END
>  <minimizedAffinity>
-6.96113

>  <minimizedRMSD>
1.00207

$$$$
CHEMBL3410048 PubChem-118732102


 34 37  0  0  0  0  0  0  0  0999 V2000
   15.2939   -7.2785   20.8455 C   0  0  0  0  0  0  0  0  0  0  0  0
   14.2555   -6.4057   20.4960 C   0  0  0  0  0  0  0  0  0  0  0  0
   13.7685   -6.4134   19.1823 C   0  0  0  0  0  0  0  0  0  0  0  0
   14.2849   -7.3099   18.2432 C   0  0  0  0  0  0  0  0  0  0  0  0
   15.3059   -8.2021   18.6016 C   0  0  0  0  0  0  0  0  0  0  0  0
   15.8101   -8.1751   19.9056 C   0  0  0  0  0  0  0  0  0  0  0  0
   13.7620   -5.4276   21.4816 C   0  0  0  0  0  0  0  0  0  0  0  0
   14.6135   -4.9795   22.4525 N   0  0  0  0  0  0  0  0  0  0  0  0
   14.2320   -4.0408   23.3715 C   0  0  0  0  0  0  0  0  0  0  0  0
   12.9712   -3.5217   23.3469 N   0  0  0  0  0  0  0  0  0  0  0  0
   12.1082   -3.9583   22.3991 C   0  0  0  0  0  0  0  0  0  0  0  0
   12.4612   -4.8992   21.4742 C   0  0  0  0  0  0  0  0  0  0  0  0
   11.3156   -5.1433   20.7417 C   0  0  0  0  0  0  0  0  0  0  0  0
   10.3287   -4.3156   21.2637 C   0  0  0  0  0  0  0  0  0  0  0  0
   10.8234   -3.5797   22.2886 N   0  0  0  0  0  0  0  0  0  0  0  0
   11.0927   -6.1613   19.6793 C   0  0  0  0  0  0  0  0  0  0  0  0
   10.3458   -2.9131   22.8334 H   0  0  0  0  0  0  0  0  0  0  0  0
   15.8620   -9.1366   17.6666 N   0  0  0  0  0  0  0  0  0  0  0  0
   15.9096   -9.0041   16.2368 C   0  0  0  0  0  0  0  0  0  0  0  0
   15.3928   -7.9997   15.6763 O   0  0  0  0  0  0  0  0  0  0  0  0
   16.5230  -10.0422   15.4449 N   0  0  0  0  0  0  0  0  0  0  0  0
   16.2531   -9.9569   18.0452 H   0  0  0  0  0  0  0  0  0  0  0  0
   16.8410   -9.8720   14.0449 C   0  0  0  0  0  0  0  0  0  0  0  0
   18.1373  -10.1426   13.5758 C   0  0  0  0  0  0  0  0  0  0  0  0
   18.4603   -9.9619   12.2285 C   0  0  0  0  0  0  0  0  0  0  0  0
   17.4911   -9.5012   11.3246 C   0  0  0  0  0  0  0  0  0  0  0  0
   16.2019   -9.2224   11.7860 C   0  0  0  0  0  0  0  0  0  0  0  0
   15.8802   -9.4032   13.1337 C   0  0  0  0  0  0  0  0  0  0  0  0
   17.7816   -9.3115    9.9708 O   0  0  0  0  0  0  0  0  0  0  0  0
   18.7095   -8.3371    9.5140 C   0  0  0  0  0  0  0  0  0  0  0  0
   16.8538  -11.3059   16.0995 C   0  0  0  0  0  0  0  0  0  0  0  0
   18.2280  -11.2176   16.7366 C   0  0  0  0  0  0  0  0  0  0  0  0
   18.1226  -11.4669   18.1037 O   0  0  0  0  0  0  0  0  0  0  0  0
   17.5355  -10.8090   18.5080 H   0  0  0  0  0  0  0  0  0  0  0  0
  1  2  2  0  0  0
  2  3  1  0  0  0
  3  4  2  0  0  0
  4  5  1  0  0  0
  5  6  2  0  0  0
  5 18  1  0  0  0
 18 19  1  0  0  0
 19 20  2  0  0  0
 19 21  1  0  0  0
 21 23  1  0  0  0
 23 24  2  0  0  0
 24 25  1  0  0  0
 25 26  2  0  0  0
 26 27  1  0  0  0
 27 28  2  0  0  0
 26 29  1  0  0  0
 29 30  1  0  0  0
 21 31  1  0  0  0
 31 32  1  0  0  0
 32 33  1  0  0  0
  2  7  1  0  0  0
  7  8  2  0  0  0
  8  9  1  0  0  0
  9 10  2  0  0  0
 10 11  1  0  0  0
 11 12  2  0  0  0
 12 13  1  0  0  0
 13 14  2  0  0  0
 14 15  1  0  0  0
 13 16  1  0  0  0
  6  1  1  0  0  0
 28 23  1  0  0  0
 12  7  1  0  0  0
 15 11  1  0  0  0
 18 22  1  0  0  0
 33 34  1  0  0  0
 15 17  1  0  0  0
M  END
>  <minimizedAffinity>
-6.95975

>  <minimizedRMSD>
1.28425

$$$$
CHEMBL4956398 824619466 PubChem-164631897 ZINC000824619466


 30 33  0  0  0  0  0  0  0  0999 V2000
   16.1189   -8.2619   16.6523 N   0  0  0  0  0  0  0  0  0  0  0  0
   16.7126   -9.6059   16.7011 C   0  0  0  0  0  0  0  0  0  0  0  0
   16.1282  -10.5479   15.6404 C   0  0  0  0  0  0  0  0  0  0  0  0
   16.2616   -9.9536   14.2421 C   0  0  0  0  0  0  0  0  0  0  0  0
   15.6696   -8.5455   14.2106 C   0  0  0  0  0  0  0  0  0  0  0  0
   16.2686   -7.6679   15.3173 C   0  0  0  0  0  0  0  0  0  0  0  0
   14.7057   -8.3145   17.0204 C   0  0  0  0  0  0  0  0  0  0  0  0
   13.3308   -6.9280   18.6144 C   0  0  0  0  0  0  0  0  0  0  0  0
   13.1673   -6.3353   19.8762 C   0  0  0  0  0  0  0  0  0  0  0  0
   14.1532   -6.4572   20.8591 C   0  0  0  0  0  0  0  0  0  0  0  0
   15.3575   -7.1311   20.5564 C   0  0  0  0  0  0  0  0  0  0  0  0
   15.5042   -7.7512   19.3130 C   0  0  0  0  0  0  0  0  0  0  0  0
   14.4962   -7.6649   18.3487 C   0  0  0  0  0  0  0  0  0  0  0  0
   16.4348   -7.1647   21.4480 O   0  0  0  0  0  0  0  0  0  0  0  0
   16.7062   -6.0915   22.3442 C   0  0  0  0  0  0  0  0  0  0  0  0
   15.8391   -6.1529   23.5956 C   0  0  0  0  0  0  0  0  0  0  0  0
   14.3976   -6.5541   23.3106 C   0  0  0  0  0  0  0  0  0  0  0  0
   13.8940   -5.9367   22.1308 O   0  0  0  0  0  0  0  0  0  0  0  0
   11.0420   -7.3498   17.7670 C   0  0  0  0  0  0  0  0  0  0  0  0
   12.3476   -6.8070   17.6253 O   0  0  0  0  0  0  0  0  0  0  0  0
   17.7135   -9.9678   13.7805 C   0  0  0  0  0  0  0  0  0  0  0  0
   17.8434   -9.2504   12.5221 N   0  0  0  0  0  0  0  0  0  0  0  0
   17.1370   -9.6509   11.3488 C   0  0  0  0  0  0  0  0  0  0  0  0
   16.3583  -10.6430   11.3780 O   0  0  0  0  0  0  0  0  0  0  0  0
   18.4360   -8.4655   12.4786 H   0  0  0  0  0  0  0  0  0  0  0  0
   17.3129   -8.8712   10.0887 C   0  0  0  0  0  0  0  0  0  0  0  0
   16.7121   -9.6131    8.9163 C   0  0  0  0  0  0  0  0  0  0  0  0
   17.6986   -9.3933    7.8095 C   0  0  0  0  0  0  0  0  0  0  0  0
   18.7665   -8.5286    8.4379 C   0  0  0  0  0  0  0  0  0  0  0  0
   18.6746   -8.6527    9.8316 O   0  0  0  0  0  0  0  0  0  0  0  0
 19 20  1  0  0  0
 20  8  1  0  0  0
  8  9  2  0  0  0
  9 10  1  0  0  0
 10 11  2  0  0  0
 11 12  1  0  0  0
 12 13  2  0  0  0
 13  7  1  0  0  0
  7  1  1  0  0  0
  1  2  1  0  0  0
  2  3  1  0  0  0
  3  4  1  0  0  0
  4 21  1  0  0  0
 21 22  1  0  0  0
 22 23  1  0  0  0
 23 24  2  0  0  0
 26 23  1  0  0  0
 26 27  1  0  0  0
 27 28  1  0  0  0
 28 29  1  0  0  0
 29 30  1  0  0  0
  4  5  1  0  0  0
  5  6  1  0  0  0
 11 14  1  0  0  0
 14 15  1  0  0  0
 15 16  1  0  0  0
 16 17  1  0  0  0
 17 18  1  0  0  0
 13  8  1  0  0  0
  6  1  1  0  0  0
 18 10  1  0  0  0
 30 26  1  0  0  0
 22 25  1  0  0  0
M  END
>  <minimizedAffinity>
-6.95949

>  <minimizedRMSD>
1.64199

$$$$
CHEMBL2357592 PubChem-49795467


 29 31  0  0  0  0  0  0  0  0999 V2000
   16.5720   -9.4582   13.7994 C   0  0  0  0  0  0  0  0  0  0  0  0
   15.8493   -8.4675   14.4460 C   0  0  0  0  0  0  0  0  0  0  0  0
   15.9568   -8.8285   15.7759 C   0  0  0  0  0  0  0  0  0  0  0  0
   16.6881   -9.9487   15.9073 N   0  0  0  0  0  0  0  0  0  0  0  0
   17.0637  -10.3332   14.7003 N   0  0  0  0  0  0  0  0  0  0  0  0
   16.9055  -10.4026   16.7535 H   0  0  0  0  0  0  0  0  0  0  0  0
   17.4077   -9.7919    9.5858 C   0  0  0  0  0  0  0  0  0  0  0  0
   18.4071   -9.4742   10.5051 C   0  0  0  0  0  0  0  0  0  0  0  0
   18.1068   -9.3730   11.8643 C   0  0  0  0  0  0  0  0  0  0  0  0
   16.8027   -9.5863   12.3374 C   0  0  0  0  0  0  0  0  0  0  0  0
   15.7868   -9.9095   11.4008 C   0  0  0  0  0  0  0  0  0  0  0  0
   14.3690  -10.1562   11.7907 C   0  0  0  0  0  0  0  0  0  0  0  0
   16.0999  -10.0081   10.0413 C   0  0  0  0  0  0  0  0  0  0  0  0
   17.8375   -8.7497    7.3842 C   0  0  0  0  0  0  0  0  0  0  0  0
   17.7382   -9.8864    8.2312 O   0  0  0  0  0  0  0  0  0  0  0  0
   15.3637   -8.1053   16.9061 C   0  0  0  0  0  0  0  0  0  0  0  0
   14.3712   -7.3524   16.7134 O   0  0  0  0  0  0  0  0  0  0  0  0
   15.9238   -8.2664   18.2169 N   0  0  0  0  0  0  0  0  0  0  0  0
   16.6980   -8.8696   18.2945 H   0  0  0  0  0  0  0  0  0  0  0  0
   15.4736   -7.6406   19.4261 C   0  0  0  0  0  0  0  0  0  0  0  0
   16.4237   -7.2151   20.3572 C   0  0  0  0  0  0  0  0  0  0  0  0
   16.0225   -6.6017   21.5458 C   0  0  0  0  0  0  0  0  0  0  0  0
   14.6596   -6.4046   21.8204 C   0  0  0  0  0  0  0  0  0  0  0  0
   13.6984   -6.8289   20.8907 C   0  0  0  0  0  0  0  0  0  0  0  0
   14.1128   -7.4448   19.6985 C   0  0  0  0  0  0  0  0  0  0  0  0
   14.2400   -5.7917   23.0063 O   0  0  0  0  0  0  0  0  0  0  0  0
   15.1490   -5.2769   23.9697 C   0  0  0  0  0  0  0  0  0  0  0  0
   12.3419   -6.6299   21.1698 O   0  0  0  0  0  0  0  0  0  0  0  0
   11.6017   -5.5351   20.6471 C   0  0  0  0  0  0  0  0  0  0  0  0
 14 15  1  0  0  0
 15  7  1  0  0  0
  7  8  2  0  0  0
  8  9  1  0  0  0
  9 10  2  0  0  0
 10  1  1  0  0  0
 10 11  1  0  0  0
  1  2  1  0  0  0
  2  3  2  0  0  0
  3 16  1  0  0  0
  3  4  1  0  0  0
 16 17  2  0  0  0
 16 18  1  0  0  0
 18 20  1  0  0  0
 20 21  2  0  0  0
 21 22  1  0  0  0
 22 23  2  0  0  0
 23 26  1  0  0  0
 23 24  1  0  0  0
 26 27  1  0  0  0
 24 28  1  0  0  0
 24 25  2  0  0  0
 28 29  1  0  0  0
 25 20  1  0  0  0
  4  5  1  0  0  0
  5  1  2  0  0  0
 11 12  1  0  0  0
 11 13  2  0  0  0
 13  7  1  0  0  0
 18 19  1  0  0  0
  4  6  1  0  0  0
M  END
>  <minimizedAffinity>
-6.95301

>  <minimizedRMSD>
1.73664

$$$$
CHEMBL3786304 PubChem-127034509


 24 26  0  0  0  0  0  0  0  0999 V2000
   15.9290   -8.6751   18.7747 S   0  0  0  0  0  0  0  0  0  0  0  0
   15.9809   -8.6760   17.0962 C   0  0  0  0  0  0  0  0  0  0  0  0
   15.0739   -7.8243   16.5715 N   0  0  0  0  0  0  0  0  0  0  0  0
   14.3576   -7.1893   17.4979 N   0  0  0  0  0  0  0  0  0  0  0  0
   14.6860   -7.5279   18.7672 C   0  0  0  0  0  0  0  0  0  0  0  0
   14.0396   -6.9654   19.9760 C   0  0  0  0  0  0  0  0  0  0  0  0
   12.9154   -6.1101   19.9031 C   0  0  0  0  0  0  0  0  0  0  0  0
   12.3503   -5.6111   21.0893 C   0  0  0  0  0  0  0  0  0  0  0  0
   12.8802   -5.9454   22.3367 C   0  0  0  0  0  0  0  0  0  0  0  0
   13.9932   -6.7924   22.4038 C   0  0  0  0  0  0  0  0  0  0  0  0
   14.5641   -7.2950   21.2345 C   0  0  0  0  0  0  0  0  0  0  0  0
   12.2834   -5.4241   23.4879 O   0  0  0  0  0  0  0  0  0  0  0  0
   13.0286   -5.0638   24.6431 C   0  0  0  0  0  0  0  0  0  0  0  0
   12.3704   -5.7639   18.6605 O   0  0  0  0  0  0  0  0  0  0  0  0
   11.5185   -4.6411   18.4752 C   0  0  0  0  0  0  0  0  0  0  0  0
   16.8794   -9.4834   16.3263 N   0  0  0  0  0  0  0  0  0  0  0  0
   17.4911  -10.0680   16.8297 H   0  0  0  0  0  0  0  0  0  0  0  0
   16.9776   -9.5259   14.8967 C   0  0  0  0  0  0  0  0  0  0  0  0
   18.1077  -10.1128   14.3166 C   0  0  0  0  0  0  0  0  0  0  0  0
   18.2391  -10.1730   12.9259 C   0  0  0  0  0  0  0  0  0  0  0  0
   17.2381   -9.6448   12.1062 C   0  0  0  0  0  0  0  0  0  0  0  0
   16.1063   -9.0568   12.6767 C   0  0  0  0  0  0  0  0  0  0  0  0
   15.9764   -8.9975   14.0671 C   0  0  0  0  0  0  0  0  0  0  0  0
   17.4168   -9.7263   10.2112 Br  0  0  0  0  0  0  0  0  0  0  0  0
  1  2  1  0  0  0
  2  3  2  0  0  0
  3  4  1  0  0  0
  4  5  2  0  0  0
  5  6  1  0  0  0
  6  7  2  0  0  0
  7  8  1  0  0  0
  8  9  2  0  0  0
  9 10  1  0  0  0
 10 11  2  0  0  0
  9 12  1  0  0  0
 12 13  1  0  0  0
  7 14  1  0  0  0
 14 15  1  0  0  0
  2 16  1  0  0  0
 16 18  1  0  0  0
 18 19  2  0  0  0
 19 20  1  0  0  0
 20 21  2  0  0  0
 21 22  1  0  0  0
 22 23  2  0  0  0
 21 24  1  0  0  0
  5  1  1  0  0  0
 11  6  1  0  0  0
 23 18  1  0  0  0
 16 17  1  0  0  0
M  END
>  <minimizedAffinity>
-6.93748

>  <minimizedRMSD>
1.65213

$$$$
CHEMBL4566689 PubChem-135335497


 30 33  0  0  0  0  0  0  0  0999 V2000
   14.9765   -7.7661   18.5331 C   0  0  0  0  0  0  0  0  0  0  0  0
   15.8868   -8.8175   18.4305 C   0  0  0  0  0  0  0  0  0  0  0  0
   16.1586   -8.9341   17.1238 N   0  0  0  0  0  0  0  0  0  0  0  0
   16.9850   -9.8058   16.4974 C   0  0  0  0  0  0  0  0  0  0  0  0
   17.0953   -9.7196   15.1024 C   0  0  0  0  0  0  0  0  0  0  0  0
   16.3558   -8.7438   14.3960 C   0  0  0  0  0  0  0  0  0  0  0  0
   15.5136   -7.8649   15.0985 C   0  0  0  0  0  0  0  0  0  0  0  0
   15.4449   -7.9983   16.4829 C   0  0  0  0  0  0  0  0  0  0  0  0
   14.6966   -7.2487   17.3099 N   0  0  0  0  0  0  0  0  0  0  0  0
   13.2252   -6.4732   19.8352 C   0  0  0  0  0  0  0  0  0  0  0  0
   12.7221   -6.0408   21.0731 C   0  0  0  0  0  0  0  0  0  0  0  0
   13.3536   -6.3891   22.2753 C   0  0  0  0  0  0  0  0  0  0  0  0
   14.5063   -7.1824   22.2355 C   0  0  0  0  0  0  0  0  0  0  0  0
   15.0140   -7.6170   21.0104 C   0  0  0  0  0  0  0  0  0  0  0  0
   14.3894   -7.2739   19.8022 C   0  0  0  0  0  0  0  0  0  0  0  0
   15.3330   -7.6451   23.7120 Cl  0  0  0  0  0  0  0  0  0  0  0  0
   11.7053   -4.9982   18.5459 C   0  0  0  0  0  0  0  0  0  0  0  0
   12.5797   -6.1145   18.6455 O   0  0  0  0  0  0  0  0  0  0  0  0
   12.8528   -5.9586   23.5090 O   0  0  0  0  0  0  0  0  0  0  0  0
   11.7570   -5.0611   23.6236 C   0  0  0  0  0  0  0  0  0  0  0  0
   16.4382   -8.6194   12.9697 N   0  0  0  0  0  0  0  0  0  0  0  0
   16.9806   -9.5792   12.0540 C   0  0  0  0  0  0  0  0  0  0  0  0
   17.4480  -10.6776   12.4612 O   0  0  0  0  0  0  0  0  0  0  0  0
   16.0852   -7.7876   12.5787 H   0  0  0  0  0  0  0  0  0  0  0  0
   16.9740   -9.2676   10.5941 C   0  0  0  0  0  0  0  0  0  0  0  0
   16.0256  -10.1812    9.8537 C   0  0  0  0  0  0  0  0  0  0  0  0
   16.6842  -10.3764    8.5200 C   0  0  0  0  0  0  0  0  0  0  0  0
   18.1596  -10.2185    8.8074 C   0  0  0  0  0  0  0  0  0  0  0  0
   18.3090   -9.4313   10.0272 N   0  0  0  0  0  0  0  0  0  0  0  0
   18.7113   -8.5197    9.8090 H   0  0  0  0  0  0  0  0  0  0  0  0
 17 18  1  0  0  0
 18 10  1  0  0  0
 10 11  2  0  0  0
 11 12  1  0  0  0
 12 13  2  0  0  0
 13 14  1  0  0  0
 14 15  2  0  0  0
 15  1  1  0  0  0
  1  2  2  0  0  0
  2  3  1  0  0  0
  3  4  1  0  0  0
  4  5  2  0  0  0
  5  6  1  0  0  0
  6  7  2  0  0  0
  7  8  1  0  0  0
  8  9  2  0  0  0
  6 21  1  0  0  0
 21 22  1  0  0  0
 22 23  2  0  0  0
 25 22  1  0  0  0
 25 26  1  0  0  0
 26 27  1  0  0  0
 27 28  1  0  0  0
 28 29  1  0  0  0
 13 16  1  0  0  0
 12 19  1  0  0  0
 19 20  1  0  0  0
 15 10  1  0  0  0
  9  1  1  0  0  0
  8  3  1  0  0  0
 29 25  1  0  0  0
 21 24  1  0  0  0
 29 30  1  0  0  0
M  END
>  <minimizedAffinity>
-6.92671

>  <minimizedRMSD>
1.69088

$$$$
CHEMBL3752990 PubChem-124171513


 32 34  0  0  0  0  0  0  0  0999 V2000
   14.0592   -7.2263   18.6347 C   0  0  0  0  0  0  0  0  0  0  0  0
   13.0206   -6.5741   17.9531 C   0  0  0  0  0  0  0  0  0  0  0  0
   12.0560   -5.8361   18.6403 C   0  0  0  0  0  0  0  0  0  0  0  0
   12.1119   -5.7329   20.0325 C   0  0  0  0  0  0  0  0  0  0  0  0
   13.1417   -6.3823   20.7261 C   0  0  0  0  0  0  0  0  0  0  0  0
   14.1131   -7.1238   20.0471 C   0  0  0  0  0  0  0  0  0  0  0  0
   15.3539   -7.8854   21.0324 Cl  0  0  0  0  0  0  0  0  0  0  0  0
   11.0674   -5.2186   17.9480 F   0  0  0  0  0  0  0  0  0  0  0  0
   16.0817   -8.7990   16.2011 C   0  0  0  0  0  0  0  0  0  0  0  0
   15.0367   -7.9936   16.4737 N   0  0  0  0  0  0  0  0  0  0  0  0
   15.0414   -7.9874   17.8253 C   0  0  0  0  0  0  0  0  0  0  0  0
   16.0340   -8.7470   18.3307 N   0  0  0  0  0  0  0  0  0  0  0  0
   16.6531   -9.2305   17.2979 O   0  0  0  0  0  0  0  0  0  0  0  0
   17.4078   -9.8200   12.2782 C   0  0  0  0  0  0  0  0  0  0  0  0
   16.0206   -9.6372   12.5214 C   0  0  0  0  0  0  0  0  0  0  0  0
   15.6004   -9.3032   13.8104 C   0  0  0  0  0  0  0  0  0  0  0  0
   16.5238   -9.1488   14.8447 C   0  0  0  0  0  0  0  0  0  0  0  0
   17.8783   -9.3260   14.5661 C   0  0  0  0  0  0  0  0  0  0  0  0
   18.2805   -9.6507   13.3099 N   0  0  0  0  0  0  0  0  0  0  0  0
   14.7649   -9.7571   11.2970 Cl  0  0  0  0  0  0  0  0  0  0  0  0
   17.9553  -10.1622   11.0312 O   0  0  0  0  0  0  0  0  0  0  0  0
   17.3508   -9.6017    8.7811 C   0  0  0  0  0  0  0  0  0  0  0  0
   18.2248   -9.2600    9.9693 C   0  0  0  0  0  0  0  0  0  0  0  0
   11.1355   -4.9883   20.7038 O   0  0  0  0  0  0  0  0  0  0  0  0
   10.8390   -5.1619   22.0872 C   0  0  0  0  0  0  0  0  0  0  0  0
   11.4529   -4.0455   22.9279 C   0  0  0  0  0  0  0  0  0  0  0  0
   10.4138   -3.1470   23.4001 N   0  0  0  0  0  0  0  0  0  0  0  0
    9.9507   -2.7133   22.6015 H   0  0  0  0  0  0  0  0  0  0  0  0
   10.8304   -2.4234   23.9858 H   0  0  0  0  0  0  0  0  0  0  0  0
   12.4963   -3.2610   22.1502 C   0  0  0  0  0  0  0  0  0  0  0  0
   13.7473   -3.4074   22.7499 O   0  0  0  0  0  0  0  0  0  0  0  0
   13.7114   -3.0711   23.6590 H   0  0  0  0  0  0  0  0  0  0  0  0
 22 23  1  0  0  0
 23 21  1  0  0  0
 21 14  1  0  0  0
 14 15  2  0  0  0
 15 16  1  0  0  0
 16 17  2  0  0  0
 17 18  1  0  0  0
 18 19  2  0  0  0
 17  9  1  0  0  0
  9 10  2  0  0  0
 10 11  1  0  0  0
 11 12  2  0  0  0
 12 13  1  0  0  0
 11  1  1  0  0  0
  1  2  2  0  0  0
  2  3  1  0  0  0
  3  4  2  0  0  0
  4  5  1  0  0  0
  5  6  2  0  0  0
  6  7  1  0  0  0
  4 24  1  0  0  0
 24 25  1  0  0  0
 26 25  1  0  0  0
 26 30  1  0  0  0
 30 31  1  0  0  0
 26 27  1  0  0  0
  3  8  1  0  0  0
 15 20  1  0  0  0
 19 14  1  0  0  0
 13  9  1  0  0  0
  6  1  1  0  0  0
 31 32  1  0  0  0
 27 28  1  0  0  0
 27 29  1  0  0  0
M  END
>  <minimizedAffinity>
-6.92107

>  <minimizedRMSD>
1.56133

$$$$
CHEMBL4640657


 37 40  0  0  0  0  0  0  0  0999 V2000
   18.2941   -9.4393   14.4024 C   0  0  0  0  0  0  0  0  0  0  0  0
   17.4187  -10.4693   13.8194 N   0  0  0  0  0  0  0  0  0  0  0  0
   17.1109  -11.4948   14.8273 C   0  0  0  0  0  0  0  0  0  0  0  0
   16.3927  -10.9071   16.0585 C   0  0  0  0  0  0  0  0  0  0  0  0
   17.1655   -9.7337   16.6677 C   0  0  0  0  0  0  0  0  0  0  0  0
   17.6438   -8.7348   15.6095 C   0  0  0  0  0  0  0  0  0  0  0  0
   18.4009  -12.2403   15.2010 C   0  0  0  0  0  0  0  0  0  0  0  0
   19.4980  -11.2796   15.6790 C   0  0  0  0  0  0  0  0  0  0  0  0
   19.6515  -10.0680   14.7501 C   0  0  0  0  0  0  0  0  0  0  0  0
   16.3727   -9.0658   17.6944 N   0  0  0  0  0  0  0  0  0  0  0  0
   15.3710   -8.0746   17.4268 C   0  0  0  0  0  0  0  0  0  0  0  0
   15.1316   -7.7214   16.2393 O   0  0  0  0  0  0  0  0  0  0  0  0
   16.5362   -9.3118   18.6336 H   0  0  0  0  0  0  0  0  0  0  0  0
   14.6209   -7.4682   18.5400 C   0  0  0  0  0  0  0  0  0  0  0  0
   13.2912   -7.0752   18.3676 C   0  0  0  0  0  0  0  0  0  0  0  0
   12.5621   -6.4946   19.4176 C   0  0  0  0  0  0  0  0  0  0  0  0
   13.1881   -6.3043   20.6760 C   0  0  0  0  0  0  0  0  0  0  0  0
   14.5260   -6.6994   20.8476 C   0  0  0  0  0  0  0  0  0  0  0  0
   15.2303   -7.2766   19.7813 C   0  0  0  0  0  0  0  0  0  0  0  0
   15.1372   -6.5078   22.0921 O   0  0  0  0  0  0  0  0  0  0  0  0
   16.5482   -6.4942   22.2638 C   0  0  0  0  0  0  0  0  0  0  0  0
   12.5378   -5.7335   21.7833 O   0  0  0  0  0  0  0  0  0  0  0  0
   12.3899   -4.3396   22.0139 C   0  0  0  0  0  0  0  0  0  0  0  0
   11.2315   -6.1095   19.2159 O   0  0  0  0  0  0  0  0  0  0  0  0
   10.2448   -6.9803   18.6780 C   0  0  0  0  0  0  0  0  0  0  0  0
   16.1877   -9.8776   13.2974 C   0  0  0  0  0  0  0  0  0  0  0  0
   16.4720   -9.1375   12.0373 C   0  0  0  0  0  0  0  0  0  0  0  0
   15.8057   -8.1042   11.7653 O   0  0  0  0  0  0  0  0  0  0  0  0
   17.5197   -9.5983   11.1743 N   0  0  0  0  0  0  0  0  0  0  0  0
   18.0076  -10.4024   11.4651 H   0  0  0  0  0  0  0  0  0  0  0  0
   17.9336   -9.0110    9.9297 C   0  0  0  0  0  0  0  0  0  0  0  0
   17.2317   -9.3173    8.7489 C   0  0  0  0  0  0  0  0  0  0  0  0
   17.6236   -8.7495    7.5320 C   0  0  0  0  0  0  0  0  0  0  0  0
   18.7115   -7.8752    7.4806 C   0  0  0  0  0  0  0  0  0  0  0  0
   19.4127   -7.5655    8.6475 C   0  0  0  0  0  0  0  0  0  0  0  0
   19.0254   -8.1306    9.8649 C   0  0  0  0  0  0  0  0  0  0  0  0
   16.0665  -10.2470    8.7647 C   0  0  0  0  0  0  0  0  0  0  0  0
  1  2  1  0  0  0
  2  3  1  0  0  0
  3  4  1  0  0  0
  4  5  1  0  0  0
  5  6  1  0  0  0
  5 10  1  0  0  0
 10 11  1  0  0  0
 11 12  2  0  0  0
 11 14  1  0  0  0
 14 15  2  0  0  0
 15 16  1  0  0  0
 16 17  2  0  0  0
 17 18  1  0  0  0
 18 19  2  0  0  0
 18 20  1  0  0  0
 20 21  1  0  0  0
 17 22  1  0  0  0
 22 23  1  0  0  0
 16 24  1  0  0  0
 24 25  1  0  0  0
  3  7  1  0  0  0
  7  8  1  0  0  0
  8  9  1  0  0  0
  2 26  1  0  0  0
 26 27  1  0  0  0
 27 28  2  0  0  0
 27 29  1  0  0  0
 29 31  1  0  0  0
 31 32  2  0  0  0
 32 33  1  0  0  0
 33 34  2  0  0  0
 34 35  1  0  0  0
 35 36  2  0  0  0
 32 37  1  0  0  0
  1  6  1  0  0  0
 19 14  1  0  0  0
 36 31  1  0  0  0
  9  1  1  0  0  0
 10 13  1  0  0  0
 29 30  1  0  0  0
M  END
>  <minimizedAffinity>
-6.90337

>  <minimizedRMSD>
1.45093

$$$$
CHEMBL4740762 PubChem-162645178


 30 31  0  0  0  0  0  0  0  0999 V2000
   14.6245   -7.7365   16.7530 N   0  0  0  0  0  0  0  0  0  0  0  0
   15.8374   -8.0951   16.4713 C   0  0  0  0  0  0  0  0  0  0  0  0
   16.1966   -8.6064   15.1449 C   0  0  0  0  0  0  0  0  0  0  0  0
   15.6151   -8.0884   13.9820 C   0  0  0  0  0  0  0  0  0  0  0  0
   15.9768   -8.5952   12.7326 C   0  0  0  0  0  0  0  0  0  0  0  0
   16.9242   -9.6264   12.6244 C   0  0  0  0  0  0  0  0  0  0  0  0
   17.5083  -10.1469   13.7910 C   0  0  0  0  0  0  0  0  0  0  0  0
   17.1391   -9.6317   15.0449 C   0  0  0  0  0  0  0  0  0  0  0  0
   18.4519  -11.1743   13.6810 O   0  0  0  0  0  0  0  0  0  0  0  0
   19.5447  -11.3150   14.5785 C   0  0  0  0  0  0  0  0  0  0  0  0
   17.3118  -10.1603   11.3836 O   0  0  0  0  0  0  0  0  0  0  0  0
   16.7716   -9.8369   10.1278 C   0  0  0  0  0  0  0  0  0  0  0  0
   15.6459  -10.2806    9.7703 O   0  0  0  0  0  0  0  0  0  0  0  0
   17.5132   -8.9898    9.2420 N   0  0  0  0  0  0  0  0  0  0  0  0
   16.9882   -8.6325    7.9346 C   0  0  0  0  0  0  0  0  0  0  0  0
   18.8109   -8.4693    9.6358 C   0  0  0  0  0  0  0  0  0  0  0  0
   14.7990   -7.6203   19.2782 C   0  0  0  0  0  0  0  0  0  0  0  0
   15.7303   -8.4685   19.3385 O   0  0  0  0  0  0  0  0  0  0  0  0
   14.2339   -7.2403   18.0119 N   0  0  0  0  0  0  0  0  0  0  0  0
   13.5094   -6.5739   18.0260 H   0  0  0  0  0  0  0  0  0  0  0  0
   15.0161   -7.1027   21.7104 C   0  0  0  0  0  0  0  0  0  0  0  0
   14.2845   -7.0125   20.5183 C   0  0  0  0  0  0  0  0  0  0  0  0
   13.0566   -6.3369   20.5191 C   0  0  0  0  0  0  0  0  0  0  0  0
   12.5575   -5.7542   21.6957 C   0  0  0  0  0  0  0  0  0  0  0  0
   13.3017   -5.8535   22.8795 C   0  0  0  0  0  0  0  0  0  0  0  0
   14.5267   -6.5260   22.8847 C   0  0  0  0  0  0  0  0  0  0  0  0
   12.8276   -5.2847   24.0550 O   0  0  0  0  0  0  0  0  0  0  0  0
   12.0071   -4.8324   24.0589 H   0  0  0  0  0  0  0  0  0  0  0  0
   11.3335   -5.0772   21.7096 O   0  0  0  0  0  0  0  0  0  0  0  0
   10.5393   -4.9009   20.5443 C   0  0  0  0  0  0  0  0  0  0  0  0
 21 22  2  0  0  0
 22 23  1  0  0  0
 23 24  2  0  0  0
 24 25  1  0  0  0
 25 26  2  0  0  0
 25 27  1  0  0  0
 24 29  1  0  0  0
 29 30  1  0  0  0
 22 17  1  0  0  0
 17 18  2  0  0  0
 17 19  1  0  0  0
 19  1  1  0  0  0
  1  2  2  0  0  0
  2  3  1  0  0  0
  3  4  2  0  0  0
  4  5  1  0  0  0
  5  6  2  0  0  0
  6  7  1  0  0  0
  7  8  2  0  0  0
  7  9  1  0  0  0
  9 10  1  0  0  0
  6 11  1  0  0  0
 11 12  1  0  0  0
 12 13  2  0  0  0
 12 14  1  0  0  0
 14 15  1  0  0  0
 14 16  1  0  0  0
 26 21  1  0  0  0
  8  3  1  0  0  0
 27 28  1  0  0  0
 19 20  1  0  0  0
M  END
>  <minimizedAffinity>
-6.89942

>  <minimizedRMSD>
1.77978

$$$$
CHEMBL161771 PubChem-44373915


 32 35  0  0  0  0  0  0  0  0999 V2000
   15.3264   -8.0623   16.9481 C   0  0  0  0  0  0  0  0  0  0  0  0
   15.2835   -9.4158   16.2562 C   0  0  0  0  0  0  0  0  0  0  0  0
   16.6852   -9.8709   15.8725 C   0  0  0  0  0  0  0  0  0  0  0  0
   17.4815   -9.7191   10.3591 C   0  0  0  0  0  0  0  0  0  0  0  0
   18.5745  -10.1234    9.8745 O   0  0  0  0  0  0  0  0  0  0  0  0
   17.3482   -9.5356   11.7792 N   0  0  0  0  0  0  0  0  0  0  0  0
   18.5128   -9.7185   12.6457 C   0  0  0  0  0  0  0  0  0  0  0  0
   18.0671  -10.2292   14.0151 C   0  0  0  0  0  0  0  0  0  0  0  0
   17.0416   -9.3458   14.5631 N   0  0  0  0  0  0  0  0  0  0  0  0
   15.8547   -9.4588   13.7173 C   0  0  0  0  0  0  0  0  0  0  0  0
   16.1527   -8.8941   12.3308 C   0  0  0  0  0  0  0  0  0  0  0  0
   16.8398   -9.0461    8.0608 C   0  0  0  0  0  0  0  0  0  0  0  0
   16.3336   -9.4260    9.4403 C   0  0  0  0  0  0  0  0  0  0  0  0
   15.4608  -10.5826    9.3419 N   0  0  0  0  0  0  0  0  0  0  0  0
   15.9824  -11.3704    8.9575 H   0  0  0  0  0  0  0  0  0  0  0  0
   14.6747  -10.3642    8.7298 H   0  0  0  0  0  0  0  0  0  0  0  0
   15.7296   -8.2221   18.3030 O   0  0  0  0  0  0  0  0  0  0  0  0
   15.0535   -7.6190   19.3670 C   0  0  0  0  0  0  0  0  0  0  0  0
   15.7614   -7.3082   20.5300 C   0  0  0  0  0  0  0  0  0  0  0  0
   15.1120   -6.7081   21.6113 C   0  0  0  0  0  0  0  0  0  0  0  0
   13.7432   -6.4063   21.5471 C   0  0  0  0  0  0  0  0  0  0  0  0
   13.0291   -6.7161   20.3712 C   0  0  0  0  0  0  0  0  0  0  0  0
   11.7063   -6.4411   20.2565 F   0  0  0  0  0  0  0  0  0  0  0  0
   13.6846   -7.3192   19.2935 C   0  0  0  0  0  0  0  0  0  0  0  0
   13.0906   -5.7849   22.7185 C   0  0  0  0  0  0  0  0  0  0  0  0
   11.7704   -5.5221   22.8009 N   0  0  0  0  0  0  0  0  0  0  0  0
   11.6035   -4.9999   23.9770 O   0  0  0  0  0  0  0  0  0  0  0  0
   12.7550   -4.9418   24.5991 C   0  0  0  0  0  0  0  0  0  0  0  0
   13.7553   -5.4275   23.8393 N   0  0  0  0  0  0  0  0  0  0  0  0
   12.9403   -4.3912   25.9738 C   0  0  0  0  0  0  0  0  0  0  0  0
   12.2738   -5.3055   26.9835 C   0  0  0  0  0  0  0  0  0  0  0  0
   13.7738   -5.3506   26.8027 C   0  0  0  0  0  0  0  0  0  0  0  0
 13 12  1  0  0  0
 13 14  1  0  0  0
 13  4  1  0  0  0
  4  5  2  0  0  0
  4  6  1  0  0  0
  6  7  1  0  0  0
  7  8  1  0  0  0
  8  9  1  0  0  0
  9  3  1  0  0  0
  9 10  1  0  0  0
  3  2  1  0  0  0
  2  1  1  0  0  0
  1 17  1  0  0  0
 17 18  1  0  0  0
 18 19  2  0  0  0
 19 20  1  0  0  0
 20 21  2  0  0  0
 21 25  1  0  0  0
 21 22  1  0  0  0
 25 26  2  0  0  0
 26 27  1  0  0  0
 27 28  1  0  0  0
 28 30  1  0  0  0
 28 29  2  0  0  0
 30 31  1  0  0  0
 31 32  1  0  0  0
 32 30  1  0  0  0
 29 25  1  0  0  0
 22 23  1  0  0  0
 22 24  2  0  0  0
 24 18  1  0  0  0
 10 11  1  0  0  0
 11  6  1  0  0  0
 14 15  1  0  0  0
 14 16  1  0  0  0
M  END
>  <minimizedAffinity>
-6.89447

>  <minimizedRMSD>
1.70812

$$$$
CHEMBL1881477 PubChem-49790216


 31 34  0  0  0  0  0  0  0  0999 V2000
   15.3732   -8.1360   17.4562 C   0  0  0  0  0  0  0  0  0  0  0  0
   14.3462   -7.5134   17.0722 O   0  0  0  0  0  0  0  0  0  0  0  0
   15.7903   -8.0771   18.8289 N   0  0  0  0  0  0  0  0  0  0  0  0
   16.5999   -8.5850   19.0652 H   0  0  0  0  0  0  0  0  0  0  0  0
   15.4132   -7.7984   14.4625 O   0  0  0  0  0  0  0  0  0  0  0  0
   16.1115   -8.7024   15.1093 C   0  0  0  0  0  0  0  0  0  0  0  0
   16.8448   -9.4513   14.2288 C   0  0  0  0  0  0  0  0  0  0  0  0
   16.5630   -8.9587   12.9734 C   0  0  0  0  0  0  0  0  0  0  0  0
   15.6572   -7.9189   13.1682 C   0  0  0  0  0  0  0  0  0  0  0  0
   17.6787  -10.4856   14.6496 C   0  0  0  0  0  0  0  0  0  0  0  0
   17.7479  -10.7442   16.0285 C   0  0  0  0  0  0  0  0  0  0  0  0
   16.9946   -9.9758   16.9409 C   0  0  0  0  0  0  0  0  0  0  0  0
   16.1570   -8.9336   16.4919 C   0  0  0  0  0  0  0  0  0  0  0  0
   17.0941   -9.4168   11.6803 C   0  0  0  0  0  0  0  0  0  0  0  0
   16.3625   -9.6296   10.5288 C   0  0  0  0  0  0  0  0  0  0  0  0
   17.2401  -10.0394    9.5987 N   0  0  0  0  0  0  0  0  0  0  0  0
   18.4652  -10.0958   10.0923 N   0  0  0  0  0  0  0  0  0  0  0  0
   18.4128   -9.7159   11.3835 C   0  0  0  0  0  0  0  0  0  0  0  0
   16.9065  -10.3796    8.2286 C   0  0  0  0  0  0  0  0  0  0  0  0
   15.1522   -7.3566   19.8921 C   0  0  0  0  0  0  0  0  0  0  0  0
   15.9007   -7.0173   21.0169 C   0  0  0  0  0  0  0  0  0  0  0  0
   15.3214   -6.3130   22.0825 C   0  0  0  0  0  0  0  0  0  0  0  0
   13.9677   -5.9391   22.0258 C   0  0  0  0  0  0  0  0  0  0  0  0
   13.1989   -6.2808   20.8841 C   0  0  0  0  0  0  0  0  0  0  0  0
   13.8060   -6.9859   19.8332 C   0  0  0  0  0  0  0  0  0  0  0  0
   16.0741   -5.9726   23.2124 O   0  0  0  0  0  0  0  0  0  0  0  0
   17.3036   -6.6061   23.5393 C   0  0  0  0  0  0  0  0  0  0  0  0
   13.4467   -5.2354   23.1250 O   0  0  0  0  0  0  0  0  0  0  0  0
   12.1438   -5.4101   23.6628 C   0  0  0  0  0  0  0  0  0  0  0  0
   11.8486   -5.9224   20.7979 O   0  0  0  0  0  0  0  0  0  0  0  0
   11.1738   -5.7350   19.5606 C   0  0  0  0  0  0  0  0  0  0  0  0
  5  6  1  0  0  0
  6  7  2  0  0  0
  7  8  1  0  0  0
  8 14  1  0  0  0
 14 15  2  0  0  0
 15 16  1  0  0  0
 16 17  1  0  0  0
 17 18  2  0  0  0
 16 19  1  0  0  0
  8  9  2  0  0  0
  7 10  1  0  0  0
 10 11  2  0  0  0
 11 12  1  0  0  0
 12 13  2  0  0  0
 13  1  1  0  0  0
  1  2  2  0  0  0
  1  3  1  0  0  0
  3 20  1  0  0  0
 20 21  2  0  0  0
 21 22  1  0  0  0
 22 26  1  0  0  0
 26 27  1  0  0  0
 22 23  2  0  0  0
 23 28  1  0  0  0
 28 29  1  0  0  0
 23 24  1  0  0  0
 24 30  1  0  0  0
 30 31  1  0  0  0
 24 25  2  0  0  0
  9  5  1  0  0  0
 25 20  1  0  0  0
 13  6  1  0  0  0
 18 14  1  0  0  0
  3  4  1  0  0  0
M  END
>  <minimizedAffinity>
-6.89036

>  <minimizedRMSD>
1.41618

$$$$
CHEMBL1466641 678681 LN01168505 MCULE-9982493418 MolPort-002-824-163 PubChem-1016674 ZINC000000678681 ZINC00678681


 32 34  0  0  0  0  0  0  0  0999 V2000
   15.3030   -8.0826   17.7297 C   0  0  0  0  0  0  0  0  0  0  0  0
   14.9877   -7.5811   16.6162 O   0  0  0  0  0  0  0  0  0  0  0  0
   16.0666   -9.2954   17.7917 N   0  0  0  0  0  0  0  0  0  0  0  0
   16.2527   -9.6633   18.6857 H   0  0  0  0  0  0  0  0  0  0  0  0
   15.3532   -6.7277   21.2663 C   0  0  0  0  0  0  0  0  0  0  0  0
   15.7414   -7.3521   20.0703 C   0  0  0  0  0  0  0  0  0  0  0  0
   14.8761   -7.4232   18.9763 C   0  0  0  0  0  0  0  0  0  0  0  0
   13.6020   -6.8605   19.0804 C   0  0  0  0  0  0  0  0  0  0  0  0
   13.1876   -6.2308   20.2628 C   0  0  0  0  0  0  0  0  0  0  0  0
   14.0576   -6.1588   21.3642 C   0  0  0  0  0  0  0  0  0  0  0  0
   17.6124   -6.3219   22.2055 C   0  0  0  0  0  0  0  0  0  0  0  0
   16.2418   -6.6717   22.3464 O   0  0  0  0  0  0  0  0  0  0  0  0
   11.9107   -5.6670   20.3669 O   0  0  0  0  0  0  0  0  0  0  0  0
   11.3635   -4.8091   19.3745 C   0  0  0  0  0  0  0  0  0  0  0  0
   13.5826   -5.5148   22.5194 O   0  0  0  0  0  0  0  0  0  0  0  0
   13.7849   -5.9703   23.8494 C   0  0  0  0  0  0  0  0  0  0  0  0
   16.5820  -10.0179   16.6685 C   0  0  0  0  0  0  0  0  0  0  0  0
   18.0230  -10.7779   16.8439 S   0  0  0  0  0  0  0  0  0  0  0  0
   15.9519   -9.8992   15.3820 N   0  0  0  0  0  0  0  0  0  0  0  0
   14.9674   -9.8971   15.3815 H   0  0  0  0  0  0  0  0  0  0  0  0
   16.5825   -9.7836   14.0992 C   0  0  0  0  0  0  0  0  0  0  0  0
   17.9857   -9.6414   13.9695 C   0  0  0  0  0  0  0  0  0  0  0  0
   18.5937   -9.5663   12.7047 C   0  0  0  0  0  0  0  0  0  0  0  0
   17.7695   -9.6477   11.5862 C   0  0  0  0  0  0  0  0  0  0  0  0
   18.0897   -9.6006   10.1638 C   0  0  0  0  0  0  0  0  0  0  0  0
   19.2374   -9.4429    9.6699 O   0  0  0  0  0  0  0  0  0  0  0  0
   16.8956   -9.7457    9.3966 N   0  0  0  0  0  0  0  0  0  0  0  0
   16.7524   -9.5693    7.9617 C   0  0  0  0  0  0  0  0  0  0  0  0
   15.8456   -9.8526   10.3568 C   0  0  0  0  0  0  0  0  0  0  0  0
   14.6249   -9.9603   10.0664 O   0  0  0  0  0  0  0  0  0  0  0  0
   16.4032   -9.8007   11.7036 C   0  0  0  0  0  0  0  0  0  0  0  0
   15.7803   -9.8764   12.9469 C   0  0  0  0  0  0  0  0  0  0  0  0
 11 12  1  0  0  0
 12  5  1  0  0  0
  5  6  2  0  0  0
  6  7  1  0  0  0
  7  8  2  0  0  0
  7  1  1  0  0  0
  8  9  1  0  0  0
  9 13  1  0  0  0
  9 10  2  0  0  0
 13 14  1  0  0  0
 10 15  1  0  0  0
 10  5  1  0  0  0
 15 16  1  0  0  0
  1  2  2  0  0  0
  1  3  1  0  0  0
  3 17  1  0  0  0
 17 18  2  0  0  0
 17 19  1  0  0  0
 19 21  1  0  0  0
 21 22  2  0  0  0
 22 23  1  0  0  0
 23 24  2  0  0  0
 24 25  1  0  0  0
 25 26  2  0  0  0
 25 27  1  0  0  0
 27 28  1  0  0  0
 27 29  1  0  0  0
 29 30  2  0  0  0
 29 31  1  0  0  0
 31 32  2  0  0  0
 31 24  1  0  0  0
 32 21  1  0  0  0
  3  4  1  0  0  0
 19 20  1  0  0  0
M  END
>  <minimizedAffinity>
-6.88792

>  <minimizedRMSD>
1.62422

$$$$
CHEMBL1893022 4984972 CSC026005874 MCULE-2660691043 MolPort-004-252-539 PubChem-3655302 Z18365917 ZINC000004984972 ZINC04984972


 31 32  0  0  0  0  0  0  0  0999 V2000
   16.6819   -9.3799   16.7185 O   0  0  0  0  0  0  0  0  0  0  0  0
   15.6859   -8.4043   16.6284 C   0  0  0  0  0  0  0  0  0  0  0  0
   15.8804   -7.3380   15.9850 O   0  0  0  0  0  0  0  0  0  0  0  0
   14.3915   -8.6093   17.3377 C   0  0  0  0  0  0  0  0  0  0  0  0
   14.2805   -7.6801   18.4977 C   0  0  0  0  0  0  0  0  0  0  0  0
   15.2724   -7.6597   19.4735 C   0  0  0  0  0  0  0  0  0  0  0  0
   15.1990   -6.7833   20.5591 C   0  0  0  0  0  0  0  0  0  0  0  0
   14.0962   -5.8929   20.6714 C   0  0  0  0  0  0  0  0  0  0  0  0
   13.0892   -5.9135   19.6679 C   0  0  0  0  0  0  0  0  0  0  0  0
   13.2001   -6.8087   18.5936 C   0  0  0  0  0  0  0  0  0  0  0  0
   16.2516   -6.8481   21.4861 O   0  0  0  0  0  0  0  0  0  0  0  0
   16.1161   -7.1847   22.8593 C   0  0  0  0  0  0  0  0  0  0  0  0
   14.0410   -5.0215   21.7731 O   0  0  0  0  0  0  0  0  0  0  0  0
   13.1694   -5.1523   22.8873 C   0  0  0  0  0  0  0  0  0  0  0  0
   11.9897   -5.0497   19.7396 O   0  0  0  0  0  0  0  0  0  0  0  0
   11.3330   -4.5306   18.5904 C   0  0  0  0  0  0  0  0  0  0  0  0
   18.0355   -9.1253   16.3625 C   0  0  0  0  0  0  0  0  0  0  0  0
   17.4585   -9.5634   13.9464 N   0  0  0  0  0  0  0  0  0  0  0  0
   18.3505   -9.7474   15.0455 C   0  0  0  0  0  0  0  0  0  0  0  0
   19.3884  -10.4504   14.9194 O   0  0  0  0  0  0  0  0  0  0  0  0
   16.6515   -9.0138   14.0727 H   0  0  0  0  0  0  0  0  0  0  0  0
   17.7067  -10.1635   12.6468 C   0  0  0  0  0  0  0  0  0  0  0  0
   16.5396   -9.8708   11.7232 C   0  0  0  0  0  0  0  0  0  0  0  0
   17.9985   -8.7632    7.8387 C   0  0  0  0  0  0  0  0  0  0  0  0
   18.6512   -8.3089    8.9969 C   0  0  0  0  0  0  0  0  0  0  0  0
   18.1732   -8.6659   10.2610 C   0  0  0  0  0  0  0  0  0  0  0  0
   17.0384   -9.4755   10.3773 C   0  0  0  0  0  0  0  0  0  0  0  0
   16.3890   -9.9347    9.2265 C   0  0  0  0  0  0  0  0  0  0  0  0
   16.8674   -9.5774    7.9623 C   0  0  0  0  0  0  0  0  0  0  0  0
   19.5521   -7.5518    6.3431 C   0  0  0  0  0  0  0  0  0  0  0  0
   18.4509   -8.4233    6.5609 O   0  0  0  0  0  0  0  0  0  0  0  0
 30 31  1  0  0  0
 31 24  1  0  0  0
 24 25  2  0  0  0
 25 26  1  0  0  0
 26 27  2  0  0  0
 27 23  1  0  0  0
 27 28  1  0  0  0
 23 22  1  0  0  0
 22 18  1  0  0  0
 18 19  1  0  0  0
 19 20  2  0  0  0
 19 17  1  0  0  0
 17  1  1  0  0  0
  1  2  1  0  0  0
  2  3  2  0  0  0
  2  4  1  0  0  0
  4  5  1  0  0  0
  5  6  2  0  0  0
  6  7  1  0  0  0
  7 11  1  0  0  0
  7  8  2  0  0  0
 11 12  1  0  0  0
  8 13  1  0  0  0
  8  9  1  0  0  0
 13 14  1  0  0  0
  9 15  1  0  0  0
  9 10  2  0  0  0
 15 16  1  0  0  0
 10  5  1  0  0  0
 28 29  2  0  0  0
 29 24  1  0  0  0
 18 21  1  0  0  0
M  END
>  <minimizedAffinity>
-6.88495

>  <minimizedRMSD>
1.62372

$$$$
CHEMBL1613593 2064071 LN00453661 MCULE-7727229913 MolPort-002-548-170 PubChem-658367 ZINC000002064071 ZINC02064071


 27 28  0  0  0  0  0  0  0  0999 V2000
   15.8947   -8.5974   17.1552 C   0  0  0  0  0  0  0  0  0  0  0  0
   14.9454   -7.8296   16.5900 N   0  0  0  0  0  0  0  0  0  0  0  0
   14.3517   -7.1875   17.5840 N   0  0  0  0  0  0  0  0  0  0  0  0
   14.9634   -7.5914   18.7153 C   0  0  0  0  0  0  0  0  0  0  0  0
   15.9130   -8.4596   18.4579 O   0  0  0  0  0  0  0  0  0  0  0  0
   14.6130   -7.1202   20.0618 C   0  0  0  0  0  0  0  0  0  0  0  0
   13.3563   -6.5690   20.3145 C   0  0  0  0  0  0  0  0  0  0  0  0
   13.0165   -6.1172   21.5978 C   0  0  0  0  0  0  0  0  0  0  0  0
   13.9456   -6.2164   22.6481 C   0  0  0  0  0  0  0  0  0  0  0  0
   15.2246   -6.7760   22.3961 C   0  0  0  0  0  0  0  0  0  0  0  0
   15.5380   -7.2203   21.1015 C   0  0  0  0  0  0  0  0  0  0  0  0
   11.7566   -5.5639   21.8543 O   0  0  0  0  0  0  0  0  0  0  0  0
   11.0467   -4.7874   20.8989 C   0  0  0  0  0  0  0  0  0  0  0  0
   13.5441   -5.7460   23.9100 O   0  0  0  0  0  0  0  0  0  0  0  0
   14.2952   -5.8798   25.1080 C   0  0  0  0  0  0  0  0  0  0  0  0
   16.1705   -6.8878   23.4219 O   0  0  0  0  0  0  0  0  0  0  0  0
   17.5452   -6.5708   23.2469 C   0  0  0  0  0  0  0  0  0  0  0  0
   16.9915   -9.6719   16.2383 S   0  0  0  0  0  0  0  0  0  0  0  0
   16.8321   -8.6983   14.7100 C   0  0  0  0  0  0  0  0  0  0  0  0
   16.4567   -9.5813   13.5716 C   0  0  0  0  0  0  0  0  0  0  0  0
   15.2712   -9.9978   13.4731 O   0  0  0  0  0  0  0  0  0  0  0  0
   17.4260   -9.9531   12.6395 O   0  0  0  0  0  0  0  0  0  0  0  0
   17.4284   -9.4386   11.3166 C   0  0  0  0  0  0  0  0  0  0  0  0
   16.4349  -10.2128   10.4711 C   0  0  0  0  0  0  0  0  0  0  0  0
   16.2543   -9.5508    9.1139 C   0  0  0  0  0  0  0  0  0  0  0  0
   17.8530   -8.7274    7.3786 C   0  0  0  0  0  0  0  0  0  0  0  0
   17.3729   -9.9366    8.1583 C   0  0  0  0  0  0  0  0  0  0  0  0
 26 27  1  0  0  0
 27 25  1  0  0  0
 25 24  1  0  0  0
 24 23  1  0  0  0
 23 22  1  0  0  0
 22 20  1  0  0  0
 20 21  2  0  0  0
 20 19  1  0  0  0
 19 18  1  0  0  0
 18  1  1  0  0  0
  1  2  2  0  0  0
  2  3  1  0  0  0
  3  4  2  0  0  0
  4  5  1  0  0  0
  4  6  1  0  0  0
  5  1  1  0  0  0
  6  7  2  0  0  0
  7  8  1  0  0  0
  8 12  1  0  0  0
  8  9  2  0  0  0
 12 13  1  0  0  0
  9 14  1  0  0  0
  9 10  1  0  0  0
 14 15  1  0  0  0
 10 16  1  0  0  0
 10 11  2  0  0  0
 16 17  1  0  0  0
 11  6  1  0  0  0
M  END
>  <minimizedAffinity>
-6.86991

>  <minimizedRMSD>
1.77347

$$$$
CHEMBL1564142 9290164 ChemDiv-E135-1251 MCULE-3548146614 MolPort-006-845-132 PubChem-17253855 ZINC000009290164


 36 39  0  0  0  0  0  0  0  0999 V2000
   15.4071   -8.2662   17.5672 N   0  0  0  0  0  0  0  0  0  0  0  0
   15.5374   -8.1669   16.1430 C   0  0  0  0  0  0  0  0  0  0  0  0
   14.6798   -7.5276   15.4730 O   0  0  0  0  0  0  0  0  0  0  0  0
   16.0774   -8.8094   18.0414 H   0  0  0  0  0  0  0  0  0  0  0  0
   16.6559   -8.8472   15.4449 C   0  0  0  0  0  0  0  0  0  0  0  0
   16.5617   -8.9873   14.1120 C   0  0  0  0  0  0  0  0  0  0  0  0
   17.5357   -9.6561   13.2111 C   0  0  0  0  0  0  0  0  0  0  0  0
   18.5833  -10.2733   13.6699 N   0  0  0  0  0  0  0  0  0  0  0  0
   18.9375  -10.3591   15.3533 S   0  0  0  0  0  0  0  0  0  0  0  0
   18.8014  -11.7760   15.8334 O   0  0  0  0  0  0  0  0  0  0  0  0
   20.3323   -9.8550   15.5955 O   0  0  0  0  0  0  0  0  0  0  0  0
   17.7992   -9.3516   16.1661 N   0  0  0  0  0  0  0  0  0  0  0  0
   18.1247   -8.9121   17.5147 C   0  0  0  0  0  0  0  0  0  0  0  0
   17.2949   -9.6359   11.7505 C   0  0  0  0  0  0  0  0  0  0  0  0
   18.3077   -9.2244   10.8684 C   0  0  0  0  0  0  0  0  0  0  0  0
   18.0834   -9.2036    9.4888 C   0  0  0  0  0  0  0  0  0  0  0  0
   16.8436   -9.5939    8.9767 C   0  0  0  0  0  0  0  0  0  0  0  0
   16.6051   -9.5718    7.5102 C   0  0  0  0  0  0  0  0  0  0  0  0
   15.8283  -10.0050    9.8435 C   0  0  0  0  0  0  0  0  0  0  0  0
   16.0528  -10.0257   11.2230 C   0  0  0  0  0  0  0  0  0  0  0  0
   13.3460   -7.0070   20.1165 N   0  0  0  0  0  0  0  0  0  0  0  0
   14.4101   -7.6720   19.7076 N   0  0  0  0  0  0  0  0  0  0  0  0
   14.3901   -7.6467   18.3624 C   0  0  0  0  0  0  0  0  0  0  0  0
   13.2925   -6.9407   17.8829 C   0  0  0  0  0  0  0  0  0  0  0  0
   12.6616   -6.5533   19.0502 C   0  0  0  0  0  0  0  0  0  0  0  0
   11.4131   -5.7432   19.1203 C   0  0  0  0  0  0  0  0  0  0  0  0
   13.0364   -6.7616   21.5179 C   0  0  0  0  0  0  0  0  0  0  0  0
   16.6152   -6.0695   26.2256 C   0  0  0  0  0  0  0  0  0  0  0  0
   16.8947   -6.4392   24.7778 C   0  0  0  0  0  0  0  0  0  0  0  0
   15.9108   -7.5020   24.2766 C   0  0  0  0  0  0  0  0  0  0  0  0
   14.5099   -6.9201   24.0891 C   0  0  0  0  0  0  0  0  0  0  0  0
   14.5878   -5.7242   23.2562 N   0  0  0  0  0  0  0  0  0  0  0  0
   15.4738   -4.6492   23.6899 C   0  0  0  0  0  0  0  0  0  0  0  0
   16.8881   -5.1989   23.8771 C   0  0  0  0  0  0  0  0  0  0  0  0
   13.8519   -5.6173   22.0286 C   0  0  0  0  0  0  0  0  0  0  0  0
   13.9153   -4.5625   21.3424 O   0  0  0  0  0  0  0  0  0  0  0  0
 28 29  1  0  0  0
 29 30  1  0  0  0
 30 31  1  0  0  0
 31 32  1  0  0  0
 32 33  1  0  0  0
 33 34  1  0  0  0
 32 35  1  0  0  0
 35 36  2  0  0  0
 35 27  1  0  0  0
 27 21  1  0  0  0
 21 22  1  0  0  0
 22 23  2  0  0  0
 23  1  1  0  0  0
  1  2  1  0  0  0
  2  3  2  0  0  0
  2  5  1  0  0  0
  5  6  2  0  0  0
  6  7  1  0  0  0
  7  8  2  0  0  0
  8  9  1  0  0  0
  9 10  2  0  0  0
  9 11  2  0  0  0
  9 12  1  0  0  0
 12 13  1  0  0  0
  7 14  1  0  0  0
 14 15  2  0  0  0
 15 16  1  0  0  0
 16 17  2  0  0  0
 17 18  1  0  0  0
 17 19  1  0  0  0
 19 20  2  0  0  0
 23 24  1  0  0  0
 24 25  2  0  0  0
 25 26  1  0  0  0
 34 29  1  0  0  0
 25 21  1  0  0  0
 12  5  1  0  0  0
 20 14  1  0  0  0
  1  4  1  0  0  0
M  END
>  <minimizedAffinity>
-6.86953

>  <minimizedRMSD>
1.43861

$$$$
CHEMBL4086969 PubChem-135126785


 34 37  0  0  0  0  0  0  0  0999 V2000
   13.1437   -6.3634   19.4977 C   0  0  0  0  0  0  0  0  0  0  0  0
   14.1748   -7.2455   19.1307 C   0  0  0  0  0  0  0  0  0  0  0  0
   15.2568   -7.4578   19.9913 C   0  0  0  0  0  0  0  0  0  0  0  0
   15.3177   -6.8050   21.2238 C   0  0  0  0  0  0  0  0  0  0  0  0
   14.2876   -5.9211   21.6063 C   0  0  0  0  0  0  0  0  0  0  0  0
   13.2082   -5.7073   20.7378 C   0  0  0  0  0  0  0  0  0  0  0  0
   14.3669   -5.2724   22.8504 C   0  0  0  0  0  0  0  0  0  0  0  0
   13.4507   -4.4790   23.2026 O   0  0  0  0  0  0  0  0  0  0  0  0
   15.4732   -5.5150   23.6948 C   0  0  0  0  0  0  0  0  0  0  0  0
   16.4659   -6.4043   23.2585 C   0  0  0  0  0  0  0  0  0  0  0  0
   16.3704   -7.0212   22.0522 N   0  0  0  0  0  0  0  0  0  0  0  0
   17.0826   -7.6405   21.7719 H   0  0  0  0  0  0  0  0  0  0  0  0
   15.6262   -4.8688   25.0202 C   0  0  0  0  0  0  0  0  0  0  0  0
   15.3972   -5.5333   26.0692 O   0  0  0  0  0  0  0  0  0  0  0  0
   16.0211   -3.5321   25.1178 O   0  0  0  0  0  0  0  0  0  0  0  0
   15.2170   -2.5554   25.7621 C   0  0  0  0  0  0  0  0  0  0  0  0
   12.0695   -6.1532   18.6249 O   0  0  0  0  0  0  0  0  0  0  0  0
   11.4983   -4.8713   18.4016 C   0  0  0  0  0  0  0  0  0  0  0  0
   14.1533   -7.9409   17.8091 C   0  0  0  0  0  0  0  0  0  0  0  0
   15.4802   -7.9225   17.2157 N   0  0  0  0  0  0  0  0  0  0  0  0
   15.3055   -7.7066   15.7833 C   0  0  0  0  0  0  0  0  0  0  0  0
   16.6701   -7.7313   15.0866 C   0  0  0  0  0  0  0  0  0  0  0  0
   17.3852   -8.9938   15.3195 N   0  0  0  0  0  0  0  0  0  0  0  0
   17.4273   -9.3266   16.7519 C   0  0  0  0  0  0  0  0  0  0  0  0
   16.0401   -9.2563   17.3988 C   0  0  0  0  0  0  0  0  0  0  0  0
   16.7270  -10.0676   14.5783 C   0  0  0  0  0  0  0  0  0  0  0  0
   16.9607   -9.9098   13.1134 C   0  0  0  0  0  0  0  0  0  0  0  0
   15.8798   -9.8120   12.2299 C   0  0  0  0  0  0  0  0  0  0  0  0
   16.1081   -9.6726   10.8581 C   0  0  0  0  0  0  0  0  0  0  0  0
   17.4209   -9.6328   10.3595 C   0  0  0  0  0  0  0  0  0  0  0  0
   18.4966   -9.7361   11.2481 C   0  0  0  0  0  0  0  0  0  0  0  0
   18.2683   -9.8757   12.6203 C   0  0  0  0  0  0  0  0  0  0  0  0
   17.6826   -9.4933    8.9937 O   0  0  0  0  0  0  0  0  0  0  0  0
   16.7532   -8.9118    8.0895 C   0  0  0  0  0  0  0  0  0  0  0  0
  1  2  2  0  0  0
  2  3  1  0  0  0
  3  4  2  0  0  0
  4  5  1  0  0  0
  5  6  2  0  0  0
  5  7  1  0  0  0
  7  8  2  0  0  0
  7  9  1  0  0  0
  9 10  2  0  0  0
 10 11  1  0  0  0
  9 13  1  0  0  0
 13 14  2  0  0  0
 13 15  1  0  0  0
 15 16  1  0  0  0
  2 19  1  0  0  0
 19 20  1  0  0  0
 20 21  1  0  0  0
 21 22  1  0  0  0
 22 23  1  0  0  0
 23 24  1  0  0  0
 24 25  1  0  0  0
 23 26  1  0  0  0
 26 27  1  0  0  0
 27 28  2  0  0  0
 28 29  1  0  0  0
 29 30  2  0  0  0
 30 31  1  0  0  0
 31 32  2  0  0  0
 30 33  1  0  0  0
 33 34  1  0  0  0
  1 17  1  0  0  0
 17 18  1  0  0  0
  6  1  1  0  0  0
 25 20  1  0  0  0
 32 27  1  0  0  0
 11  4  1  0  0  0
 11 12  1  0  0  0
M  END
>  <minimizedAffinity>
-6.86233

>  <minimizedRMSD>
1.59921

$$$$
CHEMBL4079458 PubChem-137651958


 37 41  0  0  0  0  0  0  0  0999 V2000
   15.7632   -7.7848   15.6026 C   0  0  0  0  0  0  0  0  0  0  0  0
   16.4148   -9.0088   15.5943 C   0  0  0  0  0  0  0  0  0  0  0  0
   16.5533   -9.7473   16.7196 C   0  0  0  0  0  0  0  0  0  0  0  0
   16.0528   -9.3236   17.9428 C   0  0  0  0  0  0  0  0  0  0  0  0
   15.3852   -8.0754   17.9661 C   0  0  0  0  0  0  0  0  0  0  0  0
   15.2638   -7.3517   16.7994 N   0  0  0  0  0  0  0  0  0  0  0  0
   17.2201  -10.8780   16.4211 N   0  0  0  0  0  0  0  0  0  0  0  0
   17.4776  -10.8093   15.1144 N   0  0  0  0  0  0  0  0  0  0  0  0
   16.9969   -9.6823   14.5957 N   0  0  0  0  0  0  0  0  0  0  0  0
   14.8111   -7.5274   19.2241 C   0  0  0  0  0  0  0  0  0  0  0  0
   15.6044   -7.0559   20.2936 C   0  0  0  0  0  0  0  0  0  0  0  0
   14.9983   -6.5536   21.4476 C   0  0  0  0  0  0  0  0  0  0  0  0
   13.6038   -6.5041   21.5746 C   0  0  0  0  0  0  0  0  0  0  0  0
   12.8107   -6.9736   20.5095 C   0  0  0  0  0  0  0  0  0  0  0  0
   13.4157   -7.4760   19.3554 C   0  0  0  0  0  0  0  0  0  0  0  0
   11.4562   -6.9531   20.5700 F   0  0  0  0  0  0  0  0  0  0  0  0
   16.9591   -7.0732   20.2406 F   0  0  0  0  0  0  0  0  0  0  0  0
   13.0166   -5.9611   22.8217 C   0  0  0  0  0  0  0  0  0  0  0  0
   13.6191   -6.1247   23.9185 O   0  0  0  0  0  0  0  0  0  0  0  0
   11.7747   -5.2530   22.7985 N   0  0  0  0  0  0  0  0  0  0  0  0
   11.3123   -5.1304   21.9381 H   0  0  0  0  0  0  0  0  0  0  0  0
   11.1730   -4.7084   24.0037 C   0  0  0  0  0  0  0  0  0  0  0  0
   10.2568   -3.5609   23.6352 C   0  0  0  0  0  0  0  0  0  0  0  0
   17.0982   -9.2836   13.1987 C   0  0  0  0  0  0  0  0  0  0  0  0
   18.5004   -9.6058   12.6513 C   0  0  0  0  0  0  0  0  0  0  0  0
   18.4678  -10.3288   11.3037 C   0  0  0  0  0  0  0  0  0  0  0  0
   17.4686   -9.7176   10.4272 N   0  0  0  0  0  0  0  0  0  0  0  0
   16.1002   -9.5105   10.9133 C   0  0  0  0  0  0  0  0  0  0  0  0
   15.9647   -9.9090   12.3820 C   0  0  0  0  0  0  0  0  0  0  0  0
   17.8382   -9.2779    9.1119 C   0  0  0  0  0  0  0  0  0  0  0  0
   18.6929   -8.2288    8.9536 N   0  0  0  0  0  0  0  0  0  0  0  0
   19.0541   -7.7976    7.7173 C   0  0  0  0  0  0  0  0  0  0  0  0
   18.5446   -8.4302    6.5845 C   0  0  0  0  0  0  0  0  0  0  0  0
   17.6761   -9.5065    6.7589 C   0  0  0  0  0  0  0  0  0  0  0  0
   17.3387   -9.9080    8.0120 N   0  0  0  0  0  0  0  0  0  0  0  0
   18.9415   -7.9852    5.2201 C   0  0  0  0  0  0  0  0  0  0  0  0
   20.2913   -7.2944    5.2671 C   0  0  0  0  0  0  0  0  0  0  0  0
  1  2  2  0  0  0
  2  3  1  0  0  0
  3  4  2  0  0  0
  4  5  1  0  0  0
  5  6  2  0  0  0
  5 10  1  0  0  0
 10 11  2  0  0  0
 11 12  1  0  0  0
 12 13  2  0  0  0
 13 14  1  0  0  0
 14 15  2  0  0  0
 14 16  1  0  0  0
 13 18  1  0  0  0
 18 19  2  0  0  0
 18 20  1  0  0  0
 20 22  1  0  0  0
 22 23  1  0  0  0
 11 17  1  0  0  0
  3  7  1  0  0  0
  7  8  2  0  0  0
  8  9  1  0  0  0
  9 24  1  0  0  0
 24 25  1  0  0  0
 25 26  1  0  0  0
 26 27  1  0  0  0
 27 28  1  0  0  0
 28 29  1  0  0  0
 27 30  1  0  0  0
 30 31  2  0  0  0
 31 32  1  0  0  0
 32 33  2  0  0  0
 33 34  1  0  0  0
 34 35  2  0  0  0
 33 36  1  0  0  0
 36 37  1  0  0  0
  6  1  1  0  0  0
 15 10  1  0  0  0
 29 24  1  0  0  0
 35 30  1  0  0  0
  9  2  1  0  0  0
 20 21  1  0  0  0
M  END
>  <minimizedAffinity>
-6.85647

>  <minimizedRMSD>
1.55415

$$$$
CHEMBL2260018 PubChem-71588628


 33 36  0  0  0  0  0  0  0  0999 V2000
   16.6910   -9.9489   14.3074 C   0  0  0  0  0  0  0  0  0  0  0  0
   16.4438   -9.6537   15.7459 C   0  0  0  0  0  0  0  0  0  0  0  0
   16.7379  -10.5226   16.6084 O   0  0  0  0  0  0  0  0  0  0  0  0
   15.8580   -8.3980   16.1224 N   0  0  0  0  0  0  0  0  0  0  0  0
   15.6264   -7.7749   15.3963 H   0  0  0  0  0  0  0  0  0  0  0  0
   15.5858   -7.9797   17.4390 N   0  0  0  0  0  0  0  0  0  0  0  0
   14.4012   -7.6603   17.8561 C   0  0  0  0  0  0  0  0  0  0  0  0
   14.1662   -7.2302   19.2378 C   0  0  0  0  0  0  0  0  0  0  0  0
   15.1046   -7.5553   20.2193 C   0  0  0  0  0  0  0  0  0  0  0  0
   14.9034   -7.1570   21.5426 C   0  0  0  0  0  0  0  0  0  0  0  0
   13.7581   -6.4266   21.9006 C   0  0  0  0  0  0  0  0  0  0  0  0
   12.8116   -6.0969   20.9179 C   0  0  0  0  0  0  0  0  0  0  0  0
   13.0223   -6.5019   19.5894 C   0  0  0  0  0  0  0  0  0  0  0  0
   11.6734   -5.3693   21.2817 O   0  0  0  0  0  0  0  0  0  0  0  0
   10.6673   -4.9979   20.3493 C   0  0  0  0  0  0  0  0  0  0  0  0
   13.5415   -6.0198   23.2217 O   0  0  0  0  0  0  0  0  0  0  0  0
   14.5343   -6.1281   24.2328 C   0  0  0  0  0  0  0  0  0  0  0  0
   16.2982   -8.4972   13.2846 S   0  0  0  0  0  0  0  0  0  0  0  0
   16.4191   -9.6310   10.7162 N   0  0  0  0  0  0  0  0  0  0  0  0
   15.7756   -9.5039   11.8944 C   0  0  0  0  0  0  0  0  0  0  0  0
   14.6186  -10.1894   11.8673 N   0  0  0  0  0  0  0  0  0  0  0  0
   14.5755  -10.7450   10.6642 N   0  0  0  0  0  0  0  0  0  0  0  0
   15.6547  -10.4123    9.9721 N   0  0  0  0  0  0  0  0  0  0  0  0
   17.0858   -8.0499    6.7659 C   0  0  0  0  0  0  0  0  0  0  0  0
   18.3489   -7.5706    6.4121 C   0  0  0  0  0  0  0  0  0  0  0  0
   19.3906   -7.5897    7.3422 C   0  0  0  0  0  0  0  0  0  0  0  0
   19.1739   -8.0909    8.6289 C   0  0  0  0  0  0  0  0  0  0  0  0
   17.8973   -8.5892    8.9959 C   0  0  0  0  0  0  0  0  0  0  0  0
   16.8612   -8.5534    8.0498 C   0  0  0  0  0  0  0  0  0  0  0  0
   17.6893   -9.0858   10.3055 C   0  0  0  0  0  0  0  0  0  0  0  0
   18.7609   -9.0726   11.2113 C   0  0  0  0  0  0  0  0  0  0  0  0
   20.0132   -8.5798   10.8414 C   0  0  0  0  0  0  0  0  0  0  0  0
   20.2195   -8.0908    9.5524 C   0  0  0  0  0  0  0  0  0  0  0  0
 24 25  2  0  0  0
 25 26  1  0  0  0
 26 27  2  0  0  0
 27 28  1  0  0  0
 28 29  2  0  0  0
 28 30  1  0  0  0
 30 31  2  0  0  0
 31 32  1  0  0  0
 32 33  2  0  0  0
 30 19  1  0  0  0
 19 20  1  0  0  0
 20 21  2  0  0  0
 21 22  1  0  0  0
 22 23  2  0  0  0
 20 18  1  0  0  0
 18  1  1  0  0  0
  1  2  1  0  0  0
  2  3  2  0  0  0
  2  4  1  0  0  0
  4  6  1  0  0  0
  6  7  2  0  0  0
  7  8  1  0  0  0
  8  9  2  0  0  0
  9 10  1  0  0  0
 10 11  2  0  0  0
 11 12  1  0  0  0
 12 13  2  0  0  0
 12 14  1  0  0  0
 14 15  1  0  0  0
 11 16  1  0  0  0
 16 17  1  0  0  0
 29 24  1  0  0  0
 23 19  1  0  0  0
 13  8  1  0  0  0
 33 27  1  0  0  0
  4  5  1  0  0  0
M  END
>  <minimizedAffinity>
-6.85182

>  <minimizedRMSD>
1.72110

$$$$
CHEMBL4559037 PubChem-135335630


 33 36  0  0  0  0  0  0  0  0999 V2000
   14.4725   -7.2833   19.2209 C   0  0  0  0  0  0  0  0  0  0  0  0
   15.5405   -8.1518   19.4432 C   0  0  0  0  0  0  0  0  0  0  0  0
   15.9713   -8.5137   18.2273 N   0  0  0  0  0  0  0  0  0  0  0  0
   16.9864   -9.3457   17.8933 C   0  0  0  0  0  0  0  0  0  0  0  0
   17.2377   -9.5633   16.5315 C   0  0  0  0  0  0  0  0  0  0  0  0
   16.4437   -8.9214   15.5519 C   0  0  0  0  0  0  0  0  0  0  0  0
   15.3979   -8.0676   15.9624 C   0  0  0  0  0  0  0  0  0  0  0  0
   15.1972   -7.8910   17.3284 C   0  0  0  0  0  0  0  0  0  0  0  0
   14.2539   -7.1173   17.8918 N   0  0  0  0  0  0  0  0  0  0  0  0
   12.4374   -6.0014   20.0265 C   0  0  0  0  0  0  0  0  0  0  0  0
   11.7364   -5.3974   21.0830 C   0  0  0  0  0  0  0  0  0  0  0  0
   12.2451   -5.4035   22.3893 C   0  0  0  0  0  0  0  0  0  0  0  0
   13.4745   -6.0243   22.6397 C   0  0  0  0  0  0  0  0  0  0  0  0
   14.1787   -6.6272   21.5967 C   0  0  0  0  0  0  0  0  0  0  0  0
   13.6781   -6.6264   20.2862 C   0  0  0  0  0  0  0  0  0  0  0  0
   14.1536   -6.0588   24.2570 Cl  0  0  0  0  0  0  0  0  0  0  0  0
   11.3316   -4.8263   18.1440 C   0  0  0  0  0  0  0  0  0  0  0  0
   11.9121   -5.9845   18.7286 O   0  0  0  0  0  0  0  0  0  0  0  0
   11.5471   -4.8018   23.4424 O   0  0  0  0  0  0  0  0  0  0  0  0
   10.6223   -3.7409   23.2456 C   0  0  0  0  0  0  0  0  0  0  0  0
   16.6918   -9.1468   14.1518 N   0  0  0  0  0  0  0  0  0  0  0  0
   17.9812   -9.6452   13.6859 C   0  0  0  0  0  0  0  0  0  0  0  0
   17.7597  -10.7091   12.6074 C   0  0  0  0  0  0  0  0  0  0  0  0
   16.8695  -10.2441   11.5327 N   0  0  0  0  0  0  0  0  0  0  0  0
   15.5813   -9.7856   12.0716 C   0  0  0  0  0  0  0  0  0  0  0  0
   15.7450   -8.6978   13.1369 C   0  0  0  0  0  0  0  0  0  0  0  0
   17.5053   -9.1679   10.7752 C   0  0  0  0  0  0  0  0  0  0  0  0
   17.8850   -9.6518    9.3824 C   0  0  0  0  0  0  0  0  0  0  0  0
   17.2298   -8.8022    8.3010 C   0  0  0  0  0  0  0  0  0  0  0  0
   18.2482   -8.2010    7.3904 C   0  0  0  0  0  0  0  0  0  0  0  0
   18.8908   -7.1770    7.7504 O   0  0  0  0  0  0  0  0  0  0  0  0
   18.4610   -8.7721    6.1358 O   0  0  0  0  0  0  0  0  0  0  0  0
   19.2944   -8.1578    5.1647 C   0  0  0  0  0  0  0  0  0  0  0  0
 17 18  1  0  0  0
 18 10  1  0  0  0
 10 11  2  0  0  0
 11 12  1  0  0  0
 12 13  2  0  0  0
 13 14  1  0  0  0
 14 15  2  0  0  0
 15  1  1  0  0  0
  1  2  2  0  0  0
  2  3  1  0  0  0
  3  4  1  0  0  0
  4  5  2  0  0  0
  5  6  1  0  0  0
  6  7  2  0  0  0
  7  8  1  0  0  0
  8  9  2  0  0  0
  6 21  1  0  0  0
 21 22  1  0  0  0
 22 23  1  0  0  0
 23 24  1  0  0  0
 24 25  1  0  0  0
 25 26  1  0  0  0
 24 27  1  0  0  0
 27 28  1  0  0  0
 28 29  1  0  0  0
 29 30  1  0  0  0
 30 31  2  0  0  0
 30 32  1  0  0  0
 32 33  1  0  0  0
 13 16  1  0  0  0
 12 19  1  0  0  0
 19 20  1  0  0  0
 15 10  1  0  0  0
  9  1  1  0  0  0
  8  3  1  0  0  0
 26 21  1  0  0  0
M  END
>  <minimizedAffinity>
-6.84861

>  <minimizedRMSD>
1.88619

$$$$
CHEMBL3797534 PubChem-127048101


 37 39  0  0  0  0  0  0  0  0999 V2000
   14.7726   -7.7330   18.1911 C   0  0  0  0  0  0  0  0  0  0  0  0
   13.5364   -7.1814   17.8472 C   0  0  0  0  0  0  0  0  0  0  0  0
   12.7725   -6.5015   18.7976 C   0  0  0  0  0  0  0  0  0  0  0  0
   13.2396   -6.3493   20.1161 C   0  0  0  0  0  0  0  0  0  0  0  0
   14.4894   -6.9248   20.4694 C   0  0  0  0  0  0  0  0  0  0  0  0
   15.2358   -7.6084   19.5035 C   0  0  0  0  0  0  0  0  0  0  0  0
   11.4621   -5.9274   18.3814 C   0  0  0  0  0  0  0  0  0  0  0  0
   15.5723   -8.4502   17.1862 C   0  0  0  0  0  0  0  0  0  0  0  0
   15.3846   -8.3320   15.8539 N   0  0  0  0  0  0  0  0  0  0  0  0
   16.3350   -9.1604   15.3799 C   0  0  0  0  0  0  0  0  0  0  0  0
   17.0210   -9.7149   16.3481 O   0  0  0  0  0  0  0  0  0  0  0  0
   16.5760   -9.2966   17.4930 N   0  0  0  0  0  0  0  0  0  0  0  0
   16.5715   -9.4104   13.9561 C   0  0  0  0  0  0  0  0  0  0  0  0
   15.5828   -9.5435   12.9872 C   0  0  0  0  0  0  0  0  0  0  0  0
   16.1172   -9.7709   11.7129 C   0  0  0  0  0  0  0  0  0  0  0  0
   17.5070   -9.8255   11.6873 C   0  0  0  0  0  0  0  0  0  0  0  0
   18.0876   -9.5679   13.2421 S   0  0  0  0  0  0  0  0  0  0  0  0
   15.2600   -9.9296   10.5054 C   0  0  0  0  0  0  0  0  0  0  0  0
   18.3622  -10.0021   10.4796 C   0  0  0  0  0  0  0  0  0  0  0  0
   18.7152   -8.7028    9.9357 N   0  0  0  0  0  0  0  0  0  0  0  0
   18.0835   -8.6109    8.6323 C   0  0  0  0  0  0  0  0  0  0  0  0
   19.7279   -8.6243    9.8419 H   0  0  0  0  0  0  0  0  0  0  0  0
   15.0280   -6.9106   21.8623 C   0  0  0  0  0  0  0  0  0  0  0  0
   14.7222   -8.2242   22.5565 C   0  0  0  0  0  0  0  0  0  0  0  0
   12.4290   -5.6392   21.0210 O   0  0  0  0  0  0  0  0  0  0  0  0
   12.6582   -5.5363   22.4218 C   0  0  0  0  0  0  0  0  0  0  0  0
   12.8106   -4.0773   22.8279 C   0  0  0  0  0  0  0  0  0  0  0  0
   11.6775   -3.6462   23.5201 O   0  0  0  0  0  0  0  0  0  0  0  0
   11.5733   -4.1716   24.3288 H   0  0  0  0  0  0  0  0  0  0  0  0
   14.0582   -3.8784   23.6781 C   0  0  0  0  0  0  0  0  0  0  0  0
   14.0942   -4.8297   24.7807 N   0  0  0  0  0  0  0  0  0  0  0  0
   14.2690   -4.4117   26.1344 C   0  0  0  0  0  0  0  0  0  0  0  0
   14.4105   -3.1920   26.4161 O   0  0  0  0  0  0  0  0  0  0  0  0
   13.9950   -5.7897   24.5865 H   0  0  0  0  0  0  0  0  0  0  0  0
   14.3287   -5.4302   27.2164 C   0  0  0  0  0  0  0  0  0  0  0  0
   15.5838   -6.0384   27.2172 O   0  0  0  0  0  0  0  0  0  0  0  0
   15.7350   -6.4690   26.3613 H   0  0  0  0  0  0  0  0  0  0  0  0
  1  2  2  0  0  0
  2  3  1  0  0  0
  3  4  2  0  0  0
  4  5  1  0  0  0
  5  6  2  0  0  0
  5 23  1  0  0  0
 23 24  1  0  0  0
  4 25  1  0  0  0
 25 26  1  0  0  0
 27 26  1  0  0  0
 27 30  1  0  0  0
 30 31  1  0  0  0
 31 32  1  0  0  0
 32 33  2  0  0  0
 32 35  1  0  0  0
 35 36  1  0  0  0
 27 28  1  0  0  0
  3  7  1  0  0  0
  1  8  1  0  0  0
  8  9  1  0  0  0
  9 10  2  0  0  0
 10 11  1  0  0  0
 11 12  1  0  0  0
 10 13  1  0  0  0
 13 14  2  0  0  0
 14 15  1  0  0  0
 15 16  2  0  0  0
 16 17  1  0  0  0
 16 19  1  0  0  0
 19 20  1  0  0  0
 20 21  1  0  0  0
 15 18  1  0  0  0
  6  1  1  0  0  0
 12  8  2  0  0  0
 17 13  1  0  0  0
 31 34  1  0  0  0
 36 37  1  0  0  0
 28 29  1  0  0  0
 20 22  1  0  0  0
M  END
>  <minimizedAffinity>
-6.84775

>  <minimizedRMSD>
1.57926

$$$$
CHEMBL4098246 PubChem-137659713


 33 37  0  0  0  0  0  0  0  0999 V2000
   16.7259   -8.9979   16.4651 C   0  0  0  0  0  0  0  0  0  0  0  0
   15.8786   -8.0308   15.8647 O   0  0  0  0  0  0  0  0  0  0  0  0
   15.0311   -7.4376   16.7613 N   0  0  0  0  0  0  0  0  0  0  0  0
   15.2315   -7.9350   17.9314 C   0  0  0  0  0  0  0  0  0  0  0  0
   16.3003   -8.9780   17.9324 C   0  0  0  0  0  0  0  0  0  0  0  0
   14.4755   -7.5104   19.1218 C   0  0  0  0  0  0  0  0  0  0  0  0
   14.9263   -7.8472   20.3997 C   0  0  0  0  0  0  0  0  0  0  0  0
   14.2206   -7.4528   21.5475 C   0  0  0  0  0  0  0  0  0  0  0  0
   13.0279   -6.6985   21.4048 C   0  0  0  0  0  0  0  0  0  0  0  0
   12.5754   -6.3602   20.1179 C   0  0  0  0  0  0  0  0  0  0  0  0
   13.3004   -6.7676   18.9889 C   0  0  0  0  0  0  0  0  0  0  0  0
   11.3976   -5.6158   19.9852 O   0  0  0  0  0  0  0  0  0  0  0  0
   11.2474   -4.5746   19.0293 C   0  0  0  0  0  0  0  0  0  0  0  0
   12.2567   -6.2602   22.4948 O   0  0  0  0  0  0  0  0  0  0  0  0
   12.5117   -5.0890   23.2568 C   0  0  0  0  0  0  0  0  0  0  0  0
   14.6962   -7.8045   22.8162 O   0  0  0  0  0  0  0  0  0  0  0  0
   15.7216   -7.0837   23.4871 C   0  0  0  0  0  0  0  0  0  0  0  0
   16.4524  -10.3843   15.8704 C   0  0  0  0  0  0  0  0  0  0  0  0
   17.8471   -9.6933   11.9720 N   0  0  0  0  0  0  0  0  0  0  0  0
   18.6497  -10.5605   12.8319 C   0  0  0  0  0  0  0  0  0  0  0  0
   18.2594  -10.3362   14.2900 C   0  0  0  0  0  0  0  0  0  0  0  0
   16.8127  -10.5070   14.4528 N   0  0  0  0  0  0  0  0  0  0  0  0
   16.1024   -9.4953   13.6668 C   0  0  0  0  0  0  0  0  0  0  0  0
   16.4008   -9.6852   12.1828 C   0  0  0  0  0  0  0  0  0  0  0  0
   19.9328   -7.8785    9.3239 S   0  0  0  0  0  0  0  0  0  0  0  0
   19.5783   -8.3674   10.8778 N   0  0  0  0  0  0  0  0  0  0  0  0
   18.4422   -9.1192   10.7932 C   0  0  0  0  0  0  0  0  0  0  0  0
   17.9114   -9.2518    9.4812 C   0  0  0  0  0  0  0  0  0  0  0  0
   18.6668   -8.5931    8.5239 C   0  0  0  0  0  0  0  0  0  0  0  0
   18.3366   -8.5728    7.1730 C   0  0  0  0  0  0  0  0  0  0  0  0
   17.1770   -9.2576    6.7797 C   0  0  0  0  0  0  0  0  0  0  0  0
   16.3876   -9.9302    7.7326 C   0  0  0  0  0  0  0  0  0  0  0  0
   16.7502   -9.9277    9.0906 C   0  0  0  0  0  0  0  0  0  0  0  0
 25 26  1  0  0  0
 26 27  2  0  0  0
 27 28  1  0  0  0
 28 29  2  0  0  0
 29 30  1  0  0  0
 30 31  2  0  0  0
 31 32  1  0  0  0
 32 33  2  0  0  0
 27 19  1  0  0  0
 19 20  1  0  0  0
 20 21  1  0  0  0
 21 22  1  0  0  0
 22 23  1  0  0  0
 23 24  1  0  0  0
 22 18  1  0  0  0
 18  1  1  0  0  0
  1  2  1  0  0  0
  2  3  1  0  0  0
  3  4  2  0  0  0
  4  5  1  0  0  0
  4  6  1  0  0  0
  6  7  2  0  0  0
  7  8  1  0  0  0
  8  9  2  0  0  0
  9 10  1  0  0  0
 10 11  2  0  0  0
 10 12  1  0  0  0
 12 13  1  0  0  0
  9 14  1  0  0  0
 14 15  1  0  0  0
  8 16  1  0  0  0
 16 17  1  0  0  0
 29 25  1  0  0  0
 24 19  1  0  0  0
  5  1  1  0  0  0
 11  6  1  0  0  0
 33 28  1  0  0  0
M  END
>  <minimizedAffinity>
-6.83395

>  <minimizedRMSD>
1.18669

$$$$
CHEMBL1717432 MCULE-7280519481 MolPort-005-001-523 PubChem-16191064


 31 34  0  0  0  0  0  0  0  0999 V2000
   15.1945   -8.1387   17.0913 C   0  0  0  0  0  0  0  0  0  0  0  0
   15.6937   -9.1906   17.7680 N   0  0  0  0  0  0  0  0  0  0  0  0
   16.6833   -9.6099   17.0405 O   0  0  0  0  0  0  0  0  0  0  0  0
   16.7967   -8.8549   15.9761 C   0  0  0  0  0  0  0  0  0  0  0  0
   15.8660   -7.8823   15.9503 N   0  0  0  0  0  0  0  0  0  0  0  0
   14.0556   -7.3096   17.5799 C   0  0  0  0  0  0  0  0  0  0  0  0
   14.3268   -6.7225   21.8291 C   0  0  0  0  0  0  0  0  0  0  0  0
   15.4091   -7.2616   21.1134 C   0  0  0  0  0  0  0  0  0  0  0  0
   15.3189   -7.4574   19.7338 C   0  0  0  0  0  0  0  0  0  0  0  0
   14.1452   -7.1202   19.0558 C   0  0  0  0  0  0  0  0  0  0  0  0
   13.0668   -6.5767   19.7597 C   0  0  0  0  0  0  0  0  0  0  0  0
   13.1491   -6.3764   21.1479 C   0  0  0  0  0  0  0  0  0  0  0  0
   15.2929   -7.2441   24.0481 C   0  0  0  0  0  0  0  0  0  0  0  0
   14.4010   -6.5200   23.2115 O   0  0  0  0  0  0  0  0  0  0  0  0
   12.0769   -5.8368   21.8669 O   0  0  0  0  0  0  0  0  0  0  0  0
   11.2148   -4.8421   21.3316 C   0  0  0  0  0  0  0  0  0  0  0  0
   17.8254   -9.0590   14.8995 C   0  0  0  0  0  0  0  0  0  0  0  0
   17.2547   -9.1780   13.5521 N   0  0  0  0  0  0  0  0  0  0  0  0
   15.8422   -9.5603   13.6369 C   0  0  0  0  0  0  0  0  0  0  0  0
   15.2209   -9.5716   12.2440 C   0  0  0  0  0  0  0  0  0  0  0  0
   15.9739  -10.5578   11.3542 C   0  0  0  0  0  0  0  0  0  0  0  0
   17.4739  -10.2570   11.3461 C   0  0  0  0  0  0  0  0  0  0  0  0
   17.9989  -10.1806   12.7820 C   0  0  0  0  0  0  0  0  0  0  0  0
   17.7221   -9.0547   10.6777 O   0  0  0  0  0  0  0  0  0  0  0  0
   17.0535   -9.1772    9.4575 C   0  0  0  0  0  0  0  0  0  0  0  0
   17.9058   -8.6477    8.3573 C   0  0  0  0  0  0  0  0  0  0  0  0
   17.7207   -9.0951    7.0855 N   0  0  0  0  0  0  0  0  0  0  0  0
   18.4794   -8.6401    6.0519 C   0  0  0  0  0  0  0  0  0  0  0  0
   19.4791   -7.6916    6.2811 C   0  0  0  0  0  0  0  0  0  0  0  0
   19.6878   -7.2217    7.5789 C   0  0  0  0  0  0  0  0  0  0  0  0
   18.8996   -7.7011    8.6270 C   0  0  0  0  0  0  0  0  0  0  0  0
 13 14  1  0  0  0
 14  7  1  0  0  0
  7  8  2  0  0  0
  8  9  1  0  0  0
  9 10  2  0  0  0
 10  6  1  0  0  0
 10 11  1  0  0  0
  6  1  1  0  0  0
  1  2  2  0  0  0
  2  3  1  0  0  0
  3  4  1  0  0  0
  4 17  1  0  0  0
  4  5  2  0  0  0
 17 18  1  0  0  0
 18 19  1  0  0  0
 19 20  1  0  0  0
 20 21  1  0  0  0
 21 22  1  0  0  0
 22 23  1  0  0  0
 22 24  1  0  0  0
 23 18  1  0  0  0
 24 25  1  0  0  0
 25 26  1  0  0  0
 26 27  2  0  0  0
 27 28  1  0  0  0
 28 29  2  0  0  0
 29 30  1  0  0  0
 30 31  2  0  0  0
 31 26  1  0  0  0
  5  1  1  0  0  0
 11 12  2  0  0  0
 12 15  1  0  0  0
 12  7  1  0  0  0
 15 16  1  0  0  0
M  END
>  <minimizedAffinity>
-6.82785

>  <minimizedRMSD>
1.52177

$$$$
CHEMBL4744935 PubChem-162647937


 30 31  0  0  0  0  0  0  0  0999 V2000
   14.7220   -7.5602   16.6769 N   0  0  0  0  0  0  0  0  0  0  0  0
   15.7478   -8.3332   16.5051 C   0  0  0  0  0  0  0  0  0  0  0  0
   16.1686   -8.7617   15.1675 C   0  0  0  0  0  0  0  0  0  0  0  0
   15.5242   -8.2948   14.0162 C   0  0  0  0  0  0  0  0  0  0  0  0
   15.9471   -8.7205   12.7557 C   0  0  0  0  0  0  0  0  0  0  0  0
   17.0192   -9.6185   12.6249 C   0  0  0  0  0  0  0  0  0  0  0  0
   17.6664  -10.0875   13.7798 C   0  0  0  0  0  0  0  0  0  0  0  0
   17.2351   -9.6545   15.0450 C   0  0  0  0  0  0  0  0  0  0  0  0
   18.7342  -10.9820   13.6473 O   0  0  0  0  0  0  0  0  0  0  0  0
   19.5926  -11.3215   14.7277 C   0  0  0  0  0  0  0  0  0  0  0  0
   17.4712  -10.0679   11.3724 O   0  0  0  0  0  0  0  0  0  0  0  0
   16.8672   -9.8237   10.1276 C   0  0  0  0  0  0  0  0  0  0  0  0
   15.7620  -10.3524    9.8263 O   0  0  0  0  0  0  0  0  0  0  0  0
   17.5194   -8.9607    9.1885 N   0  0  0  0  0  0  0  0  0  0  0  0
   16.9266   -8.6836    7.8907 C   0  0  0  0  0  0  0  0  0  0  0  0
   18.7923   -8.3430    9.5175 C   0  0  0  0  0  0  0  0  0  0  0  0
   14.8380   -7.5164   19.2077 C   0  0  0  0  0  0  0  0  0  0  0  0
   15.8079   -8.3206   19.2627 O   0  0  0  0  0  0  0  0  0  0  0  0
   14.2817   -7.1237   17.9413 N   0  0  0  0  0  0  0  0  0  0  0  0
   13.5256   -6.4934   17.9598 H   0  0  0  0  0  0  0  0  0  0  0  0
   14.9540   -7.1136   21.6675 C   0  0  0  0  0  0  0  0  0  0  0  0
   14.2688   -6.9738   20.4541 C   0  0  0  0  0  0  0  0  0  0  0  0
   13.0349   -6.3112   20.4390 C   0  0  0  0  0  0  0  0  0  0  0  0
   12.4824   -5.7897   21.6204 C   0  0  0  0  0  0  0  0  0  0  0  0
   13.1756   -5.9343   22.8317 C   0  0  0  0  0  0  0  0  0  0  0  0
   14.4125   -6.5986   22.8468 C   0  0  0  0  0  0  0  0  0  0  0  0
   12.6187   -5.4122   24.0044 O   0  0  0  0  0  0  0  0  0  0  0  0
   13.3460   -5.3065   25.2207 C   0  0  0  0  0  0  0  0  0  0  0  0
   11.2503   -5.1268   21.6127 O   0  0  0  0  0  0  0  0  0  0  0  0
   10.4903   -4.9293   20.4282 C   0  0  0  0  0  0  0  0  0  0  0  0
 21 22  2  0  0  0
 22 23  1  0  0  0
 23 24  2  0  0  0
 24 25  1  0  0  0
 25 26  2  0  0  0
 25 27  1  0  0  0
 27 28  1  0  0  0
 24 29  1  0  0  0
 29 30  1  0  0  0
 22 17  1  0  0  0
 17 18  2  0  0  0
 17 19  1  0  0  0
 19  1  1  0  0  0
  1  2  2  0  0  0
  2  3  1  0  0  0
  3  4  2  0  0  0
  4  5  1  0  0  0
  5  6  2  0  0  0
  6  7  1  0  0  0
  7  8  2  0  0  0
  7  9  1  0  0  0
  9 10  1  0  0  0
  6 11  1  0  0  0
 11 12  1  0  0  0
 12 13  2  0  0  0
 12 14  1  0  0  0
 14 15  1  0  0  0
 14 16  1  0  0  0
 26 21  1  0  0  0
  8  3  1  0  0  0
 19 20  1  0  0  0
M  END
>  <minimizedAffinity>
-6.81596

>  <minimizedRMSD>
1.71105

$$$$
CHEMBL4536729


 31 33  0  0  0  0  0  0  0  0999 V2000
   17.1197   -8.9750   13.8069 C   0  0  0  0  0  0  0  0  0  0  0  0
   16.8433   -8.9855   15.2351 N   0  0  0  0  0  0  0  0  0  0  0  0
   15.9444   -8.2192   15.8244 N   0  0  0  0  0  0  0  0  0  0  0  0
   15.9655   -8.5323   17.1321 C   0  0  0  0  0  0  0  0  0  0  0  0
   16.8997   -9.5296   17.3766 C   0  0  0  0  0  0  0  0  0  0  0  0
   17.4394   -9.7945   16.1282 C   0  0  0  0  0  0  0  0  0  0  0  0
   15.1054   -7.8922   18.1416 C   0  0  0  0  0  0  0  0  0  0  0  0
   15.5063   -7.8286   19.4821 C   0  0  0  0  0  0  0  0  0  0  0  0
   14.6896   -7.2206   20.4388 C   0  0  0  0  0  0  0  0  0  0  0  0
   13.4560   -6.6666   20.0618 C   0  0  0  0  0  0  0  0  0  0  0  0
   13.0495   -6.7284   18.7158 C   0  0  0  0  0  0  0  0  0  0  0  0
   13.8749   -7.3391   17.7675 C   0  0  0  0  0  0  0  0  0  0  0  0
   11.5172   -6.0537   18.1791 Cl  0  0  0  0  0  0  0  0  0  0  0  0
   15.1045   -7.1741   21.7298 F   0  0  0  0  0  0  0  0  0  0  0  0
   12.6206   -6.0413   21.0576 C   0  0  0  0  0  0  0  0  0  0  0  0
   11.9506   -5.5396   21.8568 N   0  0  0  0  0  0  0  0  0  0  0  0
   15.8235   -8.9747   13.0076 C   0  0  0  0  0  0  0  0  0  0  0  0
   15.1029  -10.2958   13.1935 C   0  0  0  0  0  0  0  0  0  0  0  0
   17.2119   -9.4319   10.9410 C   0  0  0  0  0  0  0  0  0  0  0  0
   17.9903  -10.1800   11.5930 O   0  0  0  0  0  0  0  0  0  0  0  0
   16.1157   -8.7866   11.5948 N   0  0  0  0  0  0  0  0  0  0  0  0
   15.5354   -8.1912   11.0676 H   0  0  0  0  0  0  0  0  0  0  0  0
   17.2032   -9.4481    7.3732 N   0  0  0  0  0  0  0  0  0  0  0  0
   18.1473   -8.5157    7.5998 C   0  0  0  0  0  0  0  0  0  0  0  0
   18.3362   -8.3262    8.9576 C   0  0  0  0  0  0  0  0  0  0  0  0
   17.4315   -9.2177    9.5065 C   0  0  0  0  0  0  0  0  0  0  0  0
   16.7642   -9.8787    8.5428 N   0  0  0  0  0  0  0  0  0  0  0  0
   16.8939   -9.7555    6.4905 H   0  0  0  0  0  0  0  0  0  0  0  0
   18.8688   -7.8061    6.5353 C   0  0  0  0  0  0  0  0  0  0  0  0
   19.2676   -6.6256    6.7180 O   0  0  0  0  0  0  0  0  0  0  0  0
   19.1369   -8.4717    5.2308 C   0  0  0  0  0  0  0  0  0  0  0  0
 23 24  1  0  0  0
 24 25  2  0  0  0
 25 26  1  0  0  0
 26 27  2  0  0  0
 26 19  1  0  0  0
 19 20  2  0  0  0
 19 21  1  0  0  0
 21 17  1  0  0  0
 17  1  1  0  0  0
  1  2  1  0  0  0
  2  3  1  0  0  0
  3  4  2  0  0  0
  4  7  1  0  0  0
  7  8  2  0  0  0
  8  9  1  0  0  0
  9 10  2  0  0  0
 10 11  1  0  0  0
 11 12  2  0  0  0
 11 13  1  0  0  0
 10 15  1  0  0  0
 15 16  3  0  0  0
  9 14  1  0  0  0
  4  5  1  0  0  0
  5  6  2  0  0  0
 17 18  1  0  0  0
 24 29  1  0  0  0
 29 30  2  0  0  0
 29 31  1  0  0  0
 27 23  1  0  0  0
  6  2  1  0  0  0
 12  7  1  0  0  0
 23 28  1  0  0  0
 21 22  1  0  0  0
M  END
>  <minimizedAffinity>
-6.80349

>  <minimizedRMSD>
1.48589

$$$$
CHEMBL435308 PubChem-10385976


 31 31  0  0  0  0  0  0  0  0999 V2000
   14.4235   -7.3971   18.5301 C   0  0  0  0  0  0  0  0  0  0  0  0
   15.4155   -7.7379   19.4538 C   0  0  0  0  0  0  0  0  0  0  0  0
   15.2451   -7.4316   20.8059 C   0  0  0  0  0  0  0  0  0  0  0  0
   14.0808   -6.7803   21.2480 C   0  0  0  0  0  0  0  0  0  0  0  0
   13.0848   -6.4367   20.3212 C   0  0  0  0  0  0  0  0  0  0  0  0
   13.2640   -6.7500   18.9638 C   0  0  0  0  0  0  0  0  0  0  0  0
   11.9276   -5.7911   20.7692 O   0  0  0  0  0  0  0  0  0  0  0  0
   10.9089   -5.3420   19.8864 C   0  0  0  0  0  0  0  0  0  0  0  0
   14.5992   -7.7101   17.0811 C   0  0  0  0  0  0  0  0  0  0  0  0
   16.7443   -8.2019   15.8154 C   0  0  0  0  0  0  0  0  0  0  0  0
   16.5466   -7.2429   15.0214 O   0  0  0  0  0  0  0  0  0  0  0  0
   15.8149   -8.4842   16.8649 N   0  0  0  0  0  0  0  0  0  0  0  0
   16.0053   -9.2370   17.4701 H   0  0  0  0  0  0  0  0  0  0  0  0
   17.9712   -9.0375   15.6663 C   0  0  0  0  0  0  0  0  0  0  0  0
   17.7453  -10.1619   14.6683 C   0  0  0  0  0  0  0  0  0  0  0  0
   16.9178   -9.6710   13.4977 C   0  0  0  0  0  0  0  0  0  0  0  0
   17.6798   -9.8972   12.2063 C   0  0  0  0  0  0  0  0  0  0  0  0
   16.7342   -9.8516   11.0145 C   0  0  0  0  0  0  0  0  0  0  0  0
   17.4471   -9.3719    9.7586 C   0  0  0  0  0  0  0  0  0  0  0  0
   19.1597   -7.6857    9.1707 C   0  0  0  0  0  0  0  0  0  0  0  0
   18.8216   -8.8311   10.1020 C   0  0  0  0  0  0  0  0  0  0  0  0
   13.8904   -6.4703   22.5990 O   0  0  0  0  0  0  0  0  0  0  0  0
   14.7432   -6.9550   23.6315 C   0  0  0  0  0  0  0  0  0  0  0  0
   14.7486   -5.9930   24.8119 C   0  0  0  0  0  0  0  0  0  0  0  0
   13.5364   -5.3059   24.8700 O   0  0  0  0  0  0  0  0  0  0  0  0
   13.4178   -4.7901   24.0572 H   0  0  0  0  0  0  0  0  0  0  0  0
   15.8946   -5.0031   24.6988 C   0  0  0  0  0  0  0  0  0  0  0  0
   16.5126   -5.1166   23.3883 N   0  0  0  0  0  0  0  0  0  0  0  0
   16.3694   -4.2575   22.8574 H   0  0  0  0  0  0  0  0  0  0  0  0
   17.9305   -5.3370   23.6083 C   0  0  0  0  0  0  0  0  0  0  0  0
   18.4185   -6.4335   22.6837 C   0  0  0  0  0  0  0  0  0  0  0  0
 20 21  1  0  0  0
 21 19  1  0  0  0
 19 18  1  0  0  0
 18 17  1  0  0  0
 17 16  1  0  0  0
 16 15  1  0  0  0
 15 14  1  0  0  0
 14 10  1  0  0  0
 10 11  2  0  0  0
 10 12  1  0  0  0
 12  9  1  0  0  0
  9  1  1  0  0  0
  1  2  2  0  0  0
  2  3  1  0  0  0
  3  4  2  0  0  0
  4 22  1  0  0  0
  4  5  1  0  0  0
 22 23  1  0  0  0
 24 23  1  0  0  0
 24 25  1  0  0  0
 24 27  1  0  0  0
 27 28  1  0  0  0
 28 30  1  0  0  0
 30 31  1  0  0  0
  5  7  1  0  0  0
  5  6  2  0  0  0
  7  8  1  0  0  0
  6  1  1  0  0  0
 12 13  1  0  0  0
 25 26  1  0  0  0
 28 29  1  0  0  0
M  END
>  <minimizedAffinity>
-6.79867

>  <minimizedRMSD>
1.83055

$$$$
CHEMBL437033 PubChem-44454704


 36 40  0  0  0  0  0  0  0  0999 V2000
   16.4682   -8.8920   16.5835 N   0  0  0  0  0  0  0  0  0  0  0  0
   15.3509   -8.0229   16.8109 C   0  0  0  0  0  0  0  0  0  0  0  0
   14.6884   -7.5681   15.8386 O   0  0  0  0  0  0  0  0  0  0  0  0
   16.9586   -9.2177   17.3726 H   0  0  0  0  0  0  0  0  0  0  0  0
   14.9732   -7.6604   18.1881 C   0  0  0  0  0  0  0  0  0  0  0  0
   15.7943   -8.0475   19.2752 C   0  0  0  0  0  0  0  0  0  0  0  0
   15.4494   -7.7176   20.5980 C   0  0  0  0  0  0  0  0  0  0  0  0
   14.2762   -6.9968   20.7998 C   0  0  0  0  0  0  0  0  0  0  0  0
   13.7003   -6.5660   21.9856 C   0  0  0  0  0  0  0  0  0  0  0  0
   12.5421   -5.9194   21.5503 C   0  0  0  0  0  0  0  0  0  0  0  0
   12.4147   -5.9408   20.2083 N   0  0  0  0  0  0  0  0  0  0  0  0
   13.4786   -6.6136   19.7507 C   0  0  0  0  0  0  0  0  0  0  0  0
   13.7911   -6.9293   18.4298 C   0  0  0  0  0  0  0  0  0  0  0  0
   11.2527   -5.4367   19.4711 C   0  0  0  0  0  0  0  0  0  0  0  0
   10.2582   -6.5608   19.2382 C   0  0  0  0  0  0  0  0  0  0  0  0
   10.5744   -4.2909   20.2494 C   0  0  0  0  0  0  0  0  0  0  0  0
   10.4702   -4.5823   21.6849 N   0  0  0  0  0  0  0  0  0  0  0  0
   11.5205   -5.2726   22.3668 C   0  0  0  0  0  0  0  0  0  0  0  0
   11.5378   -5.3399   23.6238 O   0  0  0  0  0  0  0  0  0  0  0  0
    9.6693   -4.2995   22.1828 H   0  0  0  0  0  0  0  0  0  0  0  0
   16.8529   -9.8321   13.1181 C   0  0  0  0  0  0  0  0  0  0  0  0
   18.1985  -10.1319   13.3489 C   0  0  0  0  0  0  0  0  0  0  0  0
   18.4919   -9.8146   14.9782 S   0  0  0  0  0  0  0  0  0  0  0  0
   16.9252   -9.3223   15.2981 C   0  0  0  0  0  0  0  0  0  0  0  0
   16.1512   -9.3852   14.1963 N   0  0  0  0  0  0  0  0  0  0  0  0
   17.0100   -9.8719   10.6130 N   0  0  0  0  0  0  0  0  0  0  0  0
   16.2228   -9.9854   11.8007 C   0  0  0  0  0  0  0  0  0  0  0  0
   14.9857  -10.2165   11.7212 O   0  0  0  0  0  0  0  0  0  0  0  0
   17.9738   -9.6892   10.6955 H   0  0  0  0  0  0  0  0  0  0  0  0
   19.4014   -7.6611    7.1758 C   0  0  0  0  0  0  0  0  0  0  0  0
   18.1855   -8.5196    7.4525 C   0  0  0  0  0  0  0  0  0  0  0  0
   17.2593   -7.7930    8.4220 C   0  0  0  0  0  0  0  0  0  0  0  0
   16.0312   -8.6516    8.7230 C   0  0  0  0  0  0  0  0  0  0  0  0
   16.4311  -10.0181    9.2848 C   0  0  0  0  0  0  0  0  0  0  0  0
   17.4130  -10.7272    8.3489 C   0  0  0  0  0  0  0  0  0  0  0  0
   18.6289   -9.8507    8.0501 C   0  0  0  0  0  0  0  0  0  0  0  0
 31 30  1  0  0  0
 31 32  1  0  0  0
 32 33  1  0  0  0
 33 34  1  0  0  0
 34 26  1  0  0  0
 34 35  1  0  0  0
 26 27  1  0  0  0
 27 28  2  0  0  0
 27 21  1  0  0  0
 21 22  2  0  0  0
 22 23  1  0  0  0
 23 24  1  0  0  0
 24  1  1  0  0  0
 24 25  2  0  0  0
  1  2  1  0  0  0
  2  3  2  0  0  0
  2  5  1  0  0  0
  5  6  2  0  0  0
  6  7  1  0  0  0
  7  8  2  0  0  0
  8  9  1  0  0  0
  9 10  2  0  0  0
 10 11  1  0  0  0
 11 12  1  0  0  0
 11 14  1  0  0  0
 12 13  2  0  0  0
 12  8  1  0  0  0
 13  5  1  0  0  0
 14 15  1  0  0  0
 14 16  1  0  0  0
 16 17  1  0  0  0
 17 18  1  0  0  0
 18 19  2  0  0  0
 18 10  1  0  0  0
 25 21  1  0  0  0
 35 36  1  0  0  0
 36 31  1  0  0  0
 26 29  1  0  0  0
  1  4  1  0  0  0
 17 20  1  0  0  0
M  END
>  <minimizedAffinity>
-6.78982

>  <minimizedRMSD>
1.66934

$$$$
CHEMBL4526437 ChemDiv-E942-0272 MolPort-007-773-103 PubChem-20924509


 30 32  0  0  0  0  0  0  0  0999 V2000
   14.6353   -6.3753   21.3713 N   0  0  0  0  0  0  0  0  0  0  0  0
   15.2727   -7.2388   20.5330 C   0  0  0  0  0  0  0  0  0  0  0  0
   14.6431   -7.7414   19.3944 C   0  0  0  0  0  0  0  0  0  0  0  0
   13.3069   -7.3748   19.1393 C   0  0  0  0  0  0  0  0  0  0  0  0
   12.5904   -7.9162   18.0609 C   0  0  0  0  0  0  0  0  0  0  0  0
   11.2650   -7.5432   17.8276 C   0  0  0  0  0  0  0  0  0  0  0  0
   10.6362   -6.6300   18.6753 C   0  0  0  0  0  0  0  0  0  0  0  0
   11.3284   -6.0957   19.7638 C   0  0  0  0  0  0  0  0  0  0  0  0
   12.6593   -6.4666   20.0106 C   0  0  0  0  0  0  0  0  0  0  0  0
   13.3539   -5.9654   21.1245 C   0  0  0  0  0  0  0  0  0  0  0  0
   12.7895   -5.1464   21.9038 O   0  0  0  0  0  0  0  0  0  0  0  0
   15.3706   -8.6574   18.5643 N   0  0  0  0  0  0  0  0  0  0  0  0
   15.8046   -8.3872   17.2279 C   0  0  0  0  0  0  0  0  0  0  0  0
   15.7698   -7.2127   16.7687 O   0  0  0  0  0  0  0  0  0  0  0  0
   16.3188   -9.4548   16.4330 N   0  0  0  0  0  0  0  0  0  0  0  0
   15.5879   -9.5397   18.9431 H   0  0  0  0  0  0  0  0  0  0  0  0
   16.3564  -10.3607   16.8167 H   0  0  0  0  0  0  0  0  0  0  0  0
   16.7885   -9.2448   15.0743 C   0  0  0  0  0  0  0  0  0  0  0  0
   15.7169   -9.6850   14.0961 C   0  0  0  0  0  0  0  0  0  0  0  0
   16.1515   -9.4169   12.7361 N   0  0  0  0  0  0  0  0  0  0  0  0
   17.5098   -9.9484   12.6033 C   0  0  0  0  0  0  0  0  0  0  0  0
   17.9998   -9.8725   11.1484 C   0  0  0  0  0  0  0  0  0  0  0  0
   16.9677   -9.3322   10.2622 N   0  0  0  0  0  0  0  0  0  0  0  0
   17.4442   -9.5126    8.9035 C   0  0  0  0  0  0  0  0  0  0  0  0
   15.7542  -10.1388   10.3962 C   0  0  0  0  0  0  0  0  0  0  0  0
   15.2617  -10.1713   11.8519 C   0  0  0  0  0  0  0  0  0  0  0  0
   15.3656   -5.8622   22.5281 C   0  0  0  0  0  0  0  0  0  0  0  0
   17.5577   -6.6036   23.4102 C   0  0  0  0  0  0  0  0  0  0  0  0
   16.1000   -6.9810   23.2543 C   0  0  0  0  0  0  0  0  0  0  0  0
   15.4934   -7.2026   24.6264 C   0  0  0  0  0  0  0  0  0  0  0  0
 28 29  1  0  0  0
 29 30  1  0  0  0
 29 27  1  0  0  0
 27  1  1  0  0  0
  1  2  1  0  0  0
  2  3  2  0  0  0
  3 12  1  0  0  0
  3  4  1  0  0  0
 12 13  1  0  0  0
 13 14  2  0  0  0
 13 15  1  0  0  0
 15 18  1  0  0  0
 18 19  1  0  0  0
 19 20  1  0  0  0
 20 21  1  0  0  0
 21 22  1  0  0  0
 22 23  1  0  0  0
 23 24  1  0  0  0
 23 25  1  0  0  0
 25 26  1  0  0  0
 26 20  1  0  0  0
  4  5  2  0  0  0
  5  6  1  0  0  0
  6  7  2  0  0  0
  7  8  1  0  0  0
  8  9  2  0  0  0
  9 10  1  0  0  0
  9  4  1  0  0  0
 10 11  2  0  0  0
 10  1  1  0  0  0
 12 16  1  0  0  0
 15 17  1  0  0  0
M  END
>  <minimizedAffinity>
-6.78352

>  <minimizedRMSD>
1.51076

$$$$
CHEMBL3975466 PubChem-134152962


 31 34  0  0  0  0  0  0  0  0999 V2000
   15.6809   -8.1880   19.7929 C   0  0  0  0  0  0  0  0  0  0  0  0
   15.1564   -7.8279   18.5457 C   0  0  0  0  0  0  0  0  0  0  0  0
   14.0916   -6.9799   18.4881 N   0  0  0  0  0  0  0  0  0  0  0  0
   13.5092   -6.4615   19.6053 C   0  0  0  0  0  0  0  0  0  0  0  0
   14.0161   -6.8076   20.8633 C   0  0  0  0  0  0  0  0  0  0  0  0
   15.1054   -7.6734   20.9539 C   0  0  0  0  0  0  0  0  0  0  0  0
   15.7350   -8.3480   17.3391 N   0  0  0  0  0  0  0  0  0  0  0  0
   15.3164   -8.0619   16.0048 C   0  0  0  0  0  0  0  0  0  0  0  0
   14.3640   -7.2962   15.6983 O   0  0  0  0  0  0  0  0  0  0  0  0
   16.1465   -8.7805   15.0748 C   0  0  0  0  0  0  0  0  0  0  0  0
   17.0616   -9.4980   15.8111 C   0  0  0  0  0  0  0  0  0  0  0  0
   16.8695   -9.2784   17.2825 C   0  0  0  0  0  0  0  0  0  0  0  0
   18.0110  -10.3018   15.1835 C   0  0  0  0  0  0  0  0  0  0  0  0
   18.0091  -10.3603   13.7797 C   0  0  0  0  0  0  0  0  0  0  0  0
   17.0666   -9.6215   13.0240 C   0  0  0  0  0  0  0  0  0  0  0  0
   16.1198   -8.8184   13.6825 C   0  0  0  0  0  0  0  0  0  0  0  0
   17.0524   -9.6703   11.6278 O   0  0  0  0  0  0  0  0  0  0  0  0
   18.2314   -9.5424   10.8435 C   0  0  0  0  0  0  0  0  0  0  0  0
   17.9545   -8.6658    9.6377 C   0  0  0  0  0  0  0  0  0  0  0  0
   16.8643   -9.1683    8.9272 O   0  0  0  0  0  0  0  0  0  0  0  0
   17.3676   -9.4310    7.6540 C   0  0  0  0  0  0  0  0  0  0  0  0
   12.3565   -5.5481   19.4576 C   0  0  0  0  0  0  0  0  0  0  0  0
   11.7484   -4.8539   20.4434 N   0  0  0  0  0  0  0  0  0  0  0  0
   10.7721   -4.1690   19.8156 C   0  0  0  0  0  0  0  0  0  0  0  0
   10.7867   -4.4430   18.4959 N   0  0  0  0  0  0  0  0  0  0  0  0
   11.7716   -5.3002   18.2713 N   0  0  0  0  0  0  0  0  0  0  0  0
   12.0681   -4.8127   21.8694 C   0  0  0  0  0  0  0  0  0  0  0  0
   10.8581   -5.2039   22.6981 C   0  0  0  0  0  0  0  0  0  0  0  0
   12.5518   -3.4305   22.2766 C   0  0  0  0  0  0  0  0  0  0  0  0
   13.7596   -3.1440   21.6399 O   0  0  0  0  0  0  0  0  0  0  0  0
   14.4246   -3.8018   21.8970 H   0  0  0  0  0  0  0  0  0  0  0  0
  1  2  2  0  0  0
  2  3  1  0  0  0
  3  4  2  0  0  0
  4  5  1  0  0  0
  5  6  2  0  0  0
  4 22  1  0  0  0
 22 23  1  0  0  0
 23 24  1  0  0  0
 24 25  2  0  0  0
 25 26  1  0  0  0
 27 23  1  0  0  0
 27 28  1  0  0  0
 27 29  1  0  0  0
 29 30  1  0  0  0
  2  7  1  0  0  0
  7  8  1  0  0  0
  8  9  2  0  0  0
  8 10  1  0  0  0
 10 11  2  0  0  0
 11 12  1  0  0  0
 11 13  1  0  0  0
 13 14  2  0  0  0
 14 15  1  0  0  0
 15 16  2  0  0  0
 15 17  1  0  0  0
 17 18  1  0  0  0
 18 19  1  0  0  0
 19 20  1  0  0  0
 20 21  1  0  0  0
  6  1  1  0  0  0
 26 22  2  0  0  0
 12  7  1  0  0  0
 16 10  1  0  0  0
 30 31  1  0  0  0
M  END
>  <minimizedAffinity>
-6.77832

>  <minimizedRMSD>
1.28053

$$$$
CHEMBL4582137 PubChem-140914616


 26 28  0  0  0  0  0  0  0  0999 V2000
   16.6127   -9.3930   13.5902 C   0  0  0  0  0  0  0  0  0  0  0  0
   17.3181  -10.3564   14.3470 C   0  0  0  0  0  0  0  0  0  0  0  0
   17.2325  -10.3455   15.7462 C   0  0  0  0  0  0  0  0  0  0  0  0
   16.4629   -9.3944   16.3277 N   0  0  0  0  0  0  0  0  0  0  0  0
   15.7824   -8.4681   15.6388 C   0  0  0  0  0  0  0  0  0  0  0  0
   15.8289   -8.4291   14.2476 C   0  0  0  0  0  0  0  0  0  0  0  0
   15.0887   -7.6296   16.4270 N   0  0  0  0  0  0  0  0  0  0  0  0
   15.3683   -8.0792   17.6769 C   0  0  0  0  0  0  0  0  0  0  0  0
   16.2241   -9.1791   17.6284 C   0  0  0  0  0  0  0  0  0  0  0  0
   14.8322   -7.4763   18.9205 C   0  0  0  0  0  0  0  0  0  0  0  0
   13.5051   -6.9998   19.0177 C   0  0  0  0  0  0  0  0  0  0  0  0
   13.0618   -6.4396   20.2270 C   0  0  0  0  0  0  0  0  0  0  0  0
   13.9114   -6.3450   21.3380 C   0  0  0  0  0  0  0  0  0  0  0  0
   15.2245   -6.8188   21.2350 C   0  0  0  0  0  0  0  0  0  0  0  0
   15.6746   -7.3771   20.0378 C   0  0  0  0  0  0  0  0  0  0  0  0
   16.3264   -6.7230   22.5968 Cl  0  0  0  0  0  0  0  0  0  0  0  0
   13.4703   -5.7869   22.5430 O   0  0  0  0  0  0  0  0  0  0  0  0
   12.1143   -5.4296   22.7745 C   0  0  0  0  0  0  0  0  0  0  0  0
   12.6409   -7.0852   17.9192 O   0  0  0  0  0  0  0  0  0  0  0  0
   11.2684   -7.4346   18.0402 C   0  0  0  0  0  0  0  0  0  0  0  0
   16.6711   -9.3664   12.1573 N   0  0  0  0  0  0  0  0  0  0  0  0
   17.8044   -9.6769   11.3366 C   0  0  0  0  0  0  0  0  0  0  0  0
   18.9037  -10.0182   11.8529 O   0  0  0  0  0  0  0  0  0  0  0  0
   15.8453   -9.1075   11.6878 H   0  0  0  0  0  0  0  0  0  0  0  0
   17.6736   -9.5956    9.9503 O   0  0  0  0  0  0  0  0  0  0  0  0
   18.1879   -8.4983    9.2108 C   0  0  0  0  0  0  0  0  0  0  0  0
  1  2  1  0  0  0
  2  3  2  0  0  0
  3  4  1  0  0  0
  4  5  1  0  0  0
  5  6  1  0  0  0
  5  7  2  0  0  0
  7  8  1  0  0  0
  8  9  2  0  0  0
  8 10  1  0  0  0
 10 11  2  0  0  0
 11 12  1  0  0  0
 12 13  2  0  0  0
 13 14  1  0  0  0
 14 15  2  0  0  0
 14 16  1  0  0  0
 13 17  1  0  0  0
 17 18  1  0  0  0
 11 19  1  0  0  0
 19 20  1  0  0  0
  1 21  1  0  0  0
 21 22  1  0  0  0
 22 23  2  0  0  0
 22 25  1  0  0  0
 25 26  1  0  0  0
  6  1  2  0  0  0
 15 10  1  0  0  0
  9  4  1  0  0  0
 21 24  1  0  0  0
M  END
>  <minimizedAffinity>
-6.77808

>  <minimizedRMSD>
1.36950

$$$$
CHEMBL4532108 PubChem-155546606


 36 38  0  0  0  0  0  0  0  0999 V2000
   15.5908   -8.2510   17.6355 C   0  0  0  0  0  0  0  0  0  0  0  0
   15.4229   -7.6198   16.4409 N   0  0  0  0  0  0  0  0  0  0  0  0
   15.8698   -8.1384   15.2649 C   0  0  0  0  0  0  0  0  0  0  0  0
   16.5421   -9.3855   15.2566 C   0  0  0  0  0  0  0  0  0  0  0  0
   16.7117  -10.0459   16.4807 C   0  0  0  0  0  0  0  0  0  0  0  0
   16.2425   -9.4875   17.6667 C   0  0  0  0  0  0  0  0  0  0  0  0
   15.5973   -7.3617   14.0217 C   0  0  0  0  0  0  0  0  0  0  0  0
   15.4211   -6.8979   21.1774 C   0  0  0  0  0  0  0  0  0  0  0  0
   14.0938   -6.4416   21.2438 C   0  0  0  0  0  0  0  0  0  0  0  0
   13.2523   -6.5826   20.1113 C   0  0  0  0  0  0  0  0  0  0  0  0
   13.7617   -7.1756   18.9454 C   0  0  0  0  0  0  0  0  0  0  0  0
   15.0817   -7.6302   18.8774 C   0  0  0  0  0  0  0  0  0  0  0  0
   15.9033   -7.4864   19.9998 C   0  0  0  0  0  0  0  0  0  0  0  0
   11.9255   -6.1376   20.1472 O   0  0  0  0  0  0  0  0  0  0  0  0
   11.1197   -6.0073   18.9832 C   0  0  0  0  0  0  0  0  0  0  0  0
   13.6716   -5.8614   22.4520 O   0  0  0  0  0  0  0  0  0  0  0  0
   13.6233   -4.4664   22.7147 C   0  0  0  0  0  0  0  0  0  0  0  0
   16.2462   -6.7554   22.2991 O   0  0  0  0  0  0  0  0  0  0  0  0
   17.5966   -6.3204   22.2125 C   0  0  0  0  0  0  0  0  0  0  0  0
   17.0715  -10.0377   14.0311 C   0  0  0  0  0  0  0  0  0  0  0  0
   17.5600  -11.1984   14.1100 O   0  0  0  0  0  0  0  0  0  0  0  0
   17.0928   -9.3505   12.7743 N   0  0  0  0  0  0  0  0  0  0  0  0
   16.9079   -8.3836   12.7707 H   0  0  0  0  0  0  0  0  0  0  0  0
   17.3628   -9.9785   11.5454 N   0  0  0  0  0  0  0  0  0  0  0  0
   18.2756  -10.3136   11.3913 H   0  0  0  0  0  0  0  0  0  0  0  0
   16.3965  -10.1631   10.5014 C   0  0  0  0  0  0  0  0  0  0  0  0
   14.8082   -9.8841   10.7877 S   0  0  0  0  0  0  0  0  0  0  0  0
   16.8173  -10.3280    9.1418 N   0  0  0  0  0  0  0  0  0  0  0  0
   16.5374  -11.1573    8.6911 H   0  0  0  0  0  0  0  0  0  0  0  0
   17.6035   -9.4112    8.3691 C   0  0  0  0  0  0  0  0  0  0  0  0
   17.6198   -9.5464    6.9763 C   0  0  0  0  0  0  0  0  0  0  0  0
   18.3884   -8.6824    6.1902 C   0  0  0  0  0  0  0  0  0  0  0  0
   19.1500   -7.6788    6.7948 C   0  0  0  0  0  0  0  0  0  0  0  0
   19.1459   -7.5415    8.1854 C   0  0  0  0  0  0  0  0  0  0  0  0
   18.3772   -8.4062    8.9700 C   0  0  0  0  0  0  0  0  0  0  0  0
   19.9666   -6.7602    5.9597 C   0  0  0  0  0  0  0  0  0  0  0  0
  8  9  2  0  0  0
  9 10  1  0  0  0
 10 11  2  0  0  0
 11 12  1  0  0  0
 12 13  2  0  0  0
 12  1  1  0  0  0
  1  2  2  0  0  0
  2  3  1  0  0  0
  3  4  2  0  0  0
  4  5  1  0  0  0
  5  6  2  0  0  0
  4 20  1  0  0  0
 20 21  2  0  0  0
 20 22  1  0  0  0
 22 24  1  0  0  0
 24 26  1  0  0  0
 26 27  2  0  0  0
 26 28  1  0  0  0
 28 30  1  0  0  0
 30 31  2  0  0  0
 31 32  1  0  0  0
 32 33  2  0  0  0
 33 34  1  0  0  0
 34 35  2  0  0  0
 33 36  1  0  0  0
  3  7  1  0  0  0
 10 14  1  0  0  0
 14 15  1  0  0  0
  9 16  1  0  0  0
 16 17  1  0  0  0
  8 18  1  0  0  0
 18 19  1  0  0  0
 13  8  1  0  0  0
  6  1  1  0  0  0
 35 30  1  0  0  0
 22 23  1  0  0  0
 24 25  1  0  0  0
 28 29  1  0  0  0
M  END
>  <minimizedAffinity>
-6.76257

>  <minimizedRMSD>
1.26109

$$$$
CHEMBL4289274 PubChem-145989472


 27 30  0  0  0  0  0  0  0  0999 V2000
   15.5045   -8.1227   17.4725 C   0  0  0  0  0  0  0  0  0  0  0  0
   16.3107   -9.2138   17.2754 N   0  0  0  0  0  0  0  0  0  0  0  0
   16.3786   -9.2033   15.9369 C   0  0  0  0  0  0  0  0  0  0  0  0
   15.7007   -8.2308   15.3904 N   0  0  0  0  0  0  0  0  0  0  0  0
   15.1193   -7.5046   16.3175 N   0  0  0  0  0  0  0  0  0  0  0  0
   15.7274   -8.1632   14.0442 C   0  0  0  0  0  0  0  0  0  0  0  0
   16.5188   -9.2095   13.5296 C   0  0  0  0  0  0  0  0  0  0  0  0
   17.1488  -10.1734   14.8141 S   0  0  0  0  0  0  0  0  0  0  0  0
   16.7723   -9.4464   12.0972 C   0  0  0  0  0  0  0  0  0  0  0  0
   15.7363   -9.8745   11.2534 C   0  0  0  0  0  0  0  0  0  0  0  0
   15.9778  -10.0989    9.8950 C   0  0  0  0  0  0  0  0  0  0  0  0
   17.2570   -9.8971    9.3703 C   0  0  0  0  0  0  0  0  0  0  0  0
   18.2947   -9.4708   10.2035 C   0  0  0  0  0  0  0  0  0  0  0  0
   18.0529   -9.2465   11.5618 C   0  0  0  0  0  0  0  0  0  0  0  0
   17.5597  -10.1781    7.6697 Cl  0  0  0  0  0  0  0  0  0  0  0  0
   13.3355   -6.9624   20.3485 C   0  0  0  0  0  0  0  0  0  0  0  0
   13.7470   -7.4046   19.0812 C   0  0  0  0  0  0  0  0  0  0  0  0
   15.0919   -7.6598   18.8068 C   0  0  0  0  0  0  0  0  0  0  0  0
   16.0408   -7.4708   19.8126 C   0  0  0  0  0  0  0  0  0  0  0  0
   15.6581   -7.0300   21.0875 C   0  0  0  0  0  0  0  0  0  0  0  0
   14.3048   -6.7723   21.3665 C   0  0  0  0  0  0  0  0  0  0  0  0
   13.9866   -6.3331   22.6630 O   0  0  0  0  0  0  0  0  0  0  0  0
   13.8067   -4.9768   23.0441 C   0  0  0  0  0  0  0  0  0  0  0  0
   16.6088   -6.8400   22.0971 O   0  0  0  0  0  0  0  0  0  0  0  0
   17.8970   -6.2927   21.8499 C   0  0  0  0  0  0  0  0  0  0  0  0
   11.9805   -6.7142   20.5966 O   0  0  0  0  0  0  0  0  0  0  0  0
   11.2988   -5.5688   20.1022 C   0  0  0  0  0  0  0  0  0  0  0  0
 16 17  2  0  0  0
 17 18  1  0  0  0
 18 19  2  0  0  0
 19 20  1  0  0  0
 20 21  2  0  0  0
 21 22  1  0  0  0
 22 23  1  0  0  0
 20 24  1  0  0  0
 24 25  1  0  0  0
 18  1  1  0  0  0
  1  2  1  0  0  0
  2  3  2  0  0  0
  3  4  1  0  0  0
  4  5  1  0  0  0
  4  6  1  0  0  0
  6  7  2  0  0  0
  7  8  1  0  0  0
  7  9  1  0  0  0
  9 10  2  0  0  0
 10 11  1  0  0  0
 11 12  2  0  0  0
 12 13  1  0  0  0
 13 14  2  0  0  0
 12 15  1  0  0  0
 16 26  1  0  0  0
 26 27  1  0  0  0
 21 16  1  0  0  0
  5  1  2  0  0  0
 14  9  1  0  0  0
  8  3  1  0  0  0
M  END
>  <minimizedAffinity>
-6.75426

>  <minimizedRMSD>
1.50421

$$$$
CHEMBL1312196 CHEMBL1617442 19552366 CSC046258007 ChemDiv-3381-0241 LN00620703 LN00889114 MCULE-3978449015 MCULE-9947901350 MolPort-001-504-288 MolPort-001-518-745 PubChem-1112842 PubChem-17366486 ZINC000019552366 ZINC19552366


 26 28  0  0  0  0  0  0  0  0999 V2000
   16.1380   -7.9635   16.1982 N   0  0  0  0  0  0  0  0  0  0  0  0
   15.9290   -7.6476   14.7771 C   0  0  0  0  0  0  0  0  0  0  0  0
   15.6370   -8.8968   13.9424 C   0  0  0  0  0  0  0  0  0  0  0  0
   16.6851   -9.8807   14.1773 N   0  0  0  0  0  0  0  0  0  0  0  0
   16.9485  -10.2409   15.5633 C   0  0  0  0  0  0  0  0  0  0  0  0
   17.2013   -8.9664   16.3749 C   0  0  0  0  0  0  0  0  0  0  0  0
   17.3212  -10.6006   13.1057 C   0  0  0  0  0  0  0  0  0  0  0  0
   17.8193  -11.7357   13.3421 O   0  0  0  0  0  0  0  0  0  0  0  0
   17.4245  -10.0505   11.7333 C   0  0  0  0  0  0  0  0  0  0  0  0
   16.3580  -10.1460   10.8262 C   0  0  0  0  0  0  0  0  0  0  0  0
   16.4628   -9.5979    9.5446 C   0  0  0  0  0  0  0  0  0  0  0  0
   17.6343   -8.9416    9.1599 C   0  0  0  0  0  0  0  0  0  0  0  0
   17.7367   -8.4104    7.9182 F   0  0  0  0  0  0  0  0  0  0  0  0
   18.6982   -8.8291   10.0580 C   0  0  0  0  0  0  0  0  0  0  0  0
   18.5919   -9.3779   11.3393 C   0  0  0  0  0  0  0  0  0  0  0  0
   14.8898   -8.4391   16.7906 C   0  0  0  0  0  0  0  0  0  0  0  0
   14.3142   -6.5258   20.5994 C   0  0  0  0  0  0  0  0  0  0  0  0
   13.2971   -6.4806   19.6332 C   0  0  0  0  0  0  0  0  0  0  0  0
   13.4641   -7.1038   18.3856 C   0  0  0  0  0  0  0  0  0  0  0  0
   14.6645   -7.7815   18.1123 C   0  0  0  0  0  0  0  0  0  0  0  0
   15.6802   -7.8207   19.0729 C   0  0  0  0  0  0  0  0  0  0  0  0
   15.5046   -7.1977   20.3104 C   0  0  0  0  0  0  0  0  0  0  0  0
   13.5264   -4.6567   22.0148 C   0  0  0  0  0  0  0  0  0  0  0  0
   14.1683   -5.9134   21.8470 O   0  0  0  0  0  0  0  0  0  0  0  0
   12.4567   -7.0604   17.4144 O   0  0  0  0  0  0  0  0  0  0  0  0
   11.0974   -7.3587   17.7016 C   0  0  0  0  0  0  0  0  0  0  0  0
 23 24  1  0  0  0
 24 17  1  0  0  0
 17 18  2  0  0  0
 18 19  1  0  0  0
 19 25  1  0  0  0
 19 20  2  0  0  0
 25 26  1  0  0  0
 20 16  1  0  0  0
 20 21  1  0  0  0
 16  1  1  0  0  0
  1  2  1  0  0  0
  2  3  1  0  0  0
  3  4  1  0  0  0
  4  5  1  0  0  0
  4  7  1  0  0  0
  5  6  1  0  0  0
  6  1  1  0  0  0
  7  8  2  0  0  0
  7  9  1  0  0  0
  9 10  2  0  0  0
 10 11  1  0  0  0
 11 12  2  0  0  0
 12 13  1  0  0  0
 12 14  1  0  0  0
 14 15  2  0  0  0
 15  9  1  0  0  0
 21 22  2  0  0  0
 22 17  1  0  0  0
M  END
>  <minimizedAffinity>
-6.74976

>  <minimizedRMSD>
1.63471

$$$$
CHEMBL1732166 ChemDiv-D065-0064 MCULE-1646043746 MolPort-007-687-293 PubChem-16013179 ZINC000008612128 ZINC08612128


 30 33  0  0  0  0  0  0  0  0999 V2000
   15.1877   -7.8838   18.2068 C   0  0  0  0  0  0  0  0  0  0  0  0
   16.1379   -8.8384   18.2867 N   0  0  0  0  0  0  0  0  0  0  0  0
   16.6060   -8.9448   17.0810 O   0  0  0  0  0  0  0  0  0  0  0  0
   15.9847   -8.1034   16.2939 C   0  0  0  0  0  0  0  0  0  0  0  0
   15.0549   -7.3900   16.9565 N   0  0  0  0  0  0  0  0  0  0  0  0
   12.8472   -6.5565   21.5429 C   0  0  0  0  0  0  0  0  0  0  0  0
   12.4601   -6.2201   20.2366 C   0  0  0  0  0  0  0  0  0  0  0  0
   13.2337   -6.6596   19.1496 C   0  0  0  0  0  0  0  0  0  0  0  0
   14.3853   -7.4298   19.3537 C   0  0  0  0  0  0  0  0  0  0  0  0
   14.7657   -7.7618   20.6585 C   0  0  0  0  0  0  0  0  0  0  0  0
   14.0033   -7.3285   21.7456 C   0  0  0  0  0  0  0  0  0  0  0  0
   12.5228   -5.1429   23.5497 C   0  0  0  0  0  0  0  0  0  0  0  0
   12.0695   -6.1169   22.6201 O   0  0  0  0  0  0  0  0  0  0  0  0
   11.3062   -5.4526   20.0424 O   0  0  0  0  0  0  0  0  0  0  0  0
   11.1776   -4.5123   18.9854 C   0  0  0  0  0  0  0  0  0  0  0  0
   16.2455   -7.9731   14.8342 C   0  0  0  0  0  0  0  0  0  0  0  0
   15.4491   -9.3367   13.9328 S   0  0  0  0  0  0  0  0  0  0  0  0
   16.9431  -10.3337   13.9199 C   0  0  0  0  0  0  0  0  0  0  0  0
   17.3629  -11.0213   14.9984 N   0  0  0  0  0  0  0  0  0  0  0  0
   18.4497  -11.6859   14.6363 N   0  0  0  0  0  0  0  0  0  0  0  0
   18.6695  -11.4017   13.3396 C   0  0  0  0  0  0  0  0  0  0  0  0
   19.8356  -11.9398   12.5817 C   0  0  0  0  0  0  0  0  0  0  0  0
   17.7408  -10.5500   12.8484 N   0  0  0  0  0  0  0  0  0  0  0  0
   17.6182  -10.0351   11.5058 C   0  0  0  0  0  0  0  0  0  0  0  0
   18.6389   -9.2451   10.9499 C   0  0  0  0  0  0  0  0  0  0  0  0
   18.5286   -8.7537    9.6460 C   0  0  0  0  0  0  0  0  0  0  0  0
   17.3945   -9.0464    8.8833 C   0  0  0  0  0  0  0  0  0  0  0  0
   17.2775   -8.5294    7.4946 C   0  0  0  0  0  0  0  0  0  0  0  0
   16.3701   -9.8263    9.4261 C   0  0  0  0  0  0  0  0  0  0  0  0
   16.4827  -10.3162   10.7302 C   0  0  0  0  0  0  0  0  0  0  0  0
 12 13  1  0  0  0
 13  6  1  0  0  0
  6  7  2  0  0  0
  7 14  1  0  0  0
  7  8  1  0  0  0
 14 15  1  0  0  0
  8  9  2  0  0  0
  9 10  1  0  0  0
  9  1  1  0  0  0
 10 11  2  0  0  0
 11  6  1  0  0  0
  1  2  2  0  0  0
  2  3  1  0  0  0
  3  4  1  0  0  0
  4 16  1  0  0  0
  4  5  2  0  0  0
 16 17  1  0  0  0
 17 18  1  0  0  0
 18 19  2  0  0  0
 19 20  1  0  0  0
 20 21  2  0  0  0
 21 22  1  0  0  0
 21 23  1  0  0  0
 23 24  1  0  0  0
 23 18  1  0  0  0
 24 25  2  0  0  0
 25 26  1  0  0  0
 26 27  2  0  0  0
 27 28  1  0  0  0
 27 29  1  0  0  0
 29 30  2  0  0  0
 30 24  1  0  0  0
  5  1  1  0  0  0
M  END
>  <minimizedAffinity>
-6.74521

>  <minimizedRMSD>
1.07369

$$$$
CHEMBL3344436 PubChem-118717794


 35 39  0  0  0  0  0  0  0  0999 V2000
   16.9634   -9.5462   16.1660 N   0  0  0  0  0  0  0  0  0  0  0  0
   16.5321   -9.1903   17.3373 O   0  0  0  0  0  0  0  0  0  0  0  0
   15.5013   -8.3883   17.2121 C   0  0  0  0  0  0  0  0  0  0  0  0
   15.2015   -8.1763   15.9137 N   0  0  0  0  0  0  0  0  0  0  0  0
   16.1445   -8.9202   15.2999 C   0  0  0  0  0  0  0  0  0  0  0  0
   16.2545   -9.0418   13.8774 N   0  0  0  0  0  0  0  0  0  0  0  0
   17.5536   -8.8950   13.2241 C   0  0  0  0  0  0  0  0  0  0  0  0
   17.7096   -9.9638   12.1473 C   0  0  0  0  0  0  0  0  0  0  0  0
   16.5134   -9.9849   11.3095 N   0  0  0  0  0  0  0  0  0  0  0  0
   15.2213  -10.1629   11.9661 C   0  0  0  0  0  0  0  0  0  0  0  0
   15.0515   -9.1010   13.0489 C   0  0  0  0  0  0  0  0  0  0  0  0
   16.5947   -9.8042    9.8883 C   0  0  0  0  0  0  0  0  0  0  0  0
   15.5431   -9.8170    9.1904 O   0  0  0  0  0  0  0  0  0  0  0  0
   17.9219   -9.5982    9.2222 C   0  0  0  0  0  0  0  0  0  0  0  0
   18.6050   -8.3400    9.7306 C   0  0  0  0  0  0  0  0  0  0  0  0
   19.0328   -7.5496    8.5071 C   0  0  0  0  0  0  0  0  0  0  0  0
   18.8479   -8.4676    7.3178 C   0  0  0  0  0  0  0  0  0  0  0  0
   17.7632   -9.4362    7.7249 C   0  0  0  0  0  0  0  0  0  0  0  0
   14.7502   -7.7844   18.3350 C   0  0  0  0  0  0  0  0  0  0  0  0
   13.3532   -7.7106   18.2298 C   0  0  0  0  0  0  0  0  0  0  0  0
   12.5822   -7.1543   19.2519 C   0  0  0  0  0  0  0  0  0  0  0  0
   13.2043   -6.6647   20.4058 C   0  0  0  0  0  0  0  0  0  0  0  0
   14.5946   -6.7246   20.5210 C   0  0  0  0  0  0  0  0  0  0  0  0
   15.3741   -7.2802   19.5016 C   0  0  0  0  0  0  0  0  0  0  0  0
   17.1138   -7.3078   19.7520 Cl  0  0  0  0  0  0  0  0  0  0  0  0
   11.2342   -7.0948   19.1142 F   0  0  0  0  0  0  0  0  0  0  0  0
   12.4025   -6.0437   21.5004 C   0  0  0  0  0  0  0  0  0  0  0  0
   13.2317   -5.1214   22.2642 N   0  0  0  0  0  0  0  0  0  0  0  0
   12.3342   -4.2934   23.0609 C   0  0  0  0  0  0  0  0  0  0  0  0
   12.7331   -4.9560   24.3602 C   0  0  0  0  0  0  0  0  0  0  0  0
   13.6331   -5.8034   23.4900 C   0  0  0  0  0  0  0  0  0  0  0  0
   13.5366   -4.0237   25.2112 C   0  0  0  0  0  0  0  0  0  0  0  0
   13.5923   -4.2147   26.4535 O   0  0  0  0  0  0  0  0  0  0  0  0
   14.2229   -2.9509   24.6507 O   0  0  0  0  0  0  0  0  0  0  0  0
   14.1859   -2.8027   23.7262 H   0  0  0  0  0  0  0  0  0  0  0  0
  1  2  1  0  0  0
  2  3  1  0  0  0
  3  4  2  0  0  0
  4  5  1  0  0  0
  5  6  1  0  0  0
  6  7  1  0  0  0
  7  8  1  0  0  0
  8  9  1  0  0  0
  9 10  1  0  0  0
 10 11  1  0  0  0
  9 12  1  0  0  0
 12 13  2  0  0  0
 12 14  1  0  0  0
 14 15  1  0  0  0
 15 16  1  0  0  0
 16 17  1  0  0  0
 17 18  1  0  0  0
  3 19  1  0  0  0
 19 20  2  0  0  0
 20 21  1  0  0  0
 21 22  2  0  0  0
 22 23  1  0  0  0
 23 24  2  0  0  0
 24 25  1  0  0  0
 22 27  1  0  0  0
 27 28  1  0  0  0
 28 29  1  0  0  0
 29 30  1  0  0  0
 30 31  1  0  0  0
 30 32  1  0  0  0
 32 33  2  0  0  0
 32 34  1  0  0  0
 21 26  1  0  0  0
  5  1  2  0  0  0
 11  6  1  0  0  0
 18 14  1  0  0  0
 24 19  1  0  0  0
 31 28  1  0  0  0
 34 35  1  0  0  0
M  END
>  <minimizedAffinity>
-6.74156

>  <minimizedRMSD>
1.29080

$$$$
CHEMBL3192097 MolPort-004-247-267 PubChem-6900560 ZINC03205016


 30 31  0  0  0  0  0  0  0  0999 V2000
   15.1546   -7.9971   19.5840 C   0  0  0  0  0  0  0  0  0  0  0  0
   15.6579   -9.1526   19.5409 O   0  0  0  0  0  0  0  0  0  0  0  0
   14.9075   -7.2593   18.3751 N   0  0  0  0  0  0  0  0  0  0  0  0
   14.4805   -6.3770   18.4675 H   0  0  0  0  0  0  0  0  0  0  0  0
   13.8540   -5.5750   22.1791 C   0  0  0  0  0  0  0  0  0  0  0  0
   14.1480   -6.2597   23.3627 C   0  0  0  0  0  0  0  0  0  0  0  0
   14.7713   -7.5088   23.3131 C   0  0  0  0  0  0  0  0  0  0  0  0
   15.1011   -8.0768   22.0793 C   0  0  0  0  0  0  0  0  0  0  0  0
   14.8091   -7.3999   20.8860 C   0  0  0  0  0  0  0  0  0  0  0  0
   14.1838   -6.1467   20.9456 C   0  0  0  0  0  0  0  0  0  0  0  0
   13.0608   -4.0059   22.2383 S   0  0  0  0  0  0  0  0  0  0  0  0
   13.1799   -3.4439   23.6278 O   0  0  0  0  0  0  0  0  0  0  0  0
   13.7532   -3.0672   21.2896 O   0  0  0  0  0  0  0  0  0  0  0  0
   11.3801   -4.1332   21.8071 N   0  0  0  0  0  0  0  0  0  0  0  0
    9.9598   -3.4196   23.6452 C   0  0  0  0  0  0  0  0  0  0  0  0
   10.6494   -4.5927   22.9777 C   0  0  0  0  0  0  0  0  0  0  0  0
   11.2505   -5.1732   20.7983 C   0  0  0  0  0  0  0  0  0  0  0  0
   11.0163   -4.5441   19.4389 C   0  0  0  0  0  0  0  0  0  0  0  0
   15.2220   -7.6864   17.0707 N   0  0  0  0  0  0  0  0  0  0  0  0
   16.1891   -8.5056   16.8012 C   0  0  0  0  0  0  0  0  0  0  0  0
   16.4784   -8.9237   15.4261 C   0  0  0  0  0  0  0  0  0  0  0  0
   15.7410   -8.4274   14.3427 C   0  0  0  0  0  0  0  0  0  0  0  0
   16.0371   -8.8444   13.0425 C   0  0  0  0  0  0  0  0  0  0  0  0
   17.0741   -9.7629   12.8103 C   0  0  0  0  0  0  0  0  0  0  0  0
   17.8099  -10.2566   13.8973 C   0  0  0  0  0  0  0  0  0  0  0  0
   18.8404  -11.1649   13.6908 O   0  0  0  0  0  0  0  0  0  0  0  0
   17.5109   -9.8376   15.1974 C   0  0  0  0  0  0  0  0  0  0  0  0
   19.0465  -11.4502   12.8224 H   0  0  0  0  0  0  0  0  0  0  0  0
   17.3876  -10.1949   11.5171 O   0  0  0  0  0  0  0  0  0  0  0  0
   17.8687   -9.3170   10.5083 C   0  0  0  0  0  0  0  0  0  0  0  0
 15 16  1  0  0  0
 16 14  1  0  0  0
 14 17  1  0  0  0
 14 11  1  0  0  0
 17 18  1  0  0  0
 11 12  2  0  0  0
 11 13  2  0  0  0
 11  5  1  0  0  0
  5  6  2  0  0  0
  6  7  1  0  0  0
  7  8  2  0  0  0
  8  9  1  0  0  0
  9 10  2  0  0  0
  9  1  1  0  0  0
 10  5  1  0  0  0
  1  2  2  0  0  0
  1  3  1  0  0  0
  3 19  1  0  0  0
 19 20  2  0  0  0
 20 21  1  0  0  0
 21 22  2  0  0  0
 22 23  1  0  0  0
 23 24  2  0  0  0
 24 29  1  0  0  0
 24 25  1  0  0  0
 29 30  1  0  0  0
 25 26  1  0  0  0
 25 27  2  0  0  0
 27 21  1  0  0  0
  3  4  1  0  0  0
 26 28  1  0  0  0
M  END
>  <minimizedAffinity>
-6.74037

>  <minimizedRMSD>
1.85726

$$$$
CHEMBL3410049 PubChem-118732103


 35 38  0  0  0  0  0  0  0  0999 V2000
   15.8545   -9.1313   17.5537 N   0  0  0  0  0  0  0  0  0  0  0  0
   15.9000   -8.9958   16.1241 C   0  0  0  0  0  0  0  0  0  0  0  0
   15.3771   -7.9932   15.5660 O   0  0  0  0  0  0  0  0  0  0  0  0
   16.5181  -10.0291   15.3295 N   0  0  0  0  0  0  0  0  0  0  0  0
   16.2505   -9.9503   17.9302 H   0  0  0  0  0  0  0  0  0  0  0  0
   13.7333   -6.4373   19.0829 C   0  0  0  0  0  0  0  0  0  0  0  0
   14.2375   -6.4138   20.3898 C   0  0  0  0  0  0  0  0  0  0  0  0
   15.2959   -7.2661   20.7300 C   0  0  0  0  0  0  0  0  0  0  0  0
   15.8154   -8.1585   19.7880 C   0  0  0  0  0  0  0  0  0  0  0  0
   15.2944   -8.2017   18.4910 C   0  0  0  0  0  0  0  0  0  0  0  0
   14.2529   -7.3298   18.1417 C   0  0  0  0  0  0  0  0  0  0  0  0
   13.7399   -5.4390   21.3768 C   0  0  0  0  0  0  0  0  0  0  0  0
   14.5842   -5.0023   22.3590 N   0  0  0  0  0  0  0  0  0  0  0  0
   14.1990   -4.0672   23.2802 C   0  0  0  0  0  0  0  0  0  0  0  0
   12.9416   -3.5405   23.2464 N   0  0  0  0  0  0  0  0  0  0  0  0
   12.0856   -3.9659   22.2870 C   0  0  0  0  0  0  0  0  0  0  0  0
   12.4424   -4.9028   21.3596 C   0  0  0  0  0  0  0  0  0  0  0  0
   11.3028   -5.1355   20.6140 C   0  0  0  0  0  0  0  0  0  0  0  0
   10.3156   -4.3053   21.1314 C   0  0  0  0  0  0  0  0  0  0  0  0
   10.8043   -3.5789   22.1661 N   0  0  0  0  0  0  0  0  0  0  0  0
   11.0847   -6.1453   19.5429 C   0  0  0  0  0  0  0  0  0  0  0  0
   10.3251   -2.9130   22.7104 H   0  0  0  0  0  0  0  0  0  0  0  0
   16.8341   -9.8544   13.9295 C   0  0  0  0  0  0  0  0  0  0  0  0
   15.8620   -9.4163   13.0150 C   0  0  0  0  0  0  0  0  0  0  0  0
   16.1814   -9.2306   11.6673 C   0  0  0  0  0  0  0  0  0  0  0  0
   17.4789   -9.4738   11.2094 C   0  0  0  0  0  0  0  0  0  0  0  0
   18.4590   -9.9035   12.1168 C   0  0  0  0  0  0  0  0  0  0  0  0
   18.1385  -10.0891   13.4639 C   0  0  0  0  0  0  0  0  0  0  0  0
   17.7666   -9.2801    9.8555 O   0  0  0  0  0  0  0  0  0  0  0  0
   18.5886   -8.2187    9.3897 C   0  0  0  0  0  0  0  0  0  0  0  0
   16.8565  -11.2922   15.9813 C   0  0  0  0  0  0  0  0  0  0  0  0
   18.2427  -11.2072   16.5923 C   0  0  0  0  0  0  0  0  0  0  0  0
   18.1629  -11.4923   18.0127 N   0  0  0  0  0  0  0  0  0  0  0  0
   17.5506  -10.8116   18.4622 H   0  0  0  0  0  0  0  0  0  0  0  0
   19.0946  -11.4351   18.4238 H   0  0  0  0  0  0  0  0  0  0  0  0
  6  7  2  0  0  0
  7  8  1  0  0  0
  8  9  2  0  0  0
  9 10  1  0  0  0
 10 11  2  0  0  0
 10  1  1  0  0  0
  1  2  1  0  0  0
  2  3  2  0  0  0
  2  4  1  0  0  0
  4 23  1  0  0  0
 23 24  2  0  0  0
 24 25  1  0  0  0
 25 26  2  0  0  0
 26 27  1  0  0  0
 27 28  2  0  0  0
 26 29  1  0  0  0
 29 30  1  0  0  0
  4 31  1  0  0  0
 31 32  1  0  0  0
 32 33  1  0  0  0
  7 12  1  0  0  0
 12 13  2  0  0  0
 13 14  1  0  0  0
 14 15  2  0  0  0
 15 16  1  0  0  0
 16 17  2  0  0  0
 17 18  1  0  0  0
 18 19  2  0  0  0
 19 20  1  0  0  0
 18 21  1  0  0  0
 11  6  1  0  0  0
 28 23  1  0  0  0
 17 12  1  0  0  0
 20 16  1  0  0  0
  1  5  1  0  0  0
 33 34  1  0  0  0
 33 35  1  0  0  0
 20 22  1  0  0  0
M  END
>  <minimizedAffinity>
-6.73841

>  <minimizedRMSD>
1.27393

$$$$
CHEMBL1868771 ChemDiv-G827-0176 MCULE-8318280587 MolPort-010-849-249 PubChem-16031204 ZINC000008600322 ZINC08600322


 35 38  0  0  0  0  0  0  0  0999 V2000
   16.2193  -10.1351   15.7881 C   0  0  0  0  0  0  0  0  0  0  0  0
   17.0410  -10.2546   14.5464 C   0  0  0  0  0  0  0  0  0  0  0  0
   17.0411   -9.4269   13.4411 C   0  0  0  0  0  0  0  0  0  0  0  0
   16.1999   -8.2039   13.2745 C   0  0  0  0  0  0  0  0  0  0  0  0
   17.9138   -9.9226   12.5316 N   0  0  0  0  0  0  0  0  0  0  0  0
   18.4629  -11.0304   13.0127 N   0  0  0  0  0  0  0  0  0  0  0  0
   17.9437  -11.2505   14.2357 C   0  0  0  0  0  0  0  0  0  0  0  0
   18.3051  -12.4125   15.0926 C   0  0  0  0  0  0  0  0  0  0  0  0
   18.2371   -9.3877   11.2353 C   0  0  0  0  0  0  0  0  0  0  0  0
   17.5069   -9.7331   10.1326 N   0  0  0  0  0  0  0  0  0  0  0  0
   17.8408   -9.2140    8.9545 N   0  0  0  0  0  0  0  0  0  0  0  0
   17.3038   -9.3834    7.7417 C   0  0  0  0  0  0  0  0  0  0  0  0
   16.1348  -10.2518    7.4338 C   0  0  0  0  0  0  0  0  0  0  0  0
   17.9801   -8.6510    6.8266 N   0  0  0  0  0  0  0  0  0  0  0  0
   18.9573   -8.0099    7.4695 N   0  0  0  0  0  0  0  0  0  0  0  0
   18.8514   -8.3685    8.7628 C   0  0  0  0  0  0  0  0  0  0  0  0
   19.6461   -7.9639    9.8254 C   0  0  0  0  0  0  0  0  0  0  0  0
   19.3228   -8.4909   11.0870 C   0  0  0  0  0  0  0  0  0  0  0  0
   16.8375   -9.1226   16.7348 C   0  0  0  0  0  0  0  0  0  0  0  0
   15.6575   -8.2810   18.7965 N   0  0  0  0  0  0  0  0  0  0  0  0
   15.7671   -8.3072   17.3675 C   0  0  0  0  0  0  0  0  0  0  0  0
   14.9600   -7.6726   16.6375 O   0  0  0  0  0  0  0  0  0  0  0  0
   16.3343   -8.7879   19.3006 H   0  0  0  0  0  0  0  0  0  0  0  0
   14.0172   -6.5960   21.6902 C   0  0  0  0  0  0  0  0  0  0  0  0
   14.9477   -7.2621   20.8886 C   0  0  0  0  0  0  0  0  0  0  0  0
   14.6635   -7.5925   19.5671 C   0  0  0  0  0  0  0  0  0  0  0  0
   13.4216   -7.2477   19.0332 C   0  0  0  0  0  0  0  0  0  0  0  0
   12.4586   -6.5796   19.8031 C   0  0  0  0  0  0  0  0  0  0  0  0
   12.7478   -6.2490   21.1542 C   0  0  0  0  0  0  0  0  0  0  0  0
   15.0223   -5.1041   23.4385 C   0  0  0  0  0  0  0  0  0  0  0  0
   14.4157   -6.3132   23.0067 O   0  0  0  0  0  0  0  0  0  0  0  0
   11.2259   -6.2419   19.2317 O   0  0  0  0  0  0  0  0  0  0  0  0
   10.4285   -7.1664   18.5026 C   0  0  0  0  0  0  0  0  0  0  0  0
   11.8213   -5.5900   21.9811 O   0  0  0  0  0  0  0  0  0  0  0  0
   11.6312   -4.1836   22.0501 C   0  0  0  0  0  0  0  0  0  0  0  0
 30 31  1  0  0  0
 31 24  1  0  0  0
 24 25  2  0  0  0
 25 26  1  0  0  0
 26 20  1  0  0  0
 26 27  2  0  0  0
 20 21  1  0  0  0
 21 22  2  0  0  0
 21 19  1  0  0  0
 19  1  1  0  0  0
  1  2  1  0  0  0
  2  3  2  0  0  0
  3  4  1  0  0  0
  3  5  1  0  0  0
  5  6  1  0  0  0
  5  9  1  0  0  0
  6  7  2  0  0  0
  7  8  1  0  0  0
  7  2  1  0  0  0
  9 10  2  0  0  0
 10 11  1  0  0  0
 11 12  1  0  0  0
 12 13  1  0  0  0
 12 14  2  0  0  0
 14 15  1  0  0  0
 15 16  2  0  0  0
 16 17  1  0  0  0
 16 11  1  0  0  0
 17 18  2  0  0  0
 18  9  1  0  0  0
 27 28  1  0  0  0
 28 32  1  0  0  0
 28 29  2  0  0  0
 32 33  1  0  0  0
 29 34  1  0  0  0
 29 24  1  0  0  0
 34 35  1  0  0  0
 20 23  1  0  0  0
M  END
>  <minimizedAffinity>
-6.72492

>  <minimizedRMSD>
1.80256

$$$$
CHEMBL1581010 CHEMBL1626007 19889306 LN00926969 MCULE-4858980131 MCULE-7300249188 MolPort-001-997-376 MolPort-035-707-681 PubChem-1074806 PubChem-24792498 ZINC000019889306 ZINC19889306


 33 36  0  0  0  0  0  0  0  0999 V2000
   16.0979   -8.2018   17.5357 N   0  0  0  0  0  0  0  0  0  0  0  0
   15.5603   -7.3583   16.4533 C   0  0  0  0  0  0  0  0  0  0  0  0
   15.1697   -8.1582   15.2051 C   0  0  0  0  0  0  0  0  0  0  0  0
   16.2658   -9.0292   14.7832 N   0  0  0  0  0  0  0  0  0  0  0  0
   17.4398   -9.1607   15.6401 C   0  0  0  0  0  0  0  0  0  0  0  0
   16.9806   -9.2959   17.0904 C   0  0  0  0  0  0  0  0  0  0  0  0
   16.1781   -9.7467   13.5426 C   0  0  0  0  0  0  0  0  0  0  0  0
   15.1515   -9.6390   12.8197 O   0  0  0  0  0  0  0  0  0  0  0  0
   14.9741   -8.8088   18.2344 C   0  0  0  0  0  0  0  0  0  0  0  0
   14.8033   -6.4690   21.2156 C   0  0  0  0  0  0  0  0  0  0  0  0
   15.2665   -7.3851   20.2576 C   0  0  0  0  0  0  0  0  0  0  0  0
   14.4283   -7.8551   19.2450 C   0  0  0  0  0  0  0  0  0  0  0  0
   13.1038   -7.4038   19.1674 C   0  0  0  0  0  0  0  0  0  0  0  0
   12.6357   -6.4894   20.1224 C   0  0  0  0  0  0  0  0  0  0  0  0
   13.4632   -6.0156   21.1457 C   0  0  0  0  0  0  0  0  0  0  0  0
   17.0176   -6.4222   22.3303 C   0  0  0  0  0  0  0  0  0  0  0  0
   15.6606   -6.0123   22.2236 O   0  0  0  0  0  0  0  0  0  0  0  0
   12.2713   -7.8713   18.1436 O   0  0  0  0  0  0  0  0  0  0  0  0
   10.8540   -7.8773   18.2466 C   0  0  0  0  0  0  0  0  0  0  0  0
   12.8991   -5.1041   22.0511 O   0  0  0  0  0  0  0  0  0  0  0  0
   12.9536   -3.6906   21.9211 C   0  0  0  0  0  0  0  0  0  0  0  0
   17.3037  -10.6117   13.0708 C   0  0  0  0  0  0  0  0  0  0  0  0
   18.2022   -9.8555   12.2649 O   0  0  0  0  0  0  0  0  0  0  0  0
   17.9900   -9.6048   10.9049 C   0  0  0  0  0  0  0  0  0  0  0  0
   16.9270  -10.1988   10.2028 C   0  0  0  0  0  0  0  0  0  0  0  0
   16.7386   -9.9335    8.8433 C   0  0  0  0  0  0  0  0  0  0  0  0
   17.6120   -9.0733    8.1740 C   0  0  0  0  0  0  0  0  0  0  0  0
   17.4303   -8.8014    6.8153 C   0  0  0  0  0  0  0  0  0  0  0  0
   18.3088   -7.9387    6.1522 C   0  0  0  0  0  0  0  0  0  0  0  0
   19.3707   -7.3469    6.8449 C   0  0  0  0  0  0  0  0  0  0  0  0
   19.5590   -7.6146    8.2045 C   0  0  0  0  0  0  0  0  0  0  0  0
   18.6846   -8.4751    8.8743 C   0  0  0  0  0  0  0  0  0  0  0  0
   18.8662   -8.7459   10.2328 C   0  0  0  0  0  0  0  0  0  0  0  0
 16 17  1  0  0  0
 17 10  1  0  0  0
 10 11  2  0  0  0
 11 12  1  0  0  0
 12  9  1  0  0  0
 12 13  2  0  0  0
  9  1  1  0  0  0
  1  2  1  0  0  0
  2  3  1  0  0  0
  3  4  1  0  0  0
  4  5  1  0  0  0
  4  7  1  0  0  0
  5  6  1  0  0  0
  6  1  1  0  0  0
  7  8  2  0  0  0
  7 22  1  0  0  0
 22 23  1  0  0  0
 23 24  1  0  0  0
 24 25  2  0  0  0
 25 26  1  0  0  0
 26 27  2  0  0  0
 27 28  1  0  0  0
 28 29  2  0  0  0
 29 30  1  0  0  0
 30 31  2  0  0  0
 31 32  1  0  0  0
 32 33  2  0  0  0
 32 27  1  0  0  0
 33 24  1  0  0  0
 13 18  1  0  0  0
 13 14  1  0  0  0
 18 19  1  0  0  0
 14 15  2  0  0  0
 15 20  1  0  0  0
 15 10  1  0  0  0
 20 21  1  0  0  0
M  END
>  <minimizedAffinity>
-6.72438

>  <minimizedRMSD>
1.00538

$$$$
CHEMBL1366536 22932759 MCULE-9797786319 MolPort-005-162-387 PubChem-16191768 ZINC000022932759


 32 35  0  0  0  0  0  0  0  0999 V2000
   14.8206   -8.0172   17.6145 C   0  0  0  0  0  0  0  0  0  0  0  0
   15.3318   -9.1728   18.0810 N   0  0  0  0  0  0  0  0  0  0  0  0
   16.3782   -9.3903   17.3451 O   0  0  0  0  0  0  0  0  0  0  0  0
   16.5129   -8.4196   16.4754 C   0  0  0  0  0  0  0  0  0  0  0  0
   15.5399   -7.4974   16.5989 N   0  0  0  0  0  0  0  0  0  0  0  0
   13.6200   -7.3522   18.1972 C   0  0  0  0  0  0  0  0  0  0  0  0
   14.5116   -5.8672   22.1378 C   0  0  0  0  0  0  0  0  0  0  0  0
   15.3222   -6.8369   21.5348 C   0  0  0  0  0  0  0  0  0  0  0  0
   15.0312   -7.3248   20.2601 C   0  0  0  0  0  0  0  0  0  0  0  0
   13.9163   -6.8498   19.5690 C   0  0  0  0  0  0  0  0  0  0  0  0
   13.0992   -5.8796   20.1536 C   0  0  0  0  0  0  0  0  0  0  0  0
   13.3800   -5.3781   21.4367 C   0  0  0  0  0  0  0  0  0  0  0  0
   14.3963   -5.9887   24.6363 C   0  0  0  0  0  0  0  0  0  0  0  0
   14.8818   -5.4357   23.4208 O   0  0  0  0  0  0  0  0  0  0  0  0
   12.5493   -4.4071   22.0088 O   0  0  0  0  0  0  0  0  0  0  0  0
   11.3107   -4.0117   21.4345 C   0  0  0  0  0  0  0  0  0  0  0  0
   17.6100   -8.3481   15.4496 C   0  0  0  0  0  0  0  0  0  0  0  0
   17.2674   -8.9730   14.1646 N   0  0  0  0  0  0  0  0  0  0  0  0
   15.8136   -9.0487   14.0180 C   0  0  0  0  0  0  0  0  0  0  0  0
   15.4135   -9.0140   12.5460 C   0  0  0  0  0  0  0  0  0  0  0  0
   16.0223  -10.1808   11.7788 C   0  0  0  0  0  0  0  0  0  0  0  0
   17.4626   -9.9814   11.6560 N   0  0  0  0  0  0  0  0  0  0  0  0
   18.1455  -10.7707   12.6816 C   0  0  0  0  0  0  0  0  0  0  0  0
   17.8063  -10.3326   14.1148 C   0  0  0  0  0  0  0  0  0  0  0  0
   17.8663  -10.5343   10.3721 C   0  0  0  0  0  0  0  0  0  0  0  0
   18.1674   -9.4384    9.4043 C   0  0  0  0  0  0  0  0  0  0  0  0
   19.0609   -8.4151    9.7470 C   0  0  0  0  0  0  0  0  0  0  0  0
   19.3415   -7.3945    8.8330 C   0  0  0  0  0  0  0  0  0  0  0  0
   18.7314   -7.3969    7.5745 C   0  0  0  0  0  0  0  0  0  0  0  0
   19.0024   -6.4081    6.6894 F   0  0  0  0  0  0  0  0  0  0  0  0
   17.8428   -8.4206    7.2289 C   0  0  0  0  0  0  0  0  0  0  0  0
   17.5616   -9.4411    8.1430 C   0  0  0  0  0  0  0  0  0  0  0  0
 13 14  1  0  0  0
 14  7  1  0  0  0
  7  8  2  0  0  0
  8  9  1  0  0  0
  9 10  2  0  0  0
 10  6  1  0  0  0
 10 11  1  0  0  0
  6  1  1  0  0  0
  1  2  2  0  0  0
  2  3  1  0  0  0
  3  4  1  0  0  0
  4 17  1  0  0  0
  4  5  2  0  0  0
 17 18  1  0  0  0
 18 19  1  0  0  0
 19 20  1  0  0  0
 20 21  1  0  0  0
 21 22  1  0  0  0
 22 25  1  0  0  0
 22 23  1  0  0  0
 25 26  1  0  0  0
 26 27  2  0  0  0
 27 28  1  0  0  0
 28 29  2  0  0  0
 29 30  1  0  0  0
 29 31  1  0  0  0
 31 32  2  0  0  0
 32 26  1  0  0  0
 23 24  1  0  0  0
 24 18  1  0  0  0
  5  1  1  0  0  0
 11 12  2  0  0  0
 12 15  1  0  0  0
 12  7  1  0  0  0
 15 16  1  0  0  0
M  END
>  <minimizedAffinity>
-6.72386

>  <minimizedRMSD>
1.75880

$$$$
CHEMBL1731957 9290172 ChemDiv-E135-1257 MCULE-2844998962 MolPort-006-845-135 PubChem-17253857 ZINC000009290172


 35 38  0  0  0  0  0  0  0  0999 V2000
   15.5419   -8.1643   16.1251 C   0  0  0  0  0  0  0  0  0  0  0  0
   14.6926   -7.5154   15.4539 O   0  0  0  0  0  0  0  0  0  0  0  0
   15.4022   -8.2703   17.5481 N   0  0  0  0  0  0  0  0  0  0  0  0
   16.0654   -8.8212   18.0234 H   0  0  0  0  0  0  0  0  0  0  0  0
   18.9324  -10.3736   15.3411 S   0  0  0  0  0  0  0  0  0  0  0  0
   20.3300   -9.8800   15.5883 O   0  0  0  0  0  0  0  0  0  0  0  0
   18.7847  -11.7902   15.8187 O   0  0  0  0  0  0  0  0  0  0  0  0
   18.5837  -10.2829   13.6569 N   0  0  0  0  0  0  0  0  0  0  0  0
   17.5404   -9.6598   13.1964 C   0  0  0  0  0  0  0  0  0  0  0  0
   16.5674   -8.9876   14.0960 C   0  0  0  0  0  0  0  0  0  0  0  0
   16.6593   -8.8489   15.4291 C   0  0  0  0  0  0  0  0  0  0  0  0
   17.7988   -9.3592   16.1521 N   0  0  0  0  0  0  0  0  0  0  0  0
   18.1256   -8.9206   17.5007 C   0  0  0  0  0  0  0  0  0  0  0  0
   17.3033   -9.6363   11.7352 C   0  0  0  0  0  0  0  0  0  0  0  0
   16.0641  -10.0298   11.2034 C   0  0  0  0  0  0  0  0  0  0  0  0
   15.8429  -10.0052    9.8235 C   0  0  0  0  0  0  0  0  0  0  0  0
   16.8586   -9.5868    8.9605 C   0  0  0  0  0  0  0  0  0  0  0  0
   18.0952   -9.1927    9.4769 C   0  0  0  0  0  0  0  0  0  0  0  0
   18.3163   -9.2169   10.8570 C   0  0  0  0  0  0  0  0  0  0  0  0
   16.6233   -9.5600    7.4936 C   0  0  0  0  0  0  0  0  0  0  0  0
   14.3851   -7.6470   18.3403 C   0  0  0  0  0  0  0  0  0  0  0  0
   13.2857   -6.9464   17.8573 C   0  0  0  0  0  0  0  0  0  0  0  0
   12.6544   -6.5537   19.0225 C   0  0  0  0  0  0  0  0  0  0  0  0
   13.3397   -7.0004   20.0909 N   0  0  0  0  0  0  0  0  0  0  0  0
   14.4055   -7.6654   19.6858 N   0  0  0  0  0  0  0  0  0  0  0  0
   11.4041   -5.7458   19.0883 C   0  0  0  0  0  0  0  0  0  0  0  0
   13.0277   -6.7501   21.4909 C   0  0  0  0  0  0  0  0  0  0  0  0
   13.8453   -5.6065   21.9999 C   0  0  0  0  0  0  0  0  0  0  0  0
   13.8496   -4.5267   21.3502 O   0  0  0  0  0  0  0  0  0  0  0  0
   14.6541   -5.7434   23.1776 N   0  0  0  0  0  0  0  0  0  0  0  0
   14.5626   -6.9352   24.0189 C   0  0  0  0  0  0  0  0  0  0  0  0
   15.9637   -7.4256   24.3717 C   0  0  0  0  0  0  0  0  0  0  0  0
   16.7769   -6.2882   24.9837 C   0  0  0  0  0  0  0  0  0  0  0  0
   16.8663   -5.1192   24.0061 C   0  0  0  0  0  0  0  0  0  0  0  0
   15.4669   -4.6250   23.6500 C   0  0  0  0  0  0  0  0  0  0  0  0
  5  6  2  0  0  0
  5  7  2  0  0  0
  5  8  1  0  0  0
  8  9  2  0  0  0
  9 14  1  0  0  0
 14 15  2  0  0  0
 15 16  1  0  0  0
 16 17  2  0  0  0
 17 18  1  0  0  0
 18 19  2  0  0  0
 17 20  1  0  0  0
  9 10  1  0  0  0
 10 11  2  0  0  0
 11  1  1  0  0  0
  1  2  2  0  0  0
  1  3  1  0  0  0
  3 21  1  0  0  0
 21 22  1  0  0  0
 22 23  2  0  0  0
 23 24  1  0  0  0
 24 27  1  0  0  0
 27 28  1  0  0  0
 28 29  2  0  0  0
 28 30  1  0  0  0
 30 31  1  0  0  0
 31 32  1  0  0  0
 32 33  1  0  0  0
 33 34  1  0  0  0
 34 35  1  0  0  0
 24 25  1  0  0  0
 23 26  1  0  0  0
 11 12  1  0  0  0
 12 13  1  0  0  0
 12  5  1  0  0  0
 19 14  1  0  0  0
 25 21  2  0  0  0
 35 30  1  0  0  0
  3  4  1  0  0  0
M  END
>  <minimizedAffinity>
-6.72243

>  <minimizedRMSD>
1.41912

$$$$
CHEMBL1407879 CHEMBL1619827 19781982 ChemDiv-3702-0504 LN00894299 MCULE-2392690066 MCULE-6767335239 MolPort-001-519-270 MolPort-001-671-352 PubChem-17366951 PubChem-772117 ZINC000019781982


 25 27  0  0  0  0  0  0  0  0999 V2000
   16.2347   -7.9486   16.3217 N   0  0  0  0  0  0  0  0  0  0  0  0
   16.2770   -7.3724   14.9706 C   0  0  0  0  0  0  0  0  0  0  0  0
   15.9443   -8.4096   13.8927 C   0  0  0  0  0  0  0  0  0  0  0  0
   16.8734   -9.5313   13.9853 N   0  0  0  0  0  0  0  0  0  0  0  0
   16.6724  -10.1682   15.2814 C   0  0  0  0  0  0  0  0  0  0  0  0
   17.0283   -9.1843   16.4008 C   0  0  0  0  0  0  0  0  0  0  0  0
   14.8481   -8.2258   16.6877 C   0  0  0  0  0  0  0  0  0  0  0  0
   14.1241   -6.7876   20.6760 C   0  0  0  0  0  0  0  0  0  0  0  0
   13.1242   -6.6821   19.7049 C   0  0  0  0  0  0  0  0  0  0  0  0
   13.3383   -7.1508   18.3978 C   0  0  0  0  0  0  0  0  0  0  0  0
   14.5740   -7.7356   18.0714 C   0  0  0  0  0  0  0  0  0  0  0  0
   15.5781   -7.8363   19.0395 C   0  0  0  0  0  0  0  0  0  0  0  0
   15.3555   -7.3675   20.3356 C   0  0  0  0  0  0  0  0  0  0  0  0
   14.8904   -5.7944   22.8078 C   0  0  0  0  0  0  0  0  0  0  0  0
   13.8695   -6.3096   21.9643 O   0  0  0  0  0  0  0  0  0  0  0  0
   12.3429   -7.0447   17.4191 O   0  0  0  0  0  0  0  0  0  0  0  0
   10.9824   -7.3723   17.6664 C   0  0  0  0  0  0  0  0  0  0  0  0
   16.4756  -10.5013   12.9770 C   0  0  0  0  0  0  0  0  0  0  0  0
   16.8513  -10.0193   11.6160 C   0  0  0  0  0  0  0  0  0  0  0  0
   15.9313  -10.1185   10.5670 C   0  0  0  0  0  0  0  0  0  0  0  0
   16.2786   -9.6767    9.2866 C   0  0  0  0  0  0  0  0  0  0  0  0
   17.5476   -9.1377    9.0530 C   0  0  0  0  0  0  0  0  0  0  0  0
   17.9162   -8.6679    7.6923 C   0  0  0  0  0  0  0  0  0  0  0  0
   18.4706   -9.0424   10.0991 C   0  0  0  0  0  0  0  0  0  0  0  0
   18.1237   -9.4841   11.3797 C   0  0  0  0  0  0  0  0  0  0  0  0
 14 15  1  0  0  0
 15  8  1  0  0  0
  8  9  2  0  0  0
  9 10  1  0  0  0
 10 16  1  0  0  0
 10 11  2  0  0  0
 16 17  1  0  0  0
 11  7  1  0  0  0
 11 12  1  0  0  0
  7  1  1  0  0  0
  1  2  1  0  0  0
  2  3  1  0  0  0
  3  4  1  0  0  0
  4 18  1  0  0  0
  4  5  1  0  0  0
 18 19  1  0  0  0
 19 20  2  0  0  0
 20 21  1  0  0  0
 21 22  2  0  0  0
 22 23  1  0  0  0
 22 24  1  0  0  0
 24 25  2  0  0  0
 25 19  1  0  0  0
  5  6  1  0  0  0
  6  1  1  0  0  0
 12 13  2  0  0  0
 13  8  1  0  0  0
M  END
>  <minimizedAffinity>
-6.71956

>  <minimizedRMSD>
1.41835

$$$$
CHEMBL1594793


 37 39  0  0  0  0  0  0  0  0999 V2000
   17.5043   -9.9369   13.8027 C   0  0  0  0  0  0  0  0  0  0  0  0
   17.5729  -10.7860   14.8596 N   0  0  0  0  0  0  0  0  0  0  0  0
   17.1619  -10.4004   16.0950 C   0  0  0  0  0  0  0  0  0  0  0  0
   17.2456  -11.3192   17.1800 N   0  0  0  0  0  0  0  0  0  0  0  0
   16.6397   -9.1155   16.2910 C   0  0  0  0  0  0  0  0  0  0  0  0
   16.6192   -8.2390   15.1913 C   0  0  0  0  0  0  0  0  0  0  0  0
   16.2058   -6.9201   15.3324 O   0  0  0  0  0  0  0  0  0  0  0  0
   17.0422   -8.6721   13.9757 N   0  0  0  0  0  0  0  0  0  0  0  0
   17.6139  -12.2206   17.0344 H   0  0  0  0  0  0  0  0  0  0  0  0
   16.9353  -11.0530   18.0756 H   0  0  0  0  0  0  0  0  0  0  0  0
   15.9115   -6.6080   16.1655 H   0  0  0  0  0  0  0  0  0  0  0  0
   16.2145   -8.7143   17.6018 N   0  0  0  0  0  0  0  0  0  0  0  0
   15.0663   -7.9071   17.8933 C   0  0  0  0  0  0  0  0  0  0  0  0
   14.1828   -7.7201   17.0125 O   0  0  0  0  0  0  0  0  0  0  0  0
   16.7570   -9.0190   18.3648 H   0  0  0  0  0  0  0  0  0  0  0  0
   14.8918   -7.3378   19.2408 C   0  0  0  0  0  0  0  0  0  0  0  0
   15.9663   -7.2983   20.1370 C   0  0  0  0  0  0  0  0  0  0  0  0
   15.8009   -6.7573   21.4133 C   0  0  0  0  0  0  0  0  0  0  0  0
   14.5561   -6.2459   21.8140 C   0  0  0  0  0  0  0  0  0  0  0  0
   13.4737   -6.2808   20.9217 C   0  0  0  0  0  0  0  0  0  0  0  0
   13.6497   -6.8270   19.6396 C   0  0  0  0  0  0  0  0  0  0  0  0
   14.3729   -5.7003   23.0895 O   0  0  0  0  0  0  0  0  0  0  0  0
   14.7774   -6.3678   24.2771 C   0  0  0  0  0  0  0  0  0  0  0  0
   12.2363   -5.7693   21.3276 O   0  0  0  0  0  0  0  0  0  0  0  0
   11.3117   -5.1828   20.4216 C   0  0  0  0  0  0  0  0  0  0  0  0
   18.0472  -10.4757   12.1866 S   0  0  0  0  0  0  0  0  0  0  0  0
   16.3749  -10.3795   11.4734 C   0  0  0  0  0  0  0  0  0  0  0  0
   17.6643   -8.6055    8.2469 C   0  0  0  0  0  0  0  0  0  0  0  0
   18.9421   -7.7871    8.0367 C   0  0  0  0  0  0  0  0  0  0  0  0
   19.2744   -7.0192    9.3127 C   0  0  0  0  0  0  0  0  0  0  0  0
   19.5005   -7.9504   10.5136 C   0  0  0  0  0  0  0  0  0  0  0  0
   18.8918   -9.3454   10.3327 C   0  0  0  0  0  0  0  0  0  0  0  0
   17.6524   -9.2725    9.5577 N   0  0  0  0  0  0  0  0  0  0  0  0
   16.4204   -9.7678   10.1099 C   0  0  0  0  0  0  0  0  0  0  0  0
   15.3485   -9.6719    9.4541 O   0  0  0  0  0  0  0  0  0  0  0  0
   18.2219   -9.2128    5.8551 C   0  0  0  0  0  0  0  0  0  0  0  0
   17.4508   -9.6012    7.1071 C   0  0  0  0  0  0  0  0  0  0  0  0
 36 37  1  0  0  0
 28 37  1  0  0  0
 28 29  1  0  0  0
 29 30  1  0  0  0
 30 31  1  0  0  0
 31 32  1  0  0  0
 32 33  1  0  0  0
 33 34  1  0  0  0
 33 28  1  0  0  0
 34 35  2  0  0  0
 34 27  1  0  0  0
 27 26  1  0  0  0
 26  1  1  0  0  0
  1  2  2  0  0  0
  2  3  1  0  0  0
  3  4  1  0  0  0
  3  5  2  0  0  0
  5 12  1  0  0  0
  5  6  1  0  0  0
 12 13  1  0  0  0
 13 14  2  0  0  0
 13 16  1  0  0  0
 16 17  2  0  0  0
 17 18  1  0  0  0
 18 19  2  0  0  0
 19 22  1  0  0  0
 19 20  1  0  0  0
 22 23  1  0  0  0
 20 24  1  0  0  0
 20 21  2  0  0  0
 24 25  1  0  0  0
 21 16  1  0  0  0
  6  7  1  0  0  0
  6  8  2  0  0  0
  8  1  1  0  0  0
  4  9  1  0  0  0
  4 10  1  0  0  0
 12 15  1  0  0  0
  7 11  1  0  0  0
M  END
>  <minimizedAffinity>
-6.71614

>  <minimizedRMSD>
1.48612

$$$$
CHEMBL4170718 PubChem-145951984


 29 31  0  0  0  0  0  0  0  0999 V2000
   17.8758  -10.0621   15.8793 C   0  0  0  0  0  0  0  0  0  0  0  0
   17.7948   -9.7897   17.2427 C   0  0  0  0  0  0  0  0  0  0  0  0
   16.7664   -9.0468   17.7257 N   0  0  0  0  0  0  0  0  0  0  0  0
   15.8048   -8.5589   16.8963 C   0  0  0  0  0  0  0  0  0  0  0  0
   15.8735   -8.8185   15.5640 N   0  0  0  0  0  0  0  0  0  0  0  0
   16.8847   -9.5582   15.0321 C   0  0  0  0  0  0  0  0  0  0  0  0
   16.9100   -9.8098   13.5745 C   0  0  0  0  0  0  0  0  0  0  0  0
   15.7723   -9.1878   12.4945 S   0  0  0  0  0  0  0  0  0  0  0  0
   16.4887   -9.9022   11.1578 C   0  0  0  0  0  0  0  0  0  0  0  0
   17.5853  -10.6157   11.4940 N   0  0  0  0  0  0  0  0  0  0  0  0
   17.8275  -10.5704   12.8316 C   0  0  0  0  0  0  0  0  0  0  0  0
   18.9943  -11.2929   13.4117 C   0  0  0  0  0  0  0  0  0  0  0  0
   16.0079   -9.7762    9.8537 O   0  0  0  0  0  0  0  0  0  0  0  0
   16.8578   -9.8900    8.7200 C   0  0  0  0  0  0  0  0  0  0  0  0
   17.7502   -8.6680    8.6098 C   0  0  0  0  0  0  0  0  0  0  0  0
   18.0903   -8.4213    7.1557 C   0  0  0  0  0  0  0  0  0  0  0  0
   19.2650   -7.4704    7.0669 C   0  0  0  0  0  0  0  0  0  0  0  0
   14.7152   -7.7734   17.3984 N   0  0  0  0  0  0  0  0  0  0  0  0
   14.0714   -7.4457   16.7295 H   0  0  0  0  0  0  0  0  0  0  0  0
   14.4528   -7.4083   18.7629 C   0  0  0  0  0  0  0  0  0  0  0  0
   13.3093   -6.6471   19.0575 C   0  0  0  0  0  0  0  0  0  0  0  0
   13.0412   -6.2836   20.3875 C   0  0  0  0  0  0  0  0  0  0  0  0
   13.9021   -6.6719   21.4245 C   0  0  0  0  0  0  0  0  0  0  0  0
   15.0363   -7.4282   21.1242 C   0  0  0  0  0  0  0  0  0  0  0  0
   15.3096   -7.7934   19.8047 C   0  0  0  0  0  0  0  0  0  0  0  0
   13.6541   -6.3210   22.7543 O   0  0  0  0  0  0  0  0  0  0  0  0
   12.7131   -5.3216   23.1218 C   0  0  0  0  0  0  0  0  0  0  0  0
   12.4546   -6.2631   18.0178 O   0  0  0  0  0  0  0  0  0  0  0  0
   11.4688   -5.2500   18.1659 C   0  0  0  0  0  0  0  0  0  0  0  0
  1  2  2  0  0  0
  2  3  1  0  0  0
  3  4  2  0  0  0
  4  5  1  0  0  0
  5  6  2  0  0  0
  6  7  1  0  0  0
  7  8  1  0  0  0
  8  9  1  0  0  0
  9 10  2  0  0  0
 10 11  1  0  0  0
 11 12  1  0  0  0
  9 13  1  0  0  0
 13 14  1  0  0  0
 14 15  1  0  0  0
 15 16  1  0  0  0
 16 17  1  0  0  0
  4 18  1  0  0  0
 18 20  1  0  0  0
 20 21  2  0  0  0
 21 22  1  0  0  0
 22 23  2  0  0  0
 23 24  1  0  0  0
 24 25  2  0  0  0
 23 26  1  0  0  0
 26 27  1  0  0  0
 21 28  1  0  0  0
 28 29  1  0  0  0
  6  1  1  0  0  0
 11  7  2  0  0  0
 25 20  1  0  0  0
 18 19  1  0  0  0
M  END
>  <minimizedAffinity>
-6.71378

>  <minimizedRMSD>
1.33683

$$$$
CHEMBL1408861 2931038 MCULE-2292030828 MolPort-002-769-579 PubChem-4457834 ZINC000002931038 ZINC02931038


 31 34  0  0  0  0  0  0  0  0999 V2000
   16.9149   -9.2429   13.6586 C   0  0  0  0  0  0  0  0  0  0  0  0
   18.1188   -9.8083   13.2188 C   0  0  0  0  0  0  0  0  0  0  0  0
   18.4569   -9.7797   11.8632 C   0  0  0  0  0  0  0  0  0  0  0  0
   17.5952   -9.1853   10.9295 C   0  0  0  0  0  0  0  0  0  0  0  0
   16.3938   -8.6215   11.3704 C   0  0  0  0  0  0  0  0  0  0  0  0
   16.0542   -8.6492   12.7261 C   0  0  0  0  0  0  0  0  0  0  0  0
   15.7793   -8.7809   16.9591 C   0  0  0  0  0  0  0  0  0  0  0  0
   15.8353   -8.3094   15.6976 N   0  0  0  0  0  0  0  0  0  0  0  0
   16.5575   -9.2722   15.0854 C   0  0  0  0  0  0  0  0  0  0  0  0
   16.9146  -10.2629   15.9272 N   0  0  0  0  0  0  0  0  0  0  0  0
   16.4144   -9.9217   17.0752 O   0  0  0  0  0  0  0  0  0  0  0  0
   13.7788   -6.7992   20.1846 C   0  0  0  0  0  0  0  0  0  0  0  0
   15.0343   -7.3968   20.3832 C   0  0  0  0  0  0  0  0  0  0  0  0
   15.6855   -8.0426   19.3304 C   0  0  0  0  0  0  0  0  0  0  0  0
   15.0922   -8.1007   18.0654 C   0  0  0  0  0  0  0  0  0  0  0  0
   13.8411   -7.5062   17.8640 C   0  0  0  0  0  0  0  0  0  0  0  0
   13.1785   -6.8543   18.9171 C   0  0  0  0  0  0  0  0  0  0  0  0
   13.7395   -5.1747   22.0527 C   0  0  0  0  0  0  0  0  0  0  0  0
   13.1126   -6.1481   21.2285 O   0  0  0  0  0  0  0  0  0  0  0  0
   11.9278   -6.2568   18.7265 O   0  0  0  0  0  0  0  0  0  0  0  0
   10.7261   -7.0070   18.6132 C   0  0  0  0  0  0  0  0  0  0  0  0
   17.9072   -9.1365    9.5305 N   0  0  0  0  0  0  0  0  0  0  0  0
   18.6224   -8.0986    8.8424 C   0  0  0  0  0  0  0  0  0  0  0  0
   19.0526   -7.0918    9.4684 O   0  0  0  0  0  0  0  0  0  0  0  0
   17.5985   -9.8950    8.9840 H   0  0  0  0  0  0  0  0  0  0  0  0
   18.8557   -8.2112    7.3917 C   0  0  0  0  0  0  0  0  0  0  0  0
   19.9150   -7.5225    6.7866 C   0  0  0  0  0  0  0  0  0  0  0  0
   20.1187   -7.6427    5.4101 C   0  0  0  0  0  0  0  0  0  0  0  0
   19.2927   -8.4240    4.6641 N   0  0  0  0  0  0  0  0  0  0  0  0
   18.2572   -9.1032    5.2262 C   0  0  0  0  0  0  0  0  0  0  0  0
   18.0207   -9.0087    6.5993 C   0  0  0  0  0  0  0  0  0  0  0  0
 18 19  1  0  0  0
 19 12  1  0  0  0
 12 13  2  0  0  0
 13 14  1  0  0  0
 14 15  2  0  0  0
 15 16  1  0  0  0
 15  7  1  0  0  0
 16 17  2  0  0  0
 17 20  1  0  0  0
 17 12  1  0  0  0
 20 21  1  0  0  0
  7  8  2  0  0  0
  8  9  1  0  0  0
  9 10  2  0  0  0
  9  1  1  0  0  0
 10 11  1  0  0  0
 11  7  1  0  0  0
  1  2  2  0  0  0
  2  3  1  0  0  0
  3  4  2  0  0  0
  4  5  1  0  0  0
  4 22  1  0  0  0
  5  6  2  0  0  0
  6  1  1  0  0  0
 22 23  1  0  0  0
 23 24  2  0  0  0
 23 26  1  0  0  0
 26 27  2  0  0  0
 27 28  1  0  0  0
 28 29  2  0  0  0
 29 30  1  0  0  0
 30 31  2  0  0  0
 31 26  1  0  0  0
 22 25  1  0  0  0
M  END
>  <minimizedAffinity>
-6.71252

>  <minimizedRMSD>
1.95294

$$$$
CHEMBL3344421 PubChem-118717779


 35 38  0  0  0  0  0  0  0  0999 V2000
   16.8387   -9.2256   16.2322 O   0  0  0  0  0  0  0  0  0  0  0  0
   16.4125   -8.8918   17.4116 N   0  0  0  0  0  0  0  0  0  0  0  0
   15.2613   -8.2217   17.1964 C   0  0  0  0  0  0  0  0  0  0  0  0
   14.9646   -8.1264   15.8809 N   0  0  0  0  0  0  0  0  0  0  0  0
   16.0013   -8.7849   15.3285 C   0  0  0  0  0  0  0  0  0  0  0  0
   16.1669   -8.9786   13.9209 N   0  0  0  0  0  0  0  0  0  0  0  0
   17.4853   -8.8106   13.3143 C   0  0  0  0  0  0  0  0  0  0  0  0
   17.7081   -9.8912   12.2625 C   0  0  0  0  0  0  0  0  0  0  0  0
   16.5468   -9.9567   11.3785 N   0  0  0  0  0  0  0  0  0  0  0  0
   15.2414  -10.1710   11.9973 C   0  0  0  0  0  0  0  0  0  0  0  0
   14.9970   -9.0963   13.0524 C   0  0  0  0  0  0  0  0  0  0  0  0
   16.6560   -9.8093    9.9498 C   0  0  0  0  0  0  0  0  0  0  0  0
   15.6315   -9.9487    9.2297 O   0  0  0  0  0  0  0  0  0  0  0  0
   17.9544   -9.4871    9.2684 C   0  0  0  0  0  0  0  0  0  0  0  0
   17.8158   -9.4339    7.7577 C   0  0  0  0  0  0  0  0  0  0  0  0
   18.5575   -8.1901    7.2995 C   0  0  0  0  0  0  0  0  0  0  0  0
   19.2872   -7.6466    8.5126 C   0  0  0  0  0  0  0  0  0  0  0  0
   18.5208   -8.1555    9.7109 C   0  0  0  0  0  0  0  0  0  0  0  0
   14.4278   -7.6134   18.2597 C   0  0  0  0  0  0  0  0  0  0  0  0
   13.0519   -7.4847   18.0175 C   0  0  0  0  0  0  0  0  0  0  0  0
   12.2031   -6.9073   18.9628 C   0  0  0  0  0  0  0  0  0  0  0  0
   12.7162   -6.4456   20.1778 C   0  0  0  0  0  0  0  0  0  0  0  0
   14.0876   -6.5788   20.4364 C   0  0  0  0  0  0  0  0  0  0  0  0
   14.9464   -7.1540   19.4952 C   0  0  0  0  0  0  0  0  0  0  0  0
   16.6395   -7.2928   19.9477 Cl  0  0  0  0  0  0  0  0  0  0  0  0
   10.8790   -6.7966   18.6935 F   0  0  0  0  0  0  0  0  0  0  0  0
   11.8486   -5.8672   21.1128 O   0  0  0  0  0  0  0  0  0  0  0  0
   12.1915   -5.6718   22.4820 C   0  0  0  0  0  0  0  0  0  0  0  0
   12.2718   -4.1901   22.8083 C   0  0  0  0  0  0  0  0  0  0  0  0
   11.3954   -3.8876   23.9274 N   0  0  0  0  0  0  0  0  0  0  0  0
   11.6846   -4.4294   24.7418 H   0  0  0  0  0  0  0  0  0  0  0  0
   10.4352   -4.1287   23.6821 H   0  0  0  0  0  0  0  0  0  0  0  0
   13.7021   -3.8321   23.1649 C   0  0  0  0  0  0  0  0  0  0  0  0
   13.7207   -3.0367   24.3110 O   0  0  0  0  0  0  0  0  0  0  0  0
   13.2209   -2.2217   24.1472 H   0  0  0  0  0  0  0  0  0  0  0  0
  1  2  1  0  0  0
  2  3  2  0  0  0
  3  4  1  0  0  0
  4  5  2  0  0  0
  5  6  1  0  0  0
  6  7  1  0  0  0
  7  8  1  0  0  0
  8  9  1  0  0  0
  9 10  1  0  0  0
 10 11  1  0  0  0
  9 12  1  0  0  0
 12 13  2  0  0  0
 12 14  1  0  0  0
 14 15  1  0  0  0
 15 16  1  0  0  0
 16 17  1  0  0  0
 17 18  1  0  0  0
  3 19  1  0  0  0
 19 20  2  0  0  0
 20 21  1  0  0  0
 21 22  2  0  0  0
 22 23  1  0  0  0
 23 24  2  0  0  0
 24 25  1  0  0  0
 22 27  1  0  0  0
 27 28  1  0  0  0
 29 28  1  0  0  0
 29 33  1  0  0  0
 33 34  1  0  0  0
 29 30  1  0  0  0
 21 26  1  0  0  0
  5  1  1  0  0  0
 11  6  1  0  0  0
 18 14  1  0  0  0
 24 19  1  0  0  0
 34 35  1  0  0  0
 30 31  1  0  0  0
 30 32  1  0  0  0
M  END
>  <minimizedAffinity>
-6.69304

>  <minimizedRMSD>
1.77071

$$$$
CHEMBL4539367 PubChem-135334960


 30 33  0  0  0  0  0  0  0  0999 V2000
   16.8783   -9.0403   13.9226 C   0  0  0  0  0  0  0  0  0  0  0  0
   16.0934   -8.1014   14.6223 C   0  0  0  0  0  0  0  0  0  0  0  0
   15.9115   -8.2978   15.9883 C   0  0  0  0  0  0  0  0  0  0  0  0
   15.1985   -7.5084   16.8093 N   0  0  0  0  0  0  0  0  0  0  0  0
   15.3289   -8.1192   18.0142 C   0  0  0  0  0  0  0  0  0  0  0  0
   16.1158   -9.2654   17.9068 C   0  0  0  0  0  0  0  0  0  0  0  0
   16.4643   -9.3450   16.6155 N   0  0  0  0  0  0  0  0  0  0  0  0
   17.2258  -10.2755   15.9914 C   0  0  0  0  0  0  0  0  0  0  0  0
   17.4445  -10.1302   14.6139 C   0  0  0  0  0  0  0  0  0  0  0  0
   14.7143   -7.6274   19.2705 C   0  0  0  0  0  0  0  0  0  0  0  0
   15.5541   -7.2742   20.3372 C   0  0  0  0  0  0  0  0  0  0  0  0
   15.0319   -6.8053   21.5434 C   0  0  0  0  0  0  0  0  0  0  0  0
   13.6472   -6.6798   21.7067 C   0  0  0  0  0  0  0  0  0  0  0  0
   12.7997   -7.0303   20.6465 C   0  0  0  0  0  0  0  0  0  0  0  0
   13.3154   -7.5032   19.4286 C   0  0  0  0  0  0  0  0  0  0  0  0
   16.1344   -6.3798   22.8401 Cl  0  0  0  0  0  0  0  0  0  0  0  0
   12.4520   -7.8480   18.3816 O   0  0  0  0  0  0  0  0  0  0  0  0
   11.1376   -8.3455   18.5946 C   0  0  0  0  0  0  0  0  0  0  0  0
   13.1341   -6.2086   22.9202 O   0  0  0  0  0  0  0  0  0  0  0  0
   12.0324   -5.3139   22.9941 C   0  0  0  0  0  0  0  0  0  0  0  0
   16.3344   -9.4878   11.4541 C   0  0  0  0  0  0  0  0  0  0  0  0
   15.2998  -10.1614   11.7065 O   0  0  0  0  0  0  0  0  0  0  0  0
   17.1209   -8.9223   12.5144 N   0  0  0  0  0  0  0  0  0  0  0  0
   17.9099   -8.3982   12.2460 H   0  0  0  0  0  0  0  0  0  0  0  0
   18.7673   -8.2117    9.5577 C   0  0  0  0  0  0  0  0  0  0  0  0
   18.1579   -9.5051    9.8185 N   0  0  0  0  0  0  0  0  0  0  0  0
   18.2915  -10.2933    8.5967 C   0  0  0  0  0  0  0  0  0  0  0  0
   16.9182  -10.4792    7.9881 C   0  0  0  0  0  0  0  0  0  0  0  0
   15.9682  -10.2157    9.1194 C   0  0  0  0  0  0  0  0  0  0  0  0
   16.7297   -9.2733   10.0233 C   0  0  0  0  0  0  0  0  0  0  0  0
 25 26  1  0  0  0
 26 27  1  0  0  0
 27 28  1  0  0  0
 28 29  1  0  0  0
 29 30  1  0  0  0
 30 21  1  0  0  0
 21 22  2  0  0  0
 21 23  1  0  0  0
 23  1  1  0  0  0
  1  2  2  0  0  0
  2  3  1  0  0  0
  3  4  2  0  0  0
  4  5  1  0  0  0
  5  6  2  0  0  0
  6  7  1  0  0  0
  7  8  1  0  0  0
  8  9  2  0  0  0
  5 10  1  0  0  0
 10 11  2  0  0  0
 11 12  1  0  0  0
 12 13  2  0  0  0
 13 14  1  0  0  0
 14 15  2  0  0  0
 15 17  1  0  0  0
 17 18  1  0  0  0
 13 19  1  0  0  0
 19 20  1  0  0  0
 12 16  1  0  0  0
 30 26  1  0  0  0
  9  1  1  0  0  0
  7  3  1  0  0  0
 15 10  1  0  0  0
 23 24  1  0  0  0
M  END
>  <minimizedAffinity>
-6.66920

>  <minimizedRMSD>
1.18994

$$$$
CHEMBL3103117 PubChem-76321019


 32 35  0  0  0  0  0  0  0  0999 V2000
   15.6037   -8.4126   16.5284 C   0  0  0  0  0  0  0  0  0  0  0  0
   14.7973   -7.9685   15.6678 O   0  0  0  0  0  0  0  0  0  0  0  0
   12.5176   -6.6085   20.4495 C   0  0  0  0  0  0  0  0  0  0  0  0
   13.8806   -6.6832   20.7948 C   0  0  0  0  0  0  0  0  0  0  0  0
   14.7871   -7.1383   19.8442 C   0  0  0  0  0  0  0  0  0  0  0  0
   16.1149   -7.2726   20.0041 N   0  0  0  0  0  0  0  0  0  0  0  0
   16.5712   -7.7461   18.8177 C   0  0  0  0  0  0  0  0  0  0  0  0
   15.5201   -7.9031   17.9156 C   0  0  0  0  0  0  0  0  0  0  0  0
   14.3876   -7.5113   18.5951 C   0  0  0  0  0  0  0  0  0  0  0  0
   13.0538   -7.4563   18.2042 C   0  0  0  0  0  0  0  0  0  0  0  0
   12.0964   -6.9994   19.1383 C   0  0  0  0  0  0  0  0  0  0  0  0
   16.6432   -7.0706   20.8099 H   0  0  0  0  0  0  0  0  0  0  0  0
   11.1765   -4.8049   21.5509 C   0  0  0  0  0  0  0  0  0  0  0  0
   11.6396   -6.1429   21.4398 O   0  0  0  0  0  0  0  0  0  0  0  0
   10.7459   -6.9325   18.7771 O   0  0  0  0  0  0  0  0  0  0  0  0
   10.1138   -7.9078   17.9585 C   0  0  0  0  0  0  0  0  0  0  0  0
   16.6245   -9.4114   16.1246 C   0  0  0  0  0  0  0  0  0  0  0  0
   17.0565  -10.2280   16.9837 O   0  0  0  0  0  0  0  0  0  0  0  0
   17.1527   -9.4592   14.7857 N   0  0  0  0  0  0  0  0  0  0  0  0
   16.4431   -8.8272   13.6664 C   0  0  0  0  0  0  0  0  0  0  0  0
   17.1674   -9.0520   12.3407 C   0  0  0  0  0  0  0  0  0  0  0  0
   17.4960  -10.5376   12.1599 C   0  0  0  0  0  0  0  0  0  0  0  0
   18.1820  -11.1850   13.3756 C   0  0  0  0  0  0  0  0  0  0  0  0
   18.3849  -10.2076   14.5331 C   0  0  0  0  0  0  0  0  0  0  0  0
   18.2579  -10.8040   10.8600 C   0  0  0  0  0  0  0  0  0  0  0  0
   18.3141   -9.6197    9.9435 C   0  0  0  0  0  0  0  0  0  0  0  0
   17.3882   -9.5142    8.8998 C   0  0  0  0  0  0  0  0  0  0  0  0
   17.4378   -8.4250    8.0246 C   0  0  0  0  0  0  0  0  0  0  0  0
   18.4177   -7.4412    8.1875 C   0  0  0  0  0  0  0  0  0  0  0  0
   18.4652   -6.3858    7.3400 F   0  0  0  0  0  0  0  0  0  0  0  0
   19.3515   -7.5490    9.2222 C   0  0  0  0  0  0  0  0  0  0  0  0
   19.3021   -8.6382   10.0973 C   0  0  0  0  0  0  0  0  0  0  0  0
 13 14  1  0  0  0
 14  3  1  0  0  0
  3  4  2  0  0  0
  4  5  1  0  0  0
  5  6  1  0  0  0
  6  7  1  0  0  0
  7  8  2  0  0  0
  8  1  1  0  0  0
  8  9  1  0  0  0
  1  2  2  0  0  0
  1 17  1  0  0  0
 17 18  2  0  0  0
 17 19  1  0  0  0
 19 20  1  0  0  0
 20 21  1  0  0  0
 21 22  1  0  0  0
 22 25  1  0  0  0
 22 23  1  0  0  0
 25 26  1  0  0  0
 26 27  2  0  0  0
 27 28  1  0  0  0
 28 29  2  0  0  0
 29 30  1  0  0  0
 29 31  1  0  0  0
 31 32  2  0  0  0
 32 26  1  0  0  0
 23 24  1  0  0  0
 24 19  1  0  0  0
  9 10  1  0  0  0
  9  5  2  0  0  0
 10 11  2  0  0  0
 11 15  1  0  0  0
 11  3  1  0  0  0
 15 16  1  0  0  0
  6 12  1  0  0  0
M  END
>  <minimizedAffinity>
-6.66743

>  <minimizedRMSD>
1.61054

$$$$
CHEMBL1517157 3275551 CSC026027879 MCULE-2117915952 MolPort-003-999-720 PubChem-2391252 Z18507374 ZINC000003275551 ZINC03275551


 30 31  0  0  0  0  0  0  0  0999 V2000
   15.3992   -8.0258   17.2806 C   0  0  0  0  0  0  0  0  0  0  0  0
   14.2958   -7.6427   16.8070 O   0  0  0  0  0  0  0  0  0  0  0  0
   15.7426   -7.6982   18.6944 C   0  0  0  0  0  0  0  0  0  0  0  0
   14.7120   -8.2741   19.6579 C   0  0  0  0  0  0  0  0  0  0  0  0
   12.5654   -5.3029   20.6502 C   0  0  0  0  0  0  0  0  0  0  0  0
   13.1555   -6.3326   19.9003 C   0  0  0  0  0  0  0  0  0  0  0  0
   14.0796   -7.2005   20.4792 C   0  0  0  0  0  0  0  0  0  0  0  0
   14.4308   -7.0437   21.8183 C   0  0  0  0  0  0  0  0  0  0  0  0
   13.8557   -6.0244   22.5912 C   0  0  0  0  0  0  0  0  0  0  0  0
   12.9192   -5.1471   22.0157 C   0  0  0  0  0  0  0  0  0  0  0  0
   11.3067   -4.5044   18.6680 C   0  0  0  0  0  0  0  0  0  0  0  0
   11.6400   -4.4419   20.0487 O   0  0  0  0  0  0  0  0  0  0  0  0
   14.2011   -5.8621   23.9379 O   0  0  0  0  0  0  0  0  0  0  0  0
   15.0945   -6.7356   24.6152 C   0  0  0  0  0  0  0  0  0  0  0  0
   12.3797   -4.1477   22.8432 O   0  0  0  0  0  0  0  0  0  0  0  0
   11.1018   -4.2012   23.4609 C   0  0  0  0  0  0  0  0  0  0  0  0
   16.3009   -8.7537   16.4996 O   0  0  0  0  0  0  0  0  0  0  0  0
   15.8783   -9.7144   15.5388 C   0  0  0  0  0  0  0  0  0  0  0  0
   16.1807   -9.2369   14.1602 C   0  0  0  0  0  0  0  0  0  0  0  0
   16.2167   -7.9994   13.9302 O   0  0  0  0  0  0  0  0  0  0  0  0
   16.4393  -10.1952   13.1260 N   0  0  0  0  0  0  0  0  0  0  0  0
   16.3903  -11.1442   13.3834 H   0  0  0  0  0  0  0  0  0  0  0  0
   16.7622   -9.9183   11.7545 C   0  0  0  0  0  0  0  0  0  0  0  0
   18.0706   -9.5942   11.3618 C   0  0  0  0  0  0  0  0  0  0  0  0
   18.3653   -9.3285   10.0223 C   0  0  0  0  0  0  0  0  0  0  0  0
   17.3539   -9.3845    9.0616 C   0  0  0  0  0  0  0  0  0  0  0  0
   17.6657   -9.1023    7.6365 C   0  0  0  0  0  0  0  0  0  0  0  0
   16.0489   -9.7062    9.4407 C   0  0  0  0  0  0  0  0  0  0  0  0
   15.7495   -9.9729   10.7806 C   0  0  0  0  0  0  0  0  0  0  0  0
   13.9469  -10.4099   11.2464 Br  0  0  0  0  0  0  0  0  0  0  0  0
 11 12  1  0  0  0
 12  5  1  0  0  0
  5  6  2  0  0  0
  6  7  1  0  0  0
  7  4  1  0  0  0
  7  8  2  0  0  0
  4  3  1  0  0  0
  3  1  1  0  0  0
  1  2  2  0  0  0
  1 17  1  0  0  0
 17 18  1  0  0  0
 18 19  1  0  0  0
 19 20  2  0  0  0
 19 21  1  0  0  0
 21 23  1  0  0  0
 23 24  2  0  0  0
 24 25  1  0  0  0
 25 26  2  0  0  0
 26 27  1  0  0  0
 26 28  1  0  0  0
 28 29  2  0  0  0
 29 30  1  0  0  0
 29 23  1  0  0  0
  8  9  1  0  0  0
  9 13  1  0  0  0
  9 10  2  0  0  0
 13 14  1  0  0  0
 10 15  1  0  0  0
 10  5  1  0  0  0
 15 16  1  0  0  0
 21 22  1  0  0  0
M  END
>  <minimizedAffinity>
-6.66577

>  <minimizedRMSD>
1.89422

$$$$
CHEMBL4800161 PubChem-162676580


 30 32  0  0  0  0  0  0  0  0999 V2000
   17.8472   -9.4746   10.0355 N   0  0  0  0  0  0  0  0  0  0  0  0
   16.7736  -10.4693   10.0672 C   0  0  0  0  0  0  0  0  0  0  0  0
   15.8413  -10.1988   11.2467 C   0  0  0  0  0  0  0  0  0  0  0  0
   16.5961   -9.9321   12.4757 N   0  0  0  0  0  0  0  0  0  0  0  0
   18.0586   -9.9405   12.4609 C   0  0  0  0  0  0  0  0  0  0  0  0
   18.5736   -9.1382   11.2672 C   0  0  0  0  0  0  0  0  0  0  0  0
   15.8969   -9.7100   13.7078 C   0  0  0  0  0  0  0  0  0  0  0  0
   14.6357   -9.7243   13.7315 O   0  0  0  0  0  0  0  0  0  0  0  0
   16.6250   -9.4692   14.9134 N   0  0  0  0  0  0  0  0  0  0  0  0
   17.6092   -9.4586   14.8910 H   0  0  0  0  0  0  0  0  0  0  0  0
   19.0514   -7.7439    8.7478 C   0  0  0  0  0  0  0  0  0  0  0  0
   18.2207   -8.8746    8.7828 C   0  0  0  0  0  0  0  0  0  0  0  0
   17.7645   -9.4006    7.6097 N   0  0  0  0  0  0  0  0  0  0  0  0
   18.0909   -8.8639    6.4032 C   0  0  0  0  0  0  0  0  0  0  0  0
   18.9156   -7.7401    6.3369 C   0  0  0  0  0  0  0  0  0  0  0  0
   19.3972   -7.1791    7.5195 C   0  0  0  0  0  0  0  0  0  0  0  0
   15.9615   -9.2483   16.1255 N   0  0  0  0  0  0  0  0  0  0  0  0
   15.4915   -8.0761   16.4010 C   0  0  0  0  0  0  0  0  0  0  0  0
   14.7911   -7.8098   17.6615 C   0  0  0  0  0  0  0  0  0  0  0  0
   15.5051   -7.8530   18.8569 C   0  0  0  0  0  0  0  0  0  0  0  0
   14.8745   -7.6044   20.0869 C   0  0  0  0  0  0  0  0  0  0  0  0
   13.4878   -7.3045   20.1092 C   0  0  0  0  0  0  0  0  0  0  0  0
   12.7712   -7.2620   18.9006 C   0  0  0  0  0  0  0  0  0  0  0  0
   13.4264   -7.5143   17.6867 C   0  0  0  0  0  0  0  0  0  0  0  0
   11.4037   -6.9655   18.9307 O   0  0  0  0  0  0  0  0  0  0  0  0
   10.4247   -7.7774   18.2961 C   0  0  0  0  0  0  0  0  0  0  0  0
   12.7738   -7.0424   21.2909 O   0  0  0  0  0  0  0  0  0  0  0  0
   12.6943   -5.7781   21.9332 C   0  0  0  0  0  0  0  0  0  0  0  0
   15.6138   -7.6538   21.2745 O   0  0  0  0  0  0  0  0  0  0  0  0
   16.4032   -6.5679   21.7423 C   0  0  0  0  0  0  0  0  0  0  0  0
 11 12  2  0  0  0
 12 13  1  0  0  0
 13 14  2  0  0  0
 14 15  1  0  0  0
 15 16  2  0  0  0
 12  1  1  0  0  0
  1  2  1  0  0  0
  2  3  1  0  0  0
  3  4  1  0  0  0
  4  5  1  0  0  0
  5  6  1  0  0  0
  4  7  1  0  0  0
  7  8  2  0  0  0
  7  9  1  0  0  0
  9 17  1  0  0  0
 17 18  2  0  0  0
 18 19  1  0  0  0
 19 20  2  0  0  0
 20 21  1  0  0  0
 21 22  2  0  0  0
 22 23  1  0  0  0
 23 24  2  0  0  0
 23 25  1  0  0  0
 25 26  1  0  0  0
 22 27  1  0  0  0
 27 28  1  0  0  0
 21 29  1  0  0  0
 29 30  1  0  0  0
 16 11  1  0  0  0
  6  1  1  0  0  0
 24 19  1  0  0  0
  9 10  1  0  0  0
M  END
>  <minimizedAffinity>
-6.66216

>  <minimizedRMSD>
1.65683

$$$$
CHEMBL1644535 CHEMBL1739052 PubChem-53321404 PubChem-53321405


 27 28  0  0  0  0  0  0  0  0999 V2000
   15.9656   -8.4424   15.3659 N   0  0  0  0  0  0  0  0  0  0  0  0
   16.0496   -7.5042   14.9748 H   0  0  0  0  0  0  0  0  0  0  0  0
   17.1992   -9.1872   15.0966 C   0  0  0  0  0  0  0  0  0  0  0  0
   17.8839   -9.6282   16.3810 C   0  0  0  0  0  0  0  0  0  0  0  0
   16.9697  -10.3695   14.1638 C   0  0  0  0  0  0  0  0  0  0  0  0
   16.1439   -9.9736   13.0773 O   0  0  0  0  0  0  0  0  0  0  0  0
   16.5547   -9.8391   11.7378 C   0  0  0  0  0  0  0  0  0  0  0  0
   17.9028   -9.6299   11.3343 C   0  0  0  0  0  0  0  0  0  0  0  0
   19.0414   -9.5263   12.2898 C   0  0  0  0  0  0  0  0  0  0  0  0
   18.2110   -9.5078    9.9760 C   0  0  0  0  0  0  0  0  0  0  0  0
   17.2107   -9.5885    9.0093 C   0  0  0  0  0  0  0  0  0  0  0  0
   17.6162   -9.4335    7.3142 Cl  0  0  0  0  0  0  0  0  0  0  0  0
   15.8876   -9.7920    9.3939 C   0  0  0  0  0  0  0  0  0  0  0  0
   15.5583   -9.9164   10.7451 C   0  0  0  0  0  0  0  0  0  0  0  0
   14.1302  -10.1326   11.1124 C   0  0  0  0  0  0  0  0  0  0  0  0
   15.7215   -8.3418   16.8034 C   0  0  0  0  0  0  0  0  0  0  0  0
   14.3792   -7.6757   17.0597 C   0  0  0  0  0  0  0  0  0  0  0  0
   12.9232   -6.3371   20.3017 C   0  0  0  0  0  0  0  0  0  0  0  0
   13.0808   -6.6588   18.9434 C   0  0  0  0  0  0  0  0  0  0  0  0
   14.2111   -7.3574   18.5072 C   0  0  0  0  0  0  0  0  0  0  0  0
   15.1954   -7.7321   19.4267 C   0  0  0  0  0  0  0  0  0  0  0  0
   15.0453   -7.4162   20.7794 C   0  0  0  0  0  0  0  0  0  0  0  0
   13.9135   -6.7218   21.2177 C   0  0  0  0  0  0  0  0  0  0  0  0
   13.7780   -6.4148   22.5658 O   0  0  0  0  0  0  0  0  0  0  0  0
   14.4419   -6.6737   23.1742 H   0  0  0  0  0  0  0  0  0  0  0  0
   10.9033   -4.9690   19.8835 C   0  0  0  0  0  0  0  0  0  0  0  0
   11.7996   -5.6403   20.7586 O   0  0  0  0  0  0  0  0  0  0  0  0
 26 27  1  0  0  0
 27 18  1  0  0  0
 18 19  2  0  0  0
 19 20  1  0  0  0
 20 17  1  0  0  0
 20 21  2  0  0  0
 17 16  1  0  0  0
 16  1  1  0  0  0
  3  1  1  0  0  0
  3  4  1  0  0  0
  3  5  1  0  0  0
  5  6  1  0  0  0
  6  7  1  0  0  0
  7  8  2  0  0  0
  8  9  1  0  0  0
  8 10  1  0  0  0
 10 11  2  0  0  0
 11 12  1  0  0  0
 11 13  1  0  0  0
 13 14  2  0  0  0
 14 15  1  0  0  0
 14  7  1  0  0  0
 21 22  1  0  0  0
 22 23  2  0  0  0
 23 24  1  0  0  0
 23 18  1  0  0  0
  1  2  1  0  0  0
 24 25  1  0  0  0
M  END
>  <minimizedAffinity>
-6.65916

>  <minimizedRMSD>
1.96455

$$$$
CHEMBL4551654 PubChem-135335502


 29 32  0  0  0  0  0  0  0  0999 V2000
   17.0817   -9.8837   13.7854 C   0  0  0  0  0  0  0  0  0  0  0  0
   16.1760   -8.9308   14.2975 C   0  0  0  0  0  0  0  0  0  0  0  0
   16.0694   -8.8085   15.6799 C   0  0  0  0  0  0  0  0  0  0  0  0
   15.2618   -7.9571   16.3347 N   0  0  0  0  0  0  0  0  0  0  0  0
   15.5258   -8.2235   17.6390 C   0  0  0  0  0  0  0  0  0  0  0  0
   16.4855   -9.2283   17.7556 C   0  0  0  0  0  0  0  0  0  0  0  0
   16.8039   -9.5716   16.5003 N   0  0  0  0  0  0  0  0  0  0  0  0
   17.6881  -10.5016   16.0672 C   0  0  0  0  0  0  0  0  0  0  0  0
   17.8398  -10.6710   14.6840 C   0  0  0  0  0  0  0  0  0  0  0  0
   18.5894   -8.6682    7.6686 C   0  0  0  0  0  0  0  0  0  0  0  0
   17.3010   -8.9963    8.3447 C   0  0  0  0  0  0  0  0  0  0  0  0
   16.2742   -9.1781    7.6376 O   0  0  0  0  0  0  0  0  0  0  0  0
   17.2250   -9.1144    9.7731 N   0  0  0  0  0  0  0  0  0  0  0  0
   15.9364   -9.3509   10.4230 C   0  0  0  0  0  0  0  0  0  0  0  0
   16.0973  -10.4039   11.5145 C   0  0  0  0  0  0  0  0  0  0  0  0
   17.2340  -10.0523   12.3638 N   0  0  0  0  0  0  0  0  0  0  0  0
   18.5254   -9.8509   11.7091 C   0  0  0  0  0  0  0  0  0  0  0  0
   18.3808   -8.7994   10.6129 C   0  0  0  0  0  0  0  0  0  0  0  0
   14.8769   -7.5344   18.7799 C   0  0  0  0  0  0  0  0  0  0  0  0
   15.6125   -7.3465   19.9595 C   0  0  0  0  0  0  0  0  0  0  0  0
   15.0536   -6.7046   21.0654 C   0  0  0  0  0  0  0  0  0  0  0  0
   13.7362   -6.2345   21.0118 C   0  0  0  0  0  0  0  0  0  0  0  0
   12.9927   -6.4176   19.8374 C   0  0  0  0  0  0  0  0  0  0  0  0
   13.5462   -7.0622   18.7190 C   0  0  0  0  0  0  0  0  0  0  0  0
   16.0252   -6.5001   22.5118 Cl  0  0  0  0  0  0  0  0  0  0  0  0
   12.7869   -7.2352   17.5552 O   0  0  0  0  0  0  0  0  0  0  0  0
   11.3723   -7.3728   17.5678 C   0  0  0  0  0  0  0  0  0  0  0  0
   13.1853   -5.5923   22.1263 O   0  0  0  0  0  0  0  0  0  0  0  0
   11.8248   -5.1860   22.1857 C   0  0  0  0  0  0  0  0  0  0  0  0
 10 11  1  0  0  0
 11 12  2  0  0  0
 11 13  1  0  0  0
 13 14  1  0  0  0
 14 15  1  0  0  0
 15 16  1  0  0  0
 16 17  1  0  0  0
 17 18  1  0  0  0
 16  1  1  0  0  0
  1  2  2  0  0  0
  2  3  1  0  0  0
  3  4  2  0  0  0
  4  5  1  0  0  0
  5  6  2  0  0  0
  6  7  1  0  0  0
  7  8  1  0  0  0
  8  9  2  0  0  0
  5 19  1  0  0  0
 19 20  2  0  0  0
 20 21  1  0  0  0
 21 22  2  0  0  0
 22 23  1  0  0  0
 23 24  2  0  0  0
 24 26  1  0  0  0
 26 27  1  0  0  0
 22 28  1  0  0  0
 28 29  1  0  0  0
 21 25  1  0  0  0
 18 13  1  0  0  0
  9  1  1  0  0  0
  7  3  1  0  0  0
 24 19  1  0  0  0
M  END
>  <minimizedAffinity>
-6.65718

>  <minimizedRMSD>
1.29865

$$$$
CHEMBL3787382


 38 42  0  0  0  0  0  0  0  0999 V2000
   17.0057   -9.2572   17.1292 N   0  0  0  0  0  0  0  0  0  0  0  0
   15.9453   -8.4309   17.6261 C   0  0  0  0  0  0  0  0  0  0  0  0
   15.1307   -7.8847   16.8343 O   0  0  0  0  0  0  0  0  0  0  0  0
   15.8295   -8.2386   19.0416 N   0  0  0  0  0  0  0  0  0  0  0  0
   17.6064   -9.6535   17.8011 H   0  0  0  0  0  0  0  0  0  0  0  0
   16.4968   -8.6944   19.6038 H   0  0  0  0  0  0  0  0  0  0  0  0
   17.0924   -9.0754   13.3550 C   0  0  0  0  0  0  0  0  0  0  0  0
   16.8093   -8.7560   14.6954 C   0  0  0  0  0  0  0  0  0  0  0  0
   17.2849   -9.5682   15.7573 C   0  0  0  0  0  0  0  0  0  0  0  0
   18.0534  -10.7139   15.4712 C   0  0  0  0  0  0  0  0  0  0  0  0
   18.3168  -11.0037   14.1356 C   0  0  0  0  0  0  0  0  0  0  0  0
   17.8549  -10.2165   13.1211 C   0  0  0  0  0  0  0  0  0  0  0  0
   18.3143  -10.8198   11.9709 C   0  0  0  0  0  0  0  0  0  0  0  0
   19.0193  -11.9217   12.3176 N   0  0  0  0  0  0  0  0  0  0  0  0
   19.0223  -12.0365   13.6433 N   0  0  0  0  0  0  0  0  0  0  0  0
   19.4601  -12.7463   14.1665 H   0  0  0  0  0  0  0  0  0  0  0  0
   18.1090  -10.3921   10.5828 C   0  0  0  0  0  0  0  0  0  0  0  0
   18.5160   -9.2354   10.1693 N   0  0  0  0  0  0  0  0  0  0  0  0
   18.3239   -8.8047    8.8215 C   0  0  0  0  0  0  0  0  0  0  0  0
   17.5256   -9.4302    7.9320 N   0  0  0  0  0  0  0  0  0  0  0  0
   17.5313   -8.8031    6.7242 C   0  0  0  0  0  0  0  0  0  0  0  0
   18.3385   -7.6672    6.6419 C   0  0  0  0  0  0  0  0  0  0  0  0
   19.0611   -7.4620    8.1512 S   0  0  0  0  0  0  0  0  0  0  0  0
   14.8442   -7.4523   19.7258 C   0  0  0  0  0  0  0  0  0  0  0  0
   13.8286   -6.7715   19.0395 C   0  0  0  0  0  0  0  0  0  0  0  0
   12.8859   -6.0157   19.7409 C   0  0  0  0  0  0  0  0  0  0  0  0
   12.9368   -5.9318   21.1406 C   0  0  0  0  0  0  0  0  0  0  0  0
   13.9623   -6.6059   21.8215 C   0  0  0  0  0  0  0  0  0  0  0  0
   14.9052   -7.3617   21.1194 C   0  0  0  0  0  0  0  0  0  0  0  0
   11.9580   -5.1120   21.8982 C   0  0  0  0  0  0  0  0  0  0  0  0
   12.3060   -4.6942   23.0839 N   0  0  0  0  0  0  0  0  0  0  0  0
   11.5180   -3.8188   23.8490 N   0  0  0  0  0  0  0  0  0  0  0  0
   10.2132   -3.4519   23.4161 C   0  0  0  0  0  0  0  0  0  0  0  0
    9.5523   -2.5890   24.0493 O   0  0  0  0  0  0  0  0  0  0  0  0
    9.6107   -4.1659   22.2600 C   0  0  0  0  0  0  0  0  0  0  0  0
   10.6761   -4.5934   21.2483 C   0  0  0  0  0  0  0  0  0  0  0  0
   10.0343   -5.6306   20.3411 C   0  0  0  0  0  0  0  0  0  0  0  0
   11.8717   -3.4556   24.6929 H   0  0  0  0  0  0  0  0  0  0  0  0
  7  8  2  0  0  0
  8  9  1  0  0  0
  9 10  2  0  0  0
 10 11  1  0  0  0
 11 12  2  0  0  0
 12 13  1  0  0  0
 13 14  2  0  0  0
 14 15  1  0  0  0
 13 17  1  0  0  0
 17 18  2  0  0  0
 18 19  1  0  0  0
 19 20  2  0  0  0
 20 21  1  0  0  0
 21 22  2  0  0  0
 22 23  1  0  0  0
  9  1  1  0  0  0
  1  2  1  0  0  0
  2  3  2  0  0  0
  2  4  1  0  0  0
  4 24  1  0  0  0
 24 25  2  0  0  0
 25 26  1  0  0  0
 26 27  2  0  0  0
 27 28  1  0  0  0
 28 29  2  0  0  0
 27 30  1  0  0  0
 30 31  2  0  0  0
 31 32  1  0  0  0
 32 33  1  0  0  0
 33 34  2  0  0  0
 33 35  1  0  0  0
 35 36  1  0  0  0
 36 37  1  0  0  0
 12  7  1  0  0  0
 23 19  1  0  0  0
 29 24  1  0  0  0
 36 30  1  0  0  0
 15 11  1  0  0  0
 15 16  1  0  0  0
  1  5  1  0  0  0
  4  6  1  0  0  0
 32 38  1  0  0  0
M  END
>  <minimizedAffinity>
-6.64291

>  <minimizedRMSD>
0.88187

$$$$
CHEMBL4549809 PubChem-135335594


 31 34  0  0  0  0  0  0  0  0999 V2000
   16.6227   -9.2302   13.2553 C   0  0  0  0  0  0  0  0  0  0  0  0
   15.8642   -8.3165   14.0171 C   0  0  0  0  0  0  0  0  0  0  0  0
   15.8666   -8.4608   15.4015 C   0  0  0  0  0  0  0  0  0  0  0  0
   15.2039   -7.6838   16.2749 N   0  0  0  0  0  0  0  0  0  0  0  0
   15.5256   -8.2270   17.4765 C   0  0  0  0  0  0  0  0  0  0  0  0
   16.3752   -9.3209   17.3147 C   0  0  0  0  0  0  0  0  0  0  0  0
   16.5673   -9.4372   15.9938 N   0  0  0  0  0  0  0  0  0  0  0  0
   17.3125  -10.3420   15.3154 C   0  0  0  0  0  0  0  0  0  0  0  0
   17.3495  -10.2478   13.9172 C   0  0  0  0  0  0  0  0  0  0  0  0
   15.0356   -7.7197   18.7803 C   0  0  0  0  0  0  0  0  0  0  0  0
   15.9718   -7.4225   19.7818 C   0  0  0  0  0  0  0  0  0  0  0  0
   15.5686   -6.9420   21.0283 C   0  0  0  0  0  0  0  0  0  0  0  0
   14.2089   -6.7480   21.2990 C   0  0  0  0  0  0  0  0  0  0  0  0
   13.2656   -7.0421   20.3047 C   0  0  0  0  0  0  0  0  0  0  0  0
   13.6612   -7.5262   19.0469 C   0  0  0  0  0  0  0  0  0  0  0  0
   16.7878   -6.5887   22.2394 Cl  0  0  0  0  0  0  0  0  0  0  0  0
   12.7033   -7.8140   18.0669 O   0  0  0  0  0  0  0  0  0  0  0  0
   11.3494   -8.1188   18.3744 C   0  0  0  0  0  0  0  0  0  0  0  0
   13.8153   -6.2658   22.5523 O   0  0  0  0  0  0  0  0  0  0  0  0
   12.5845   -5.5877   22.7639 C   0  0  0  0  0  0  0  0  0  0  0  0
   17.0004  -10.2531    9.2187 C   0  0  0  0  0  0  0  0  0  0  0  0
   18.2064   -9.9346   10.1136 C   0  0  0  0  0  0  0  0  0  0  0  0
   17.8931   -8.8190   11.1084 C   0  0  0  0  0  0  0  0  0  0  0  0
   16.6556   -9.1291   11.8198 N   0  0  0  0  0  0  0  0  0  0  0  0
   15.4560   -9.3467   11.0152 C   0  0  0  0  0  0  0  0  0  0  0  0
   15.7057  -10.4729   10.0137 C   0  0  0  0  0  0  0  0  0  0  0  0
   16.8447   -9.3062    8.0254 C   0  0  0  0  0  0  0  0  0  0  0  0
   18.0688   -9.2697    7.1203 C   0  0  0  0  0  0  0  0  0  0  0  0
   19.3471   -7.9503    5.6790 C   0  0  0  0  0  0  0  0  0  0  0  0
   18.3717   -7.8974    6.7540 N   0  0  0  0  0  0  0  0  0  0  0  0
   19.0457   -7.3033    7.8935 C   0  0  0  0  0  0  0  0  0  0  0  0
 29 30  1  0  0  0
 30 31  1  0  0  0
 30 28  1  0  0  0
 28 27  1  0  0  0
 27 21  1  0  0  0
 21 22  1  0  0  0
 22 23  1  0  0  0
 23 24  1  0  0  0
 24 25  1  0  0  0
 25 26  1  0  0  0
 24  1  1  0  0  0
  1  2  2  0  0  0
  2  3  1  0  0  0
  3  4  2  0  0  0
  4  5  1  0  0  0
  5  6  2  0  0  0
  6  7  1  0  0  0
  7  8  1  0  0  0
  8  9  2  0  0  0
  5 10  1  0  0  0
 10 11  2  0  0  0
 11 12  1  0  0  0
 12 13  2  0  0  0
 13 14  1  0  0  0
 14 15  2  0  0  0
 15 17  1  0  0  0
 17 18  1  0  0  0
 13 19  1  0  0  0
 19 20  1  0  0  0
 12 16  1  0  0  0
 26 21  1  0  0  0
  9  1  1  0  0  0
  7  3  1  0  0  0
 15 10  1  0  0  0
M  END
>  <minimizedAffinity>
-6.63242

>  <minimizedRMSD>
1.49556

$$$$
CHEMBL1859681 PubChem-56658954


 28 30  0  0  0  0  0  0  0  0999 V2000
   15.4947   -8.1664   17.5801 C   0  0  0  0  0  0  0  0  0  0  0  0
   15.3013   -7.8312   16.2889 N   0  0  0  0  0  0  0  0  0  0  0  0
   16.0837   -8.7109   15.6387 C   0  0  0  0  0  0  0  0  0  0  0  0
   16.7344   -9.5381   16.5287 C   0  0  0  0  0  0  0  0  0  0  0  0
   16.3351   -9.1670   17.7220 O   0  0  0  0  0  0  0  0  0  0  0  0
   14.8618   -6.8026   21.0415 C   0  0  0  0  0  0  0  0  0  0  0  0
   15.4594   -7.4453   19.9547 C   0  0  0  0  0  0  0  0  0  0  0  0
   14.8413   -7.4850   18.7067 C   0  0  0  0  0  0  0  0  0  0  0  0
   13.6016   -6.8710   18.5399 C   0  0  0  0  0  0  0  0  0  0  0  0
   12.9675   -6.2151   19.6053 C   0  0  0  0  0  0  0  0  0  0  0  0
   13.5977   -6.1736   20.8784 C   0  0  0  0  0  0  0  0  0  0  0  0
   15.2254   -7.5908   23.3952 C   0  0  0  0  0  0  0  0  0  0  0  0
   15.5754   -6.8263   22.2505 O   0  0  0  0  0  0  0  0  0  0  0  0
   11.7227   -5.6068   19.4030 O   0  0  0  0  0  0  0  0  0  0  0  0
   11.5040   -4.5869   18.4368 C   0  0  0  0  0  0  0  0  0  0  0  0
   13.0156   -5.5300   21.9845 O   0  0  0  0  0  0  0  0  0  0  0  0
   11.8366   -5.9480   22.6577 C   0  0  0  0  0  0  0  0  0  0  0  0
   16.2597   -8.7295   14.1589 C   0  0  0  0  0  0  0  0  0  0  0  0
   17.4568   -9.4788   13.8079 N   0  0  0  0  0  0  0  0  0  0  0  0
   17.7335  -10.0764   14.5868 H   0  0  0  0  0  0  0  0  0  0  0  0
   17.1420  -10.2951   12.6438 C   0  0  0  0  0  0  0  0  0  0  0  0
   17.0881   -9.4369   11.3908 C   0  0  0  0  0  0  0  0  0  0  0  0
   18.4480   -9.4180   10.7032 C   0  0  0  0  0  0  0  0  0  0  0  0
   18.4026   -8.7472    9.4068 N   0  0  0  0  0  0  0  0  0  0  0  0
   17.6346   -9.0422    8.3419 C   0  0  0  0  0  0  0  0  0  0  0  0
   17.9480   -8.1363    7.3479 C   0  0  0  0  0  0  0  0  0  0  0  0
   18.9001   -7.2955    7.8040 N   0  0  0  0  0  0  0  0  0  0  0  0
   19.1585   -7.6931    9.0646 C   0  0  0  0  0  0  0  0  0  0  0  0
 12 13  1  0  0  0
 13  6  1  0  0  0
  6  7  2  0  0  0
  7  8  1  0  0  0
  8  1  1  0  0  0
  8  9  2  0  0  0
  1  2  2  0  0  0
  2  3  1  0  0  0
  3 18  1  0  0  0
  3  4  2  0  0  0
 18 19  1  0  0  0
 19 21  1  0  0  0
 21 22  1  0  0  0
 22 23  1  0  0  0
 23 24  1  0  0  0
 24 25  1  0  0  0
 25 26  2  0  0  0
 26 27  1  0  0  0
 27 28  2  0  0  0
 28 24  1  0  0  0
  4  5  1  0  0  0
  5  1  1  0  0  0
  9 10  1  0  0  0
 10 14  1  0  0  0
 10 11  2  0  0  0
 14 15  1  0  0  0
 11 16  1  0  0  0
 11  6  1  0  0  0
 16 17  1  0  0  0
 19 20  1  0  0  0
M  END
>  <minimizedAffinity>
-6.61153

>  <minimizedRMSD>
1.23160

$$$$
CHEMBL3806155 PubChem-102004312


 35 38  0  0  0  0  0  0  0  0999 V2000
   16.2949   -8.7844   16.6396 N   0  0  0  0  0  0  0  0  0  0  0  0
   15.3103   -8.0026   17.3269 C   0  0  0  0  0  0  0  0  0  0  0  0
   14.4316   -7.3664   16.6850 O   0  0  0  0  0  0  0  0  0  0  0  0
   15.3449   -7.9580   18.7589 N   0  0  0  0  0  0  0  0  0  0  0  0
   16.9525   -9.2556   17.2007 H   0  0  0  0  0  0  0  0  0  0  0  0
   16.0578   -8.4749   19.1991 H   0  0  0  0  0  0  0  0  0  0  0  0
   15.5977   -8.6257   12.9730 N   0  0  0  0  0  0  0  0  0  0  0  0
   15.4578   -8.4546   14.3185 C   0  0  0  0  0  0  0  0  0  0  0  0
   16.4246   -8.9540   15.2188 C   0  0  0  0  0  0  0  0  0  0  0  0
   17.5387   -9.6358   14.6899 C   0  0  0  0  0  0  0  0  0  0  0  0
   17.6158   -9.7699   13.3377 N   0  0  0  0  0  0  0  0  0  0  0  0
   16.6847   -9.2861   12.5094 C   0  0  0  0  0  0  0  0  0  0  0  0
   17.0001   -9.5560   11.1949 C   0  0  0  0  0  0  0  0  0  0  0  0
   18.2060  -10.2440   11.3428 C   0  0  0  0  0  0  0  0  0  0  0  0
   18.5649  -10.3654   12.6411 N   0  0  0  0  0  0  0  0  0  0  0  0
   19.1561  -10.8816   10.0185 Cl  0  0  0  0  0  0  0  0  0  0  0  0
   18.6023  -10.1865   15.5980 C   0  0  0  0  0  0  0  0  0  0  0  0
   19.7774   -9.2290   15.6861 C   0  0  0  0  0  0  0  0  0  0  0  0
   19.0341  -11.4352   15.1449 O   0  0  0  0  0  0  0  0  0  0  0  0
   18.1187  -12.3451   15.6763 C   0  0  0  0  0  0  0  0  0  0  0  0
   14.4491   -7.2389   19.6173 C   0  0  0  0  0  0  0  0  0  0  0  0
   14.8070   -7.0264   20.9448 C   0  0  0  0  0  0  0  0  0  0  0  0
   13.9798   -6.3419   21.7757 N   0  0  0  0  0  0  0  0  0  0  0  0
   12.7820   -5.8338   21.3693 C   0  0  0  0  0  0  0  0  0  0  0  0
   12.3575   -6.0547   20.0302 C   0  0  0  0  0  0  0  0  0  0  0  0
   13.2190   -6.7509   19.1716 C   0  0  0  0  0  0  0  0  0  0  0  0
   11.9982   -5.1039   22.3299 N   0  0  0  0  0  0  0  0  0  0  0  0
   11.5746   -3.8611   22.1816 N   0  0  0  0  0  0  0  0  0  0  0  0
   10.9506   -3.5222   23.3253 C   0  0  0  0  0  0  0  0  0  0  0  0
   11.0303   -4.6111   24.1767 C   0  0  0  0  0  0  0  0  0  0  0  0
   11.7003   -5.5807   23.5260 N   0  0  0  0  0  0  0  0  0  0  0  0
   11.0243   -5.5967   19.4867 C   0  0  0  0  0  0  0  0  0  0  0  0
   10.6732   -6.3251   18.3615 F   0  0  0  0  0  0  0  0  0  0  0  0
   10.0337   -5.7772   20.4354 F   0  0  0  0  0  0  0  0  0  0  0  0
   11.0968   -4.2623   19.1322 F   0  0  0  0  0  0  0  0  0  0  0  0
  7  8  2  0  0  0
  8  9  1  0  0  0
  9 10  2  0  0  0
 10 11  1  0  0  0
 11 12  1  0  0  0
 12 13  2  0  0  0
 13 14  1  0  0  0
 14 15  2  0  0  0
 14 16  1  0  0  0
 10 17  1  0  0  0
 17 18  1  0  0  0
 17 19  1  0  0  0
 19 20  1  0  0  0
  9  1  1  0  0  0
  1  2  1  0  0  0
  2  3  2  0  0  0
  2  4  1  0  0  0
  4 21  1  0  0  0
 21 22  2  0  0  0
 22 23  1  0  0  0
 23 24  2  0  0  0
 24 25  1  0  0  0
 25 26  2  0  0  0
 25 32  1  0  0  0
 32 33  1  0  0  0
 32 34  1  0  0  0
 32 35  1  0  0  0
 24 27  1  0  0  0
 27 28  1  0  0  0
 28 29  2  0  0  0
 29 30  1  0  0  0
 30 31  2  0  0  0
 12  7  1  0  0  0
 26 21  1  0  0  0
 31 27  1  0  0  0
 15 11  1  0  0  0
  1  5  1  0  0  0
  4  6  1  0  0  0
M  END
>  <minimizedAffinity>
-6.61059

>  <minimizedRMSD>
1.82681

$$$$
CHEMBL184418 PubChem-44394972 ZINC000028383443


 36 37  0  0  0  0  0  0  0  0999 V2000
   13.7502   -6.4088   21.0813 C   0  0  0  0  0  0  0  0  0  0  0  0
   15.1168   -6.6779   21.2506 C   0  0  0  0  0  0  0  0  0  0  0  0
   15.8573   -7.2967   20.2429 C   0  0  0  0  0  0  0  0  0  0  0  0
   15.2480   -7.6606   19.0423 C   0  0  0  0  0  0  0  0  0  0  0  0
   13.8849   -7.3974   18.8614 C   0  0  0  0  0  0  0  0  0  0  0  0
   13.1250   -6.7751   19.8661 C   0  0  0  0  0  0  0  0  0  0  0  0
   16.0411   -8.2947   18.0292 N   0  0  0  0  0  0  0  0  0  0  0  0
   15.6973   -8.4623   16.6479 C   0  0  0  0  0  0  0  0  0  0  0  0
   14.5991   -8.0333   16.2020 O   0  0  0  0  0  0  0  0  0  0  0  0
   16.6274   -9.1273   15.7838 N   0  0  0  0  0  0  0  0  0  0  0  0
   16.9134   -8.6525   18.3125 H   0  0  0  0  0  0  0  0  0  0  0  0
   17.4662   -9.4376   16.1955 H   0  0  0  0  0  0  0  0  0  0  0  0
   16.4658   -9.3887   14.3828 C   0  0  0  0  0  0  0  0  0  0  0  0
   15.2136   -9.6766   13.8199 C   0  0  0  0  0  0  0  0  0  0  0  0
   15.0953   -9.9260   12.4506 C   0  0  0  0  0  0  0  0  0  0  0  0
   16.2283   -9.8891   11.6348 C   0  0  0  0  0  0  0  0  0  0  0  0
   17.4878   -9.6021   12.1851 C   0  0  0  0  0  0  0  0  0  0  0  0
   17.5952   -9.3539   13.5576 C   0  0  0  0  0  0  0  0  0  0  0  0
   18.6458   -9.5564   11.3983 O   0  0  0  0  0  0  0  0  0  0  0  0
   18.7118   -8.9578   10.1058 C   0  0  0  0  0  0  0  0  0  0  0  0
   17.7573   -7.9627    9.9943 F   0  0  0  0  0  0  0  0  0  0  0  0
   19.9637   -8.4007    9.9301 F   0  0  0  0  0  0  0  0  0  0  0  0
   18.5042   -9.9145    9.1284 F   0  0  0  0  0  0  0  0  0  0  0  0
   13.7239   -5.3423   23.3642 N   0  0  0  0  0  0  0  0  0  0  0  0
   13.0174   -5.7496   22.1887 C   0  0  0  0  0  0  0  0  0  0  0  0
   11.7756   -5.5444   22.1076 O   0  0  0  0  0  0  0  0  0  0  0  0
   14.6933   -5.5053   23.4184 H   0  0  0  0  0  0  0  0  0  0  0  0
   13.0555   -4.6955   24.4804 C   0  0  0  0  0  0  0  0  0  0  0  0
   13.3249   -5.4852   25.7625 C   0  0  0  0  0  0  0  0  0  0  0  0
   13.4264   -4.6417   26.9605 N   0  0  0  0  0  0  0  0  0  0  0  0
   11.6278   -4.6837   28.6037 C   0  0  0  0  0  0  0  0  0  0  0  0
   12.1170   -4.0917   27.2959 C   0  0  0  0  0  0  0  0  0  0  0  0
   14.3389   -3.5351   26.7007 C   0  0  0  0  0  0  0  0  0  0  0  0
   15.2081   -3.2874   27.9185 C   0  0  0  0  0  0  0  0  0  0  0  0
   11.7625   -6.5206   19.6656 O   0  0  0  0  0  0  0  0  0  0  0  0
   11.0704   -6.9014   18.4839 C   0  0  0  0  0  0  0  0  0  0  0  0
 31 32  1  0  0  0
 32 30  1  0  0  0
 30 33  1  0  0  0
 30 29  1  0  0  0
 33 34  1  0  0  0
 29 28  1  0  0  0
 28 24  1  0  0  0
 24 25  1  0  0  0
 25 26  2  0  0  0
 25  1  1  0  0  0
  1  2  2  0  0  0
  2  3  1  0  0  0
  3  4  2  0  0  0
  4  7  1  0  0  0
  4  5  1  0  0  0
  7  8  1  0  0  0
  8  9  2  0  0  0
  8 10  1  0  0  0
 10 13  1  0  0  0
 13 14  2  0  0  0
 14 15  1  0  0  0
 15 16  2  0  0  0
 16 17  1  0  0  0
 17 19  1  0  0  0
 17 18  2  0  0  0
 19 20  1  0  0  0
 20 21  1  0  0  0
 20 22  1  0  0  0
 20 23  1  0  0  0
 18 13  1  0  0  0
  5  6  2  0  0  0
  6 35  1  0  0  0
  6  1  1  0  0  0
 35 36  1  0  0  0
 24 27  1  0  0  0
  7 11  1  0  0  0
 10 12  1  0  0  0
M  END
>  <minimizedAffinity>
-6.60110

>  <minimizedRMSD>
1.97180

$$$$
CHEMBL5085871


 30 31  0  0  0  0  0  0  0  0999 V2000
   17.6795   -9.9315   13.6385 N   0  0  0  0  0  0  0  0  0  0  0  0
   16.3583   -9.7291   14.1429 C   0  0  0  0  0  0  0  0  0  0  0  0
   15.3580   -9.9297   13.4022 O   0  0  0  0  0  0  0  0  0  0  0  0
   18.4475   -9.7699   14.2329 H   0  0  0  0  0  0  0  0  0  0  0  0
   16.1645   -9.2862   15.5277 C   0  0  0  0  0  0  0  0  0  0  0  0
   14.9723   -8.2287   16.0616 S   0  0  0  0  0  0  0  0  0  0  0  0
   15.4774   -8.2931   17.6707 C   0  0  0  0  0  0  0  0  0  0  0  0
   16.5470   -9.1151   17.7977 N   0  0  0  0  0  0  0  0  0  0  0  0
   16.9353   -9.6698   16.6177 C   0  0  0  0  0  0  0  0  0  0  0  0
   14.8779   -7.5763   18.8245 C   0  0  0  0  0  0  0  0  0  0  0  0
   13.5801   -7.0084   18.8039 C   0  0  0  0  0  0  0  0  0  0  0  0
   13.0998   -6.3483   19.9479 C   0  0  0  0  0  0  0  0  0  0  0  0
   13.8820   -6.2430   21.1056 C   0  0  0  0  0  0  0  0  0  0  0  0
   15.1579   -6.8037   21.1195 C   0  0  0  0  0  0  0  0  0  0  0  0
   15.6485   -7.4620   19.9919 C   0  0  0  0  0  0  0  0  0  0  0  0
   13.4160   -5.5893   22.2495 O   0  0  0  0  0  0  0  0  0  0  0  0
   12.0352   -5.4988   22.5730 C   0  0  0  0  0  0  0  0  0  0  0  0
   12.7786   -7.0996   17.6603 O   0  0  0  0  0  0  0  0  0  0  0  0
   11.3772   -7.3321   17.7122 C   0  0  0  0  0  0  0  0  0  0  0  0
   17.9240  -10.3686   12.2747 C   0  0  0  0  0  0  0  0  0  0  0  0
   17.5051   -9.2747   11.3114 C   0  0  0  0  0  0  0  0  0  0  0  0
   18.5317   -9.1255   10.1991 C   0  0  0  0  0  0  0  0  0  0  0  0
   17.9729   -8.3203    9.0317 C   0  0  0  0  0  0  0  0  0  0  0  0
   19.0748   -7.5421    8.3173 C   0  0  0  0  0  0  0  0  0  0  0  0
   19.1073   -7.7808    6.8372 C   0  0  0  0  0  0  0  0  0  0  0  0
   18.4315   -8.7064    6.3101 O   0  0  0  0  0  0  0  0  0  0  0  0
   19.9141   -6.9363    6.0203 N   0  0  0  0  0  0  0  0  0  0  0  0
   19.9710   -7.1147    4.6798 O   0  0  0  0  0  0  0  0  0  0  0  0
   20.4370   -6.2135    6.4366 H   0  0  0  0  0  0  0  0  0  0  0  0
   19.4044   -7.8609    4.4286 H   0  0  0  0  0  0  0  0  0  0  0  0
 21 22  1  0  0  0
 22 23  1  0  0  0
 23 24  1  0  0  0
 24 25  1  0  0  0
 25 26  2  0  0  0
 25 27  1  0  0  0
 27 28  1  0  0  0
 21 20  1  0  0  0
 20  1  1  0  0  0
  1  2  1  0  0  0
  2  3  2  0  0  0
  2  5  1  0  0  0
  5  6  1  0  0  0
  6  7  1  0  0  0
  7  8  2  0  0  0
  8  9  1  0  0  0
  7 10  1  0  0  0
 10 11  2  0  0  0
 11 12  1  0  0  0
 12 13  2  0  0  0
 13 14  1  0  0  0
 14 15  2  0  0  0
 13 16  1  0  0  0
 16 17  1  0  0  0
 11 18  1  0  0  0
 18 19  1  0  0  0
  9  5  2  0  0  0
 15 10  1  0  0  0
 27 29  1  0  0  0
 28 30  1  0  0  0
  1  4  1  0  0  0
M  END
>  <minimizedAffinity>
-6.58295

>  <minimizedRMSD>
1.77216

$$$$
CHEMBL5208977


 40 43  0  0  0  0  0  0  0  0999 V2000
   17.6695  -10.1850   12.8893 C   0  0  0  0  0  0  0  0  0  0  0  0
   18.5898  -11.0093   13.4617 N   0  0  0  0  0  0  0  0  0  0  0  0
   18.7688  -11.0459   14.8091 C   0  0  0  0  0  0  0  0  0  0  0  0
   18.0230  -10.2505   15.6195 N   0  0  0  0  0  0  0  0  0  0  0  0
   17.0912   -9.4102   15.0976 C   0  0  0  0  0  0  0  0  0  0  0  0
   16.8922   -9.3586   13.7083 C   0  0  0  0  0  0  0  0  0  0  0  0
   15.9597   -8.5174   13.1877 N   0  0  0  0  0  0  0  0  0  0  0  0
   15.2136   -7.7216   13.9981 C   0  0  0  0  0  0  0  0  0  0  0  0
   15.3919   -7.7577   15.3456 N   0  0  0  0  0  0  0  0  0  0  0  0
   16.3131   -8.5832   15.9139 C   0  0  0  0  0  0  0  0  0  0  0  0
   16.4822   -8.6032   17.3322 N   0  0  0  0  0  0  0  0  0  0  0  0
   17.1405   -9.2160   17.7326 H   0  0  0  0  0  0  0  0  0  0  0  0
   15.7277   -7.7664   18.1618 N   0  0  0  0  0  0  0  0  0  0  0  0
   15.3928   -8.1607   19.3462 C   0  0  0  0  0  0  0  0  0  0  0  0
   14.6027   -7.3085   20.2405 C   0  0  0  0  0  0  0  0  0  0  0  0
   14.8758   -7.3229   21.6097 C   0  0  0  0  0  0  0  0  0  0  0  0
   14.1389   -6.5195   22.4942 C   0  0  0  0  0  0  0  0  0  0  0  0
   13.1197   -5.6966   21.9926 C   0  0  0  0  0  0  0  0  0  0  0  0
   12.8373   -5.6746   20.6189 C   0  0  0  0  0  0  0  0  0  0  0  0
   13.5837   -6.4840   19.7485 C   0  0  0  0  0  0  0  0  0  0  0  0
   12.3852   -4.8978   22.8622 O   0  0  0  0  0  0  0  0  0  0  0  0
   12.5716   -4.9103   23.7804 H   0  0  0  0  0  0  0  0  0  0  0  0
   11.8160   -4.8455   20.1426 O   0  0  0  0  0  0  0  0  0  0  0  0
   10.4865   -5.3037   19.9371 C   0  0  0  0  0  0  0  0  0  0  0  0
   14.4013   -6.5236   23.8685 O   0  0  0  0  0  0  0  0  0  0  0  0
   15.4885   -7.2369   24.4419 C   0  0  0  0  0  0  0  0  0  0  0  0
   17.4864  -10.1519   11.4650 N   0  0  0  0  0  0  0  0  0  0  0  0
   16.8037  -10.7599   11.0995 H   0  0  0  0  0  0  0  0  0  0  0  0
   18.1833   -9.3351   10.5137 C   0  0  0  0  0  0  0  0  0  0  0  0
   19.3480   -8.6287   10.8486 C   0  0  0  0  0  0  0  0  0  0  0  0
   19.9987   -7.8446    9.8931 C   0  0  0  0  0  0  0  0  0  0  0  0
   19.4885   -7.7605    8.5958 C   0  0  0  0  0  0  0  0  0  0  0  0
   18.3224   -8.4603    8.2481 C   0  0  0  0  0  0  0  0  0  0  0  0
   17.6798   -9.2448    9.2115 C   0  0  0  0  0  0  0  0  0  0  0  0
   17.7866   -8.3998    6.9577 O   0  0  0  0  0  0  0  0  0  0  0  0
   18.4759   -8.8780    5.8074 C   0  0  0  0  0  0  0  0  0  0  0  0
   18.9741   -7.7124    4.9653 C   0  0  0  0  0  0  0  0  0  0  0  0
   20.4419   -7.4239    5.2309 C   0  0  0  0  0  0  0  0  0  0  0  0
   21.1554   -7.4399    4.0321 O   0  0  0  0  0  0  0  0  0  0  0  0
   21.0745   -8.3140    3.6194 H   0  0  0  0  0  0  0  0  0  0  0  0
  1  2  2  0  0  0
  2  3  1  0  0  0
  3  4  2  0  0  0
  4  5  1  0  0  0
  5  6  2  0  0  0
  6  7  1  0  0  0
  7  8  2  0  0  0
  8  9  1  0  0  0
  9 10  2  0  0  0
 10 11  1  0  0  0
 11 13  1  0  0  0
 13 14  2  0  0  0
 14 15  1  0  0  0
 15 16  2  0  0  0
 16 17  1  0  0  0
 17 18  2  0  0  0
 18 19  1  0  0  0
 19 20  2  0  0  0
 19 23  1  0  0  0
 23 24  1  0  0  0
 18 21  1  0  0  0
 17 25  1  0  0  0
 25 26  1  0  0  0
  1 27  1  0  0  0
 27 29  1  0  0  0
 29 30  2  0  0  0
 30 31  1  0  0  0
 31 32  2  0  0  0
 32 33  1  0  0  0
 33 34  2  0  0  0
 33 35  1  0  0  0
 35 36  1  0  0  0
 36 37  1  0  0  0
 37 38  1  0  0  0
 38 39  1  0  0  0
  6  1  1  0  0  0
 20 15  1  0  0  0
 34 29  1  0  0  0
 10  5  1  0  0  0
 11 12  1  0  0  0
 21 22  1  0  0  0
 27 28  1  0  0  0
 39 40  1  0  0  0
M  END
>  <minimizedAffinity>
-6.58279

>  <minimizedRMSD>
1.91236

$$$$
CHEMBL3344435 PubChem-118717793


 33 36  0  0  0  0  0  0  0  0999 V2000
   16.8988   -9.4976   16.1284 N   0  0  0  0  0  0  0  0  0  0  0  0
   16.4440   -9.1336   17.2882 O   0  0  0  0  0  0  0  0  0  0  0  0
   15.3997   -8.3539   17.1368 C   0  0  0  0  0  0  0  0  0  0  0  0
   15.1143   -8.1663   15.8314 N   0  0  0  0  0  0  0  0  0  0  0  0
   16.0804   -8.9001   15.2417 C   0  0  0  0  0  0  0  0  0  0  0  0
   16.2140   -9.0385   13.8229 N   0  0  0  0  0  0  0  0  0  0  0  0
   17.5068   -8.8101   13.1801 C   0  0  0  0  0  0  0  0  0  0  0  0
   17.7455   -9.8752   12.1149 C   0  0  0  0  0  0  0  0  0  0  0  0
   16.5617   -9.9845   11.2663 N   0  0  0  0  0  0  0  0  0  0  0  0
   15.2786  -10.2447   11.9128 C   0  0  0  0  0  0  0  0  0  0  0  0
   15.0262   -9.1874   12.9838 C   0  0  0  0  0  0  0  0  0  0  0  0
   16.6446   -9.8110    9.8442 C   0  0  0  0  0  0  0  0  0  0  0  0
   15.6029   -9.8996    9.1370 O   0  0  0  0  0  0  0  0  0  0  0  0
   17.9606   -9.5177    9.1889 C   0  0  0  0  0  0  0  0  0  0  0  0
   18.4960   -8.1686    9.6212 C   0  0  0  0  0  0  0  0  0  0  0  0
   19.2158   -7.6245    8.4103 C   0  0  0  0  0  0  0  0  0  0  0  0
   18.4644   -8.1753    7.2176 C   0  0  0  0  0  0  0  0  0  0  0  0
   17.8279   -9.4748    7.6758 C   0  0  0  0  0  0  0  0  0  0  0  0
   14.6210   -7.7490   18.2404 C   0  0  0  0  0  0  0  0  0  0  0  0
   13.2308   -7.6450   18.0868 C   0  0  0  0  0  0  0  0  0  0  0  0
   12.4352   -7.0850   19.0877 C   0  0  0  0  0  0  0  0  0  0  0  0
   13.0188   -6.6145   20.2675 C   0  0  0  0  0  0  0  0  0  0  0  0
   14.4073   -6.7150   20.4325 C   0  0  0  0  0  0  0  0  0  0  0  0
   15.2119   -7.2745   19.4354 C   0  0  0  0  0  0  0  0  0  0  0  0
   16.9398   -7.3468   19.7508 Cl  0  0  0  0  0  0  0  0  0  0  0  0
   11.0945   -6.9989   18.9067 F   0  0  0  0  0  0  0  0  0  0  0  0
   12.2030   -6.0567   21.2594 O   0  0  0  0  0  0  0  0  0  0  0  0
   12.5216   -6.0943   22.6478 C   0  0  0  0  0  0  0  0  0  0  0  0
   13.8009   -5.3176   22.9319 C   0  0  0  0  0  0  0  0  0  0  0  0
   13.5678   -3.8467   22.8482 C   0  0  0  0  0  0  0  0  0  0  0  0
   13.6323   -3.2532   21.7398 O   0  0  0  0  0  0  0  0  0  0  0  0
   13.3015   -3.1248   24.0034 O   0  0  0  0  0  0  0  0  0  0  0  0
   13.2530   -3.5641   24.8296 H   0  0  0  0  0  0  0  0  0  0  0  0
  1  2  1  0  0  0
  2  3  1  0  0  0
  3  4  2  0  0  0
  4  5  1  0  0  0
  5  6  1  0  0  0
  6  7  1  0  0  0
  7  8  1  0  0  0
  8  9  1  0  0  0
  9 10  1  0  0  0
 10 11  1  0  0  0
  9 12  1  0  0  0
 12 13  2  0  0  0
 12 14  1  0  0  0
 14 15  1  0  0  0
 15 16  1  0  0  0
 16 17  1  0  0  0
 17 18  1  0  0  0
  3 19  1  0  0  0
 19 20  2  0  0  0
 20 21  1  0  0  0
 21 22  2  0  0  0
 22 23  1  0  0  0
 23 24  2  0  0  0
 24 25  1  0  0  0
 22 27  1  0  0  0
 27 28  1  0  0  0
 28 29  1  0  0  0
 29 30  1  0  0  0
 30 31  2  0  0  0
 30 32  1  0  0  0
 21 26  1  0  0  0
  5  1  2  0  0  0
 11  6  1  0  0  0
 18 14  1  0  0  0
 24 19  1  0  0  0
 32 33  1  0  0  0
M  END
>  <minimizedAffinity>
-6.58060

>  <minimizedRMSD>
1.50167

$$$$
CHEMBL3752023 PubChem-127036384


 31 35  0  0  0  0  0  0  0  0999 V2000
   16.6883   -9.3787   15.5984 C   0  0  0  0  0  0  0  0  0  0  0  0
   16.7251  -10.0439   16.8407 C   0  0  0  0  0  0  0  0  0  0  0  0
   16.0686   -9.4932   17.9363 C   0  0  0  0  0  0  0  0  0  0  0  0
   15.3763   -8.2774   17.7835 C   0  0  0  0  0  0  0  0  0  0  0  0
   15.3683   -7.6533   16.5170 C   0  0  0  0  0  0  0  0  0  0  0  0
   16.0173   -8.2082   15.4549 N   0  0  0  0  0  0  0  0  0  0  0  0
   17.4125  -11.2140   16.8899 N   0  0  0  0  0  0  0  0  0  0  0  0
   17.9854  -11.4150   15.3366 S   0  0  0  0  0  0  0  0  0  0  0  0
   17.3836  -10.0410   14.5934 C   0  0  0  0  0  0  0  0  0  0  0  0
   14.6669   -7.6637   18.9310 C   0  0  0  0  0  0  0  0  0  0  0  0
   13.5040   -6.9051   18.7285 C   0  0  0  0  0  0  0  0  0  0  0  0
   12.8236   -6.3190   19.8082 C   0  0  0  0  0  0  0  0  0  0  0  0
   13.3125   -6.4932   21.1113 C   0  0  0  0  0  0  0  0  0  0  0  0
   14.4754   -7.2512   21.3184 C   0  0  0  0  0  0  0  0  0  0  0  0
   15.1449   -7.8300   20.2389 C   0  0  0  0  0  0  0  0  0  0  0  0
   12.6292   -5.9062   22.1819 O   0  0  0  0  0  0  0  0  0  0  0  0
   13.2878   -5.1733   23.2060 C   0  0  0  0  0  0  0  0  0  0  0  0
   11.6638   -5.5622   19.6087 O   0  0  0  0  0  0  0  0  0  0  0  0
   11.5178   -4.6483   18.5302 C   0  0  0  0  0  0  0  0  0  0  0  0
   17.5401   -9.6687   13.2153 N   0  0  0  0  0  0  0  0  0  0  0  0
   18.8783   -9.5339   12.6430 C   0  0  0  0  0  0  0  0  0  0  0  0
   18.9182  -10.1989   11.2711 C   0  0  0  0  0  0  0  0  0  0  0  0
   17.7874   -9.7298   10.4720 N   0  0  0  0  0  0  0  0  0  0  0  0
   16.4497   -9.8915   11.0393 C   0  0  0  0  0  0  0  0  0  0  0  0
   16.3983   -9.2314   12.4138 C   0  0  0  0  0  0  0  0  0  0  0  0
   17.9853   -9.1074    9.1891 C   0  0  0  0  0  0  0  0  0  0  0  0
   17.3509   -9.6124    8.0444 C   0  0  0  0  0  0  0  0  0  0  0  0
   17.5547   -8.9942    6.8090 C   0  0  0  0  0  0  0  0  0  0  0  0
   18.3653   -7.9067    6.7162 N   0  0  0  0  0  0  0  0  0  0  0  0
   18.9940   -7.3940    7.8073 C   0  0  0  0  0  0  0  0  0  0  0  0
   18.8154   -7.9841    9.0601 C   0  0  0  0  0  0  0  0  0  0  0  0
  1  2  1  0  0  0
  2  3  1  0  0  0
  3  4  2  0  0  0
  4  5  1  0  0  0
  5  6  2  0  0  0
  4 10  1  0  0  0
 10 11  2  0  0  0
 11 12  1  0  0  0
 12 13  2  0  0  0
 13 14  1  0  0  0
 14 15  2  0  0  0
 13 16  1  0  0  0
 16 17  1  0  0  0
 12 18  1  0  0  0
 18 19  1  0  0  0
  2  7  2  0  0  0
  7  8  1  0  0  0
  8  9  1  0  0  0
  9 20  1  0  0  0
 20 21  1  0  0  0
 21 22  1  0  0  0
 22 23  1  0  0  0
 23 24  1  0  0  0
 24 25  1  0  0  0
 23 26  1  0  0  0
 26 27  2  0  0  0
 27 28  1  0  0  0
 28 29  2  0  0  0
 29 30  1  0  0  0
 30 31  2  0  0  0
  6  1  1  0  0  0
 15 10  1  0  0  0
 25 20  1  0  0  0
 31 26  1  0  0  0
  9  1  2  0  0  0
M  END
>  <minimizedAffinity>
-6.57721

>  <minimizedRMSD>
1.57140

$$$$
CHEMBL186956 PubChem-9824192


 34 36  0  0  0  0  0  0  0  0999 V2000
   17.0602   -9.2481   16.8990 C   0  0  0  0  0  0  0  0  0  0  0  0
   18.1295   -9.9959   17.3972 C   0  0  0  0  0  0  0  0  0  0  0  0
   19.0352  -10.6017   16.5235 C   0  0  0  0  0  0  0  0  0  0  0  0
   18.8798  -10.4660   15.1413 C   0  0  0  0  0  0  0  0  0  0  0  0
   19.8681  -11.1222   14.2393 C   0  0  0  0  0  0  0  0  0  0  0  0
   17.8073   -9.7186   14.6230 C   0  0  0  0  0  0  0  0  0  0  0  0
   16.9061   -9.1138   15.5123 C   0  0  0  0  0  0  0  0  0  0  0  0
   15.0061   -7.8343   17.5064 C   0  0  0  0  0  0  0  0  0  0  0  0
   14.7247   -7.5656   16.3066 O   0  0  0  0  0  0  0  0  0  0  0  0
   16.1489   -8.6426   17.8261 N   0  0  0  0  0  0  0  0  0  0  0  0
   16.3255   -8.7973   18.7822 H   0  0  0  0  0  0  0  0  0  0  0  0
   12.5201   -6.3233   20.6579 C   0  0  0  0  0  0  0  0  0  0  0  0
   13.7390   -6.9548   20.9525 C   0  0  0  0  0  0  0  0  0  0  0  0
   14.5483   -7.4461   19.9264 C   0  0  0  0  0  0  0  0  0  0  0  0
   14.1538   -7.3140   18.5898 C   0  0  0  0  0  0  0  0  0  0  0  0
   12.9375   -6.6840   18.2954 C   0  0  0  0  0  0  0  0  0  0  0  0
   12.1166   -6.1874   19.3212 C   0  0  0  0  0  0  0  0  0  0  0  0
   12.0704   -4.7273   22.4964 C   0  0  0  0  0  0  0  0  0  0  0  0
   11.6977   -5.8244   21.6741 O   0  0  0  0  0  0  0  0  0  0  0  0
   10.9001   -5.5589   19.0348 O   0  0  0  0  0  0  0  0  0  0  0  0
   10.7642   -4.1466   18.9542 C   0  0  0  0  0  0  0  0  0  0  0  0
   17.6581   -9.5827   13.2006 N   0  0  0  0  0  0  0  0  0  0  0  0
   16.4578   -9.7679   12.4345 C   0  0  0  0  0  0  0  0  0  0  0  0
   15.3798  -10.0988   12.9989 O   0  0  0  0  0  0  0  0  0  0  0  0
   18.4668   -9.3357   12.6963 H   0  0  0  0  0  0  0  0  0  0  0  0
   16.4874   -9.5701   10.9748 C   0  0  0  0  0  0  0  0  0  0  0  0
   15.4476  -10.0552   10.1702 C   0  0  0  0  0  0  0  0  0  0  0  0
   15.4778   -9.8642    8.7872 C   0  0  0  0  0  0  0  0  0  0  0  0
   16.5470   -9.1848    8.1987 C   0  0  0  0  0  0  0  0  0  0  0  0
   17.5982   -8.6884    8.9860 C   0  0  0  0  0  0  0  0  0  0  0  0
   17.5562   -8.8890   10.3756 C   0  0  0  0  0  0  0  0  0  0  0  0
   18.6975   -7.9824    8.3805 N   0  0  0  0  0  0  0  0  0  0  0  0
   18.6147   -7.4844    7.0156 C   0  0  0  0  0  0  0  0  0  0  0  0
   19.9259   -7.7250    9.1171 C   0  0  0  0  0  0  0  0  0  0  0  0
 18 19  1  0  0  0
 19 12  1  0  0  0
 12 13  2  0  0  0
 13 14  1  0  0  0
 14 15  2  0  0  0
 15  8  1  0  0  0
 15 16  1  0  0  0
  8  9  2  0  0  0
  8 10  1  0  0  0
 10  1  1  0  0  0
  1  2  2  0  0  0
  2  3  1  0  0  0
  3  4  2  0  0  0
  4  5  1  0  0  0
  4  6  1  0  0  0
  6 22  1  0  0  0
  6  7  2  0  0  0
 22 23  1  0  0  0
 23 24  2  0  0  0
 23 26  1  0  0  0
 26 27  2  0  0  0
 27 28  1  0  0  0
 28 29  2  0  0  0
 29 30  1  0  0  0
 30 32  1  0  0  0
 30 31  2  0  0  0
 32 33  1  0  0  0
 32 34  1  0  0  0
 31 26  1  0  0  0
  7  1  1  0  0  0
 16 17  2  0  0  0
 17 20  1  0  0  0
 17 12  1  0  0  0
 20 21  1  0  0  0
 10 11  1  0  0  0
 22 25  1  0  0  0
M  END
>  <minimizedAffinity>
-6.57215

>  <minimizedRMSD>
1.65386

$$$$
CHEMBL4526344 PubChem-135281215


 31 33  0  0  0  0  0  0  0  0999 V2000
   16.7817   -9.2321   13.4041 C   0  0  0  0  0  0  0  0  0  0  0  0
   16.0474   -8.2602   14.1053 C   0  0  0  0  0  0  0  0  0  0  0  0
   15.8966   -8.4260   15.4795 C   0  0  0  0  0  0  0  0  0  0  0  0
   15.2300   -7.6001   16.3036 N   0  0  0  0  0  0  0  0  0  0  0  0
   15.3746   -8.1921   17.5164 C   0  0  0  0  0  0  0  0  0  0  0  0
   16.1237   -9.3635   17.4106 C   0  0  0  0  0  0  0  0  0  0  0  0
   16.4347   -9.4777   16.1124 N   0  0  0  0  0  0  0  0  0  0  0  0
   17.1514  -10.4421   15.4868 C   0  0  0  0  0  0  0  0  0  0  0  0
   17.3368  -10.3287   14.1019 C   0  0  0  0  0  0  0  0  0  0  0  0
   14.8091   -7.6587   18.7787 C   0  0  0  0  0  0  0  0  0  0  0  0
   15.6724   -7.4354   19.8616 C   0  0  0  0  0  0  0  0  0  0  0  0
   15.1965   -6.9346   21.0741 C   0  0  0  0  0  0  0  0  0  0  0  0
   13.8356   -6.6450   21.2274 C   0  0  0  0  0  0  0  0  0  0  0  0
   12.9647   -6.8646   20.1512 C   0  0  0  0  0  0  0  0  0  0  0  0
   13.4339   -7.3684   18.9268 C   0  0  0  0  0  0  0  0  0  0  0  0
   16.3266   -6.6770   22.3910 Cl  0  0  0  0  0  0  0  0  0  0  0  0
   12.5477   -7.5808   17.8636 O   0  0  0  0  0  0  0  0  0  0  0  0
   11.1349   -7.5625   18.0186 C   0  0  0  0  0  0  0  0  0  0  0  0
   13.3687   -6.1432   22.4474 O   0  0  0  0  0  0  0  0  0  0  0  0
   12.1039   -5.5098   22.5855 C   0  0  0  0  0  0  0  0  0  0  0  0
   18.0715   -9.4912   11.1982 C   0  0  0  0  0  0  0  0  0  0  0  0
   19.0390  -10.0945   11.7348 O   0  0  0  0  0  0  0  0  0  0  0  0
   16.9476   -9.0741   11.9887 N   0  0  0  0  0  0  0  0  0  0  0  0
   16.2117   -8.6320   11.5069 H   0  0  0  0  0  0  0  0  0  0  0  0
   18.1152   -9.2471    9.7018 C   0  0  0  0  0  0  0  0  0  0  0  0
   19.5289   -8.2204    7.8854 C   0  0  0  0  0  0  0  0  0  0  0  0
   19.0321   -8.0771    9.3116 C   0  0  0  0  0  0  0  0  0  0  0  0
   18.3805   -6.7182    9.5063 C   0  0  0  0  0  0  0  0  0  0  0  0
   16.8243   -9.2436    8.9824 N   0  0  0  0  0  0  0  0  0  0  0  0
   15.8748  -10.2071    9.5268 C   0  0  0  0  0  0  0  0  0  0  0  0
   17.0519   -9.5715    7.5836 C   0  0  0  0  0  0  0  0  0  0  0  0
 26 27  1  0  0  0
 27 28  1  0  0  0
 25 27  1  0  0  0
 25 21  1  0  0  0
 21 22  2  0  0  0
 21 23  1  0  0  0
 23  1  1  0  0  0
  1  2  2  0  0  0
  2  3  1  0  0  0
  3  4  2  0  0  0
  4  5  1  0  0  0
  5  6  2  0  0  0
  6  7  1  0  0  0
  7  8  1  0  0  0
  8  9  2  0  0  0
  5 10  1  0  0  0
 10 11  2  0  0  0
 11 12  1  0  0  0
 12 13  2  0  0  0
 13 14  1  0  0  0
 14 15  2  0  0  0
 15 17  1  0  0  0
 17 18  1  0  0  0
 13 19  1  0  0  0
 19 20  1  0  0  0
 12 16  1  0  0  0
 25 29  1  0  0  0
 29 30  1  0  0  0
 29 31  1  0  0  0
  9  1  1  0  0  0
  7  3  1  0  0  0
 15 10  1  0  0  0
 23 24  1  0  0  0
M  END
>  <minimizedAffinity>
-6.56997

>  <minimizedRMSD>
1.31503

$$$$
CHEMBL1498650 CSC046141006 LN01105662 MCULE-8648956089 MolPort-000-659-632 PubChem-1109017 ZINC00842376


 35 37  0  0  0  0  0  0  0  0999 V2000
   16.5274   -7.9077   16.4007 N   0  0  0  0  0  0  0  0  0  0  0  0
   16.4162   -9.2352   15.8700 C   0  0  0  0  0  0  0  0  0  0  0  0
   16.2926  -10.2209   16.6472 O   0  0  0  0  0  0  0  0  0  0  0  0
   16.8583   -7.2003   15.8012 H   0  0  0  0  0  0  0  0  0  0  0  0
   16.5027   -9.4534   14.4149 C   0  0  0  0  0  0  0  0  0  0  0  0
   17.6525  -10.0289   13.8540 C   0  0  0  0  0  0  0  0  0  0  0  0
   17.7358  -10.2424   12.4756 C   0  0  0  0  0  0  0  0  0  0  0  0
   16.6708   -9.8809   11.6439 C   0  0  0  0  0  0  0  0  0  0  0  0
   15.5242   -9.2989   12.1960 C   0  0  0  0  0  0  0  0  0  0  0  0
   15.4401   -9.0867   13.5753 C   0  0  0  0  0  0  0  0  0  0  0  0
   16.7674  -10.1551    9.9128 S   0  0  0  0  0  0  0  0  0  0  0  0
   17.7142  -11.2941    9.6323 O   0  0  0  0  0  0  0  0  0  0  0  0
   15.3990  -10.5251    9.4056 O   0  0  0  0  0  0  0  0  0  0  0  0
   17.3263   -8.7202    9.1104 N   0  0  0  0  0  0  0  0  0  0  0  0
   18.7367   -8.5354    9.4695 C   0  0  0  0  0  0  0  0  0  0  0  0
   19.3313   -7.3397    8.7232 C   0  0  0  0  0  0  0  0  0  0  0  0
   19.0746   -7.4115    7.2137 C   0  0  0  0  0  0  0  0  0  0  0  0
   18.3774   -8.7080    6.8063 C   0  0  0  0  0  0  0  0  0  0  0  0
   17.1222   -8.9236    7.6611 C   0  0  0  0  0  0  0  0  0  0  0  0
   14.8614   -7.3013   18.1823 C   0  0  0  0  0  0  0  0  0  0  0  0
   13.9184   -7.1552   17.3563 O   0  0  0  0  0  0  0  0  0  0  0  0
   16.1960   -7.5471   17.7197 N   0  0  0  0  0  0  0  0  0  0  0  0
   16.9305   -7.4575   18.3691 H   0  0  0  0  0  0  0  0  0  0  0  0
   15.3864   -7.2692   21.9350 C   0  0  0  0  0  0  0  0  0  0  0  0
   15.6209   -7.3826   20.5549 C   0  0  0  0  0  0  0  0  0  0  0  0
   14.5957   -7.1814   19.6266 C   0  0  0  0  0  0  0  0  0  0  0  0
   13.3150   -6.8665   20.0871 C   0  0  0  0  0  0  0  0  0  0  0  0
   13.0512   -6.7514   21.4591 C   0  0  0  0  0  0  0  0  0  0  0  0
   14.0832   -6.9482   22.3940 C   0  0  0  0  0  0  0  0  0  0  0  0
   17.4096   -6.4842   23.1351 C   0  0  0  0  0  0  0  0  0  0  0  0
   16.4333   -7.4768   22.8416 O   0  0  0  0  0  0  0  0  0  0  0  0
   11.7648   -6.4467   21.9172 O   0  0  0  0  0  0  0  0  0  0  0  0
   11.2485   -5.1224   21.9435 C   0  0  0  0  0  0  0  0  0  0  0  0
   13.7565   -6.8119   23.7539 O   0  0  0  0  0  0  0  0  0  0  0  0
   13.9876   -5.6490   24.5369 C   0  0  0  0  0  0  0  0  0  0  0  0
 30 31  1  0  0  0
 31 24  1  0  0  0
 24 25  2  0  0  0
 25 26  1  0  0  0
 26 27  2  0  0  0
 26 20  1  0  0  0
 27 28  1  0  0  0
 28 32  1  0  0  0
 28 29  2  0  0  0
 32 33  1  0  0  0
 29 34  1  0  0  0
 29 24  1  0  0  0
 34 35  1  0  0  0
 20 21  2  0  0  0
 20 22  1  0  0  0
 22  1  1  0  0  0
  1  2  1  0  0  0
  2  3  2  0  0  0
  2  5  1  0  0  0
  5  6  2  0  0  0
  6  7  1  0  0  0
  7  8  2  0  0  0
  8  9  1  0  0  0
  8 11  1  0  0  0
  9 10  2  0  0  0
 10  5  1  0  0  0
 11 12  2  0  0  0
 11 13  2  0  0  0
 11 14  1  0  0  0
 14 15  1  0  0  0
 15 16  1  0  0  0
 16 17  1  0  0  0
 17 18  1  0  0  0
 18 19  1  0  0  0
 19 14  1  0  0  0
 22 23  1  0  0  0
  1  4  1  0  0  0
M  END
>  <minimizedAffinity>
-6.56395

>  <minimizedRMSD>
1.76130

$$$$
CHEMBL2031094 PubChem-44463315


 38 40  0  0  0  0  0  0  0  0999 V2000
   16.8503   -9.7227   15.6037 N   0  0  0  0  0  0  0  0  0  0  0  0
   16.2941   -8.9543   15.3403 H   0  0  0  0  0  0  0  0  0  0  0  0
   18.3906  -10.3472   12.2640 C   0  0  0  0  0  0  0  0  0  0  0  0
   18.7571  -11.6964   12.3769 C   0  0  0  0  0  0  0  0  0  0  0  0
   18.5017  -12.4003   13.5559 C   0  0  0  0  0  0  0  0  0  0  0  0
   17.8816  -11.7586   14.6304 C   0  0  0  0  0  0  0  0  0  0  0  0
   17.5225  -10.4064   14.5368 C   0  0  0  0  0  0  0  0  0  0  0  0
   17.7693   -9.7145   13.3461 C   0  0  0  0  0  0  0  0  0  0  0  0
   17.7633   -9.4942    9.9252 C   0  0  0  0  0  0  0  0  0  0  0  0
   16.6688  -10.1200    9.8921 O   0  0  0  0  0  0  0  0  0  0  0  0
   18.6275   -9.5927   11.0678 N   0  0  0  0  0  0  0  0  0  0  0  0
   19.4721   -9.0887   11.0254 H   0  0  0  0  0  0  0  0  0  0  0  0
   18.3763   -8.3362    6.3755 C   0  0  0  0  0  0  0  0  0  0  0  0
   18.9169   -7.0604    6.6012 C   0  0  0  0  0  0  0  0  0  0  0  0
   19.0786   -6.5851    7.9047 C   0  0  0  0  0  0  0  0  0  0  0  0
   18.7017   -7.3804    8.9898 C   0  0  0  0  0  0  0  0  0  0  0  0
   18.1606   -8.6565    8.7797 C   0  0  0  0  0  0  0  0  0  0  0  0
   18.0014   -9.1260    7.4674 C   0  0  0  0  0  0  0  0  0  0  0  0
   18.8152   -8.2572    3.9426 C   0  0  0  0  0  0  0  0  0  0  0  0
   18.2019   -8.8407    5.0840 O   0  0  0  0  0  0  0  0  0  0  0  0
   16.8878  -10.0199   17.0097 C   0  0  0  0  0  0  0  0  0  0  0  0
   18.0244  -11.0172   17.6410 S   0  0  0  0  0  0  0  0  0  0  0  0
   16.0560   -9.2938   17.9210 N   0  0  0  0  0  0  0  0  0  0  0  0
   15.3337   -8.0911   17.6217 C   0  0  0  0  0  0  0  0  0  0  0  0
   15.3629   -7.5993   16.4606 O   0  0  0  0  0  0  0  0  0  0  0  0
   15.9722   -9.6518   18.8343 H   0  0  0  0  0  0  0  0  0  0  0  0
   14.5451   -7.4304   18.6765 C   0  0  0  0  0  0  0  0  0  0  0  0
   15.1118   -7.1740   19.9264 C   0  0  0  0  0  0  0  0  0  0  0  0
   14.3710   -6.5463   20.9378 C   0  0  0  0  0  0  0  0  0  0  0  0
   13.0391   -6.1650   20.7014 C   0  0  0  0  0  0  0  0  0  0  0  0
   12.4561   -6.4214   19.4341 C   0  0  0  0  0  0  0  0  0  0  0  0
   13.2211   -7.0519   18.4400 C   0  0  0  0  0  0  0  0  0  0  0  0
   14.9396   -6.2899   22.1908 O   0  0  0  0  0  0  0  0  0  0  0  0
   16.3237   -6.4681   22.4602 C   0  0  0  0  0  0  0  0  0  0  0  0
   12.3510   -5.5405   21.7555 O   0  0  0  0  0  0  0  0  0  0  0  0
   12.1892   -4.1377   21.9071 C   0  0  0  0  0  0  0  0  0  0  0  0
   11.1320   -6.0528   19.1691 O   0  0  0  0  0  0  0  0  0  0  0  0
   10.1561   -6.9644   18.6814 C   0  0  0  0  0  0  0  0  0  0  0  0
 19 20  1  0  0  0
 20 13  1  0  0  0
 13 14  2  0  0  0
 14 15  1  0  0  0
 15 16  2  0  0  0
 16 17  1  0  0  0
 17  9  1  0  0  0
 17 18  2  0  0  0
  9 10  2  0  0  0
  9 11  1  0  0  0
 11  3  1  0  0  0
  3  4  2  0  0  0
  4  5  1  0  0  0
  5  6  2  0  0  0
  6  7  1  0  0  0
  7  1  1  0  0  0
  7  8  2  0  0  0
  1 21  1  0  0  0
 21 22  2  0  0  0
 21 23  1  0  0  0
 23 24  1  0  0  0
 24 25  2  0  0  0
 24 27  1  0  0  0
 27 28  2  0  0  0
 28 29  1  0  0  0
 29 33  1  0  0  0
 29 30  2  0  0  0
 33 34  1  0  0  0
 30 35  1  0  0  0
 30 31  1  0  0  0
 35 36  1  0  0  0
 31 37  1  0  0  0
 31 32  2  0  0  0
 37 38  1  0  0  0
 32 27  1  0  0  0
  8  3  1  0  0  0
 18 13  1  0  0  0
 11 12  1  0  0  0
  1  2  1  0  0  0
 23 26  1  0  0  0
M  END
>  <minimizedAffinity>
-6.55874

>  <minimizedRMSD>
1.31615

$$$$
CHEMBL4590505 PubChem-135335284


 31 34  0  0  0  0  0  0  0  0999 V2000
   17.0421   -9.7779   13.5989 C   0  0  0  0  0  0  0  0  0  0  0  0
   16.2409   -8.7629   14.1645 C   0  0  0  0  0  0  0  0  0  0  0  0
   16.0896   -8.7445   15.5480 C   0  0  0  0  0  0  0  0  0  0  0  0
   15.3667   -7.8546   16.2488 N   0  0  0  0  0  0  0  0  0  0  0  0
   15.5374   -8.2615   17.5324 C   0  0  0  0  0  0  0  0  0  0  0  0
   16.3578   -9.3874   17.5908 C   0  0  0  0  0  0  0  0  0  0  0  0
   16.6857   -9.6620   16.3211 N   0  0  0  0  0  0  0  0  0  0  0  0
   17.4650  -10.6580   15.8364 C   0  0  0  0  0  0  0  0  0  0  0  0
   17.6551  -10.7286   14.4494 C   0  0  0  0  0  0  0  0  0  0  0  0
   14.9300   -7.5931   18.7079 C   0  0  0  0  0  0  0  0  0  0  0  0
   15.7062   -7.4299   19.8650 C   0  0  0  0  0  0  0  0  0  0  0  0
   15.1873   -6.8084   21.0016 C   0  0  0  0  0  0  0  0  0  0  0  0
   13.8703   -6.3341   21.0023 C   0  0  0  0  0  0  0  0  0  0  0  0
   13.0867   -6.4923   19.8508 C   0  0  0  0  0  0  0  0  0  0  0  0
   13.5995   -7.1165   18.7018 C   0  0  0  0  0  0  0  0  0  0  0  0
   16.2084   -6.6343   22.4176 Cl  0  0  0  0  0  0  0  0  0  0  0  0
   12.8003   -7.2649   17.5615 O   0  0  0  0  0  0  0  0  0  0  0  0
   11.3833   -7.3603   17.6170 C   0  0  0  0  0  0  0  0  0  0  0  0
   13.3599   -5.7123   22.1472 O   0  0  0  0  0  0  0  0  0  0  0  0
   11.9755   -5.4452   22.3253 C   0  0  0  0  0  0  0  0  0  0  0  0
   17.4281   -9.2472    9.3576 N   0  0  0  0  0  0  0  0  0  0  0  0
   18.5487   -9.8749   10.0816 C   0  0  0  0  0  0  0  0  0  0  0  0
   18.5448   -9.5628   11.5828 C   0  0  0  0  0  0  0  0  0  0  0  0
   17.2345   -9.8448   12.1730 N   0  0  0  0  0  0  0  0  0  0  0  0
   16.1261  -10.1907   11.2869 C   0  0  0  0  0  0  0  0  0  0  0  0
   16.1443   -9.2522   10.0820 C   0  0  0  0  0  0  0  0  0  0  0  0
   17.7730   -7.8554    9.1010 C   0  0  0  0  0  0  0  0  0  0  0  0
   19.1333   -7.7573    8.4244 C   0  0  0  0  0  0  0  0  0  0  0  0
   19.0118   -7.1467    7.0374 C   0  0  0  0  0  0  0  0  0  0  0  0
   19.1517   -8.3845    5.2169 C   0  0  0  0  0  0  0  0  0  0  0  0
   19.9334   -7.7339    6.1700 O   0  0  0  0  0  0  0  0  0  0  0  0
 30 31  1  0  0  0
 31 29  1  0  0  0
 29 28  1  0  0  0
 28 27  1  0  0  0
 27 21  1  0  0  0
 21 22  1  0  0  0
 22 23  1  0  0  0
 23 24  1  0  0  0
 24 25  1  0  0  0
 25 26  1  0  0  0
 24  1  1  0  0  0
  1  2  2  0  0  0
  2  3  1  0  0  0
  3  4  2  0  0  0
  4  5  1  0  0  0
  5  6  2  0  0  0
  6  7  1  0  0  0
  7  8  1  0  0  0
  8  9  2  0  0  0
  5 10  1  0  0  0
 10 11  2  0  0  0
 11 12  1  0  0  0
 12 13  2  0  0  0
 13 14  1  0  0  0
 14 15  2  0  0  0
 15 17  1  0  0  0
 17 18  1  0  0  0
 13 19  1  0  0  0
 19 20  1  0  0  0
 12 16  1  0  0  0
 26 21  1  0  0  0
  9  1  1  0  0  0
  7  3  1  0  0  0
 15 10  1  0  0  0
M  END
>  <minimizedAffinity>
-6.55747

>  <minimizedRMSD>
1.42185

$$$$
CHEMBL3659067 PubChem-71274223


 29 32  0  0  0  0  0  0  0  0999 V2000
   14.3402   -7.5887   18.2182 C   0  0  0  0  0  0  0  0  0  0  0  0
   13.0536   -7.4515   17.7948 N   0  0  0  0  0  0  0  0  0  0  0  0
   12.0537   -7.1710   18.6692 C   0  0  0  0  0  0  0  0  0  0  0  0
   10.6582   -7.0261   18.1800 C   0  0  0  0  0  0  0  0  0  0  0  0
   12.3278   -7.0223   19.9902 N   0  0  0  0  0  0  0  0  0  0  0  0
   13.5972   -7.1473   20.4640 C   0  0  0  0  0  0  0  0  0  0  0  0
   14.6410   -7.4384   19.5767 C   0  0  0  0  0  0  0  0  0  0  0  0
   16.2965   -7.6080   20.1497 Cl  0  0  0  0  0  0  0  0  0  0  0  0
   13.8651   -6.9845   21.8605 N   0  0  0  0  0  0  0  0  0  0  0  0
   14.7348   -7.2862   22.2098 H   0  0  0  0  0  0  0  0  0  0  0  0
   12.9115   -6.3934   22.7889 C   0  0  0  0  0  0  0  0  0  0  0  0
   13.5094   -5.2005   23.4524 C   0  0  0  0  0  0  0  0  0  0  0  0
   13.3807   -3.9416   22.9804 N   0  0  0  0  0  0  0  0  0  0  0  0
   14.0315   -3.0387   23.7120 N   0  0  0  0  0  0  0  0  0  0  0  0
   14.6841   -3.5785   24.7634 C   0  0  0  0  0  0  0  0  0  0  0  0
   15.4872   -2.7836   25.7286 C   0  0  0  0  0  0  0  0  0  0  0  0
   14.4771   -5.2476   24.8301 S   0  0  0  0  0  0  0  0  0  0  0  0
   15.3598   -7.8774   17.3085 O   0  0  0  0  0  0  0  0  0  0  0  0
   15.3067   -9.0073   16.4506 C   0  0  0  0  0  0  0  0  0  0  0  0
   16.6985   -9.8662   14.6029 C   0  0  0  0  0  0  0  0  0  0  0  0
   17.4396   -8.7052   15.2437 C   0  0  0  0  0  0  0  0  0  0  0  0
   15.9340   -8.6591   15.1176 C   0  0  0  0  0  0  0  0  0  0  0  0
   17.1325   -9.7567    8.8620 C   0  0  0  0  0  0  0  0  0  0  0  0
   17.0366   -9.7751   10.3447 C   0  0  0  0  0  0  0  0  0  0  0  0
   18.1822   -9.6240   11.1268 C   0  0  0  0  0  0  0  0  0  0  0  0
   18.0792   -9.6424   12.5188 C   0  0  0  0  0  0  0  0  0  0  0  0
   16.8210   -9.8028   13.1126 C   0  0  0  0  0  0  0  0  0  0  0  0
   15.7193   -9.9660   12.3268 N   0  0  0  0  0  0  0  0  0  0  0  0
   15.8003   -9.9509   10.9689 C   0  0  0  0  0  0  0  0  0  0  0  0
 23 24  1  0  0  0
 24 25  2  0  0  0
 25 26  1  0  0  0
 26 27  2  0  0  0
 27 28  1  0  0  0
 28 29  2  0  0  0
 20 27  1  0  0  0
 20 21  1  0  0  0
 21 22  1  0  0  0
 22 19  1  0  0  0
 19 18  1  0  0  0
 18  1  1  0  0  0
  1  2  2  0  0  0
  2  3  1  0  0  0
  3  4  1  0  0  0
  3  5  2  0  0  0
  5  6  1  0  0  0
  6  9  1  0  0  0
  9 11  1  0  0  0
 11 12  1  0  0  0
 12 13  2  0  0  0
 13 14  1  0  0  0
 14 15  2  0  0  0
 15 16  1  0  0  0
 15 17  1  0  0  0
  6  7  2  0  0  0
  7  8  1  0  0  0
 29 24  1  0  0  0
 22 20  1  0  0  0
  7  1  1  0  0  0
 17 12  1  0  0  0
  9 10  1  0  0  0
M  END
>  <minimizedAffinity>
-6.55687

>  <minimizedRMSD>
1.85020

$$$$
CHEMBL4589189 PubChem-135335416 PubChem-135335548


 36 40  0  0  0  0  0  0  0  0999 V2000
   14.4080   -7.3468   19.2122 C   0  0  0  0  0  0  0  0  0  0  0  0
   15.4083   -8.3071   19.3589 C   0  0  0  0  0  0  0  0  0  0  0  0
   15.8397   -8.5722   18.1184 N   0  0  0  0  0  0  0  0  0  0  0  0
   16.8021   -9.4354   17.7150 C   0  0  0  0  0  0  0  0  0  0  0  0
   17.0677   -9.5294   16.3417 C   0  0  0  0  0  0  0  0  0  0  0  0
   16.3414   -8.7360   15.4222 C   0  0  0  0  0  0  0  0  0  0  0  0
   15.3486   -7.8564   15.9039 C   0  0  0  0  0  0  0  0  0  0  0  0
   15.1305   -7.8072   17.2778 C   0  0  0  0  0  0  0  0  0  0  0  0
   14.2307   -7.0303   17.9044 N   0  0  0  0  0  0  0  0  0  0  0  0
   12.3207   -6.2625   20.1616 C   0  0  0  0  0  0  0  0  0  0  0  0
   11.6478   -5.7067   21.2621 C   0  0  0  0  0  0  0  0  0  0  0  0
   12.2587   -5.6249   22.5212 C   0  0  0  0  0  0  0  0  0  0  0  0
   13.5632   -6.1074   22.6791 C   0  0  0  0  0  0  0  0  0  0  0  0
   14.2403   -6.6615   21.5919 C   0  0  0  0  0  0  0  0  0  0  0  0
   13.6376   -6.7478   20.3281 C   0  0  0  0  0  0  0  0  0  0  0  0
   14.3712   -6.0277   24.2344 Cl  0  0  0  0  0  0  0  0  0  0  0  0
   10.7260   -7.3254   18.5885 C   0  0  0  0  0  0  0  0  0  0  0  0
   11.6929   -6.3351   18.9120 O   0  0  0  0  0  0  0  0  0  0  0  0
   11.5887   -5.0712   23.6179 O   0  0  0  0  0  0  0  0  0  0  0  0
   10.7473   -3.9310   23.5099 C   0  0  0  0  0  0  0  0  0  0  0  0
   16.6049   -8.8330   14.0099 N   0  0  0  0  0  0  0  0  0  0  0  0
   17.9178   -9.2530   13.5178 C   0  0  0  0  0  0  0  0  0  0  0  0
   17.7432  -10.2855   12.4090 C   0  0  0  0  0  0  0  0  0  0  0  0
   16.7883   -9.7829   11.4231 N   0  0  0  0  0  0  0  0  0  0  0  0
   15.4693   -9.3963   11.9190 C   0  0  0  0  0  0  0  0  0  0  0  0
   15.6264   -8.3611   13.0288 C   0  0  0  0  0  0  0  0  0  0  0  0
   17.1111   -9.6198   10.0260 C   0  0  0  0  0  0  0  0  0  0  0  0
   16.3970  -10.3185    9.0966 N   0  0  0  0  0  0  0  0  0  0  0  0
   16.6387  -10.2186    7.7632 C   0  0  0  0  0  0  0  0  0  0  0  0
   17.6480   -9.3793    7.2979 C   0  0  0  0  0  0  0  0  0  0  0  0
   18.4025   -8.6485    8.2133 C   0  0  0  0  0  0  0  0  0  0  0  0
   18.1437   -8.7607    9.5846 C   0  0  0  0  0  0  0  0  0  0  0  0
   18.8977   -8.0437   10.4560 F   0  0  0  0  0  0  0  0  0  0  0  0
   19.4370   -7.7902    7.7446 N   0  0  0  0  0  0  0  0  0  0  0  0
   19.6146   -7.7151    6.7792 H   0  0  0  0  0  0  0  0  0  0  0  0
   19.9747   -7.2717    8.3859 H   0  0  0  0  0  0  0  0  0  0  0  0
 17 18  1  0  0  0
 18 10  1  0  0  0
 10 11  2  0  0  0
 11 12  1  0  0  0
 12 13  2  0  0  0
 13 14  1  0  0  0
 14 15  2  0  0  0
 15  1  1  0  0  0
  1  2  2  0  0  0
  2  3  1  0  0  0
  3  4  1  0  0  0
  4  5  2  0  0  0
  5  6  1  0  0  0
  6  7  2  0  0  0
  7  8  1  0  0  0
  8  9  2  0  0  0
  6 21  1  0  0  0
 21 22  1  0  0  0
 22 23  1  0  0  0
 23 24  1  0  0  0
 24 25  1  0  0  0
 25 26  1  0  0  0
 24 27  1  0  0  0
 27 28  2  0  0  0
 28 29  1  0  0  0
 29 30  2  0  0  0
 30 31  1  0  0  0
 31 32  2  0  0  0
 32 33  1  0  0  0
 31 34  1  0  0  0
 13 16  1  0  0  0
 12 19  1  0  0  0
 19 20  1  0  0  0
 15 10  1  0  0  0
  9  1  1  0  0  0
  8  3  1  0  0  0
 26 21  1  0  0  0
 32 27  1  0  0  0
 34 35  1  0  0  0
 34 36  1  0  0  0
M  END
>  <minimizedAffinity>
-6.53913

>  <minimizedRMSD>
1.78984

$$$$
CHEMBL4073736 PubChem-134603732


 33 36  0  0  0  0  0  0  0  0999 V2000
   14.4994   -7.8428   18.0383 C   0  0  0  0  0  0  0  0  0  0  0  0
   13.2609   -7.2431   18.3228 C   0  0  0  0  0  0  0  0  0  0  0  0
   13.0801   -6.5846   19.5503 C   0  0  0  0  0  0  0  0  0  0  0  0
   14.1185   -6.5234   20.4902 C   0  0  0  0  0  0  0  0  0  0  0  0
   15.3561   -7.1313   20.1938 C   0  0  0  0  0  0  0  0  0  0  0  0
   15.5384   -7.7866   18.9748 C   0  0  0  0  0  0  0  0  0  0  0  0
   16.3714   -7.0807   21.0930 N   0  0  0  0  0  0  0  0  0  0  0  0
   16.2323   -6.4533   22.2899 C   0  0  0  0  0  0  0  0  0  0  0  0
   15.0259   -5.8310   22.6422 C   0  0  0  0  0  0  0  0  0  0  0  0
   13.9532   -5.8694   21.7233 C   0  0  0  0  0  0  0  0  0  0  0  0
   12.8502   -5.3207   21.9984 O   0  0  0  0  0  0  0  0  0  0  0  0
   17.2299   -7.5092   20.8725 H   0  0  0  0  0  0  0  0  0  0  0  0
   14.9264   -5.1628   23.9621 C   0  0  0  0  0  0  0  0  0  0  0  0
   15.4171   -4.0094   24.1169 O   0  0  0  0  0  0  0  0  0  0  0  0
   14.2961   -5.7990   25.0351 O   0  0  0  0  0  0  0  0  0  0  0  0
   14.6924   -5.5741   26.3801 C   0  0  0  0  0  0  0  0  0  0  0  0
   12.2284   -7.3076   17.3792 O   0  0  0  0  0  0  0  0  0  0  0  0
   10.8677   -7.5052   17.7393 C   0  0  0  0  0  0  0  0  0  0  0  0
   14.7152   -8.5601   16.7459 C   0  0  0  0  0  0  0  0  0  0  0  0
   16.1543   -9.1660   13.6460 N   0  0  0  0  0  0  0  0  0  0  0  0
   15.8540  -10.2544   14.5700 C   0  0  0  0  0  0  0  0  0  0  0  0
   16.4899   -9.9610   15.9312 C   0  0  0  0  0  0  0  0  0  0  0  0
   16.1419   -8.6260   16.4389 N   0  0  0  0  0  0  0  0  0  0  0  0
   16.4985   -7.5780   15.4714 C   0  0  0  0  0  0  0  0  0  0  0  0
   15.8640   -7.8092   14.0970 C   0  0  0  0  0  0  0  0  0  0  0  0
   17.2465   -9.9385    9.6024 C   0  0  0  0  0  0  0  0  0  0  0  0
   15.9172  -10.0754   10.0127 C   0  0  0  0  0  0  0  0  0  0  0  0
   15.5586   -9.8241   11.3402 C   0  0  0  0  0  0  0  0  0  0  0  0
   16.5255   -9.4322   12.2805 C   0  0  0  0  0  0  0  0  0  0  0  0
   17.8589   -9.2927   11.8627 C   0  0  0  0  0  0  0  0  0  0  0  0
   18.2177   -9.5440   10.5357 C   0  0  0  0  0  0  0  0  0  0  0  0
   17.7178   -9.1680    7.2991 C   0  0  0  0  0  0  0  0  0  0  0  0
   17.5732  -10.1983    8.2684 O   0  0  0  0  0  0  0  0  0  0  0  0
 32 33  1  0  0  0
 33 26  1  0  0  0
 26 27  2  0  0  0
 27 28  1  0  0  0
 28 29  2  0  0  0
 29 30  1  0  0  0
 30 31  2  0  0  0
 29 20  1  0  0  0
 20 21  1  0  0  0
 21 22  1  0  0  0
 22 23  1  0  0  0
 23 24  1  0  0  0
 24 25  1  0  0  0
 23 19  1  0  0  0
 19  1  1  0  0  0
  1  2  2  0  0  0
  2  3  1  0  0  0
  3  4  2  0  0  0
  4  5  1  0  0  0
  5  6  2  0  0  0
  5  7  1  0  0  0
  7  8  1  0  0  0
  8  9  2  0  0  0
  9 10  1  0  0  0
 10 11  2  0  0  0
  9 13  1  0  0  0
 13 14  2  0  0  0
 13 15  1  0  0  0
 15 16  1  0  0  0
  2 17  1  0  0  0
 17 18  1  0  0  0
 31 26  1  0  0  0
 25 20  1  0  0  0
  6  1  1  0  0  0
 10  4  1  0  0  0
  7 12  1  0  0  0
M  END
>  <minimizedAffinity>
-6.53398

>  <minimizedRMSD>
1.90735

$$$$
CHEMBL1551170 8613686 ChemDiv-D242-0075 LN00819989 MCULE-9190099329 MolPort-000-843-726 PubChem-16014199 ZINC000008613686 ZINC08613686


 30 32  0  0  0  0  0  0  0  0999 V2000
   15.5749   -8.2533   17.1150 C   0  0  0  0  0  0  0  0  0  0  0  0
   16.5298   -9.2039   17.1724 N   0  0  0  0  0  0  0  0  0  0  0  0
   16.9596   -9.3184   15.9533 O   0  0  0  0  0  0  0  0  0  0  0  0
   16.3119   -8.4843   15.1799 C   0  0  0  0  0  0  0  0  0  0  0  0
   15.4013   -7.7690   15.8661 N   0  0  0  0  0  0  0  0  0  0  0  0
   13.3274   -6.9230   20.5119 C   0  0  0  0  0  0  0  0  0  0  0  0
   12.6987   -7.0587   19.2645 C   0  0  0  0  0  0  0  0  0  0  0  0
   13.4436   -7.4953   18.1567 C   0  0  0  0  0  0  0  0  0  0  0  0
   14.8050   -7.7964   18.2825 C   0  0  0  0  0  0  0  0  0  0  0  0
   15.4256   -7.6591   19.5291 C   0  0  0  0  0  0  0  0  0  0  0  0
   14.6932   -7.2257   20.6359 C   0  0  0  0  0  0  0  0  0  0  0  0
   13.1396   -5.7242   22.6702 C   0  0  0  0  0  0  0  0  0  0  0  0
   12.5787   -6.4875   21.6107 O   0  0  0  0  0  0  0  0  0  0  0  0
   11.3377   -6.7553   19.1484 O   0  0  0  0  0  0  0  0  0  0  0  0
   10.4310   -7.5600   18.4067 C   0  0  0  0  0  0  0  0  0  0  0  0
   16.5322   -8.3606   13.7125 C   0  0  0  0  0  0  0  0  0  0  0  0
   16.2424   -9.6278   13.0603 N   0  0  0  0  0  0  0  0  0  0  0  0
   15.2212   -9.3604   12.0625 C   0  0  0  0  0  0  0  0  0  0  0  0
   17.6761  -10.1636   12.2333 S   0  0  0  0  0  0  0  0  0  0  0  0
   17.6902  -11.6667   12.1975 O   0  0  0  0  0  0  0  0  0  0  0  0
   18.8853   -9.7284   13.0135 O   0  0  0  0  0  0  0  0  0  0  0  0
   17.7518   -9.5108   10.5703 C   0  0  0  0  0  0  0  0  0  0  0  0
   16.7223   -9.7861    9.6346 C   0  0  0  0  0  0  0  0  0  0  0  0
   15.5277  -10.6118    9.9717 C   0  0  0  0  0  0  0  0  0  0  0  0
   16.7913   -9.2683    8.3390 C   0  0  0  0  0  0  0  0  0  0  0  0
   17.8657   -8.4732    7.9499 C   0  0  0  0  0  0  0  0  0  0  0  0
   17.9271   -7.9291    6.5686 C   0  0  0  0  0  0  0  0  0  0  0  0
   18.8784   -8.1824    8.8596 C   0  0  0  0  0  0  0  0  0  0  0  0
   18.8324   -8.6883   10.1609 C   0  0  0  0  0  0  0  0  0  0  0  0
   19.9489   -8.3115   11.0740 C   0  0  0  0  0  0  0  0  0  0  0  0
 12 13  1  0  0  0
 13  6  1  0  0  0
  6  7  2  0  0  0
  7 14  1  0  0  0
  7  8  1  0  0  0
 14 15  1  0  0  0
  8  9  2  0  0  0
  9 10  1  0  0  0
  9  1  1  0  0  0
 10 11  2  0  0  0
 11  6  1  0  0  0
  1  2  2  0  0  0
  2  3  1  0  0  0
  3  4  1  0  0  0
  4 16  1  0  0  0
  4  5  2  0  0  0
 16 17  1  0  0  0
 17 18  1  0  0  0
 17 19  1  0  0  0
 19 20  2  0  0  0
 19 21  2  0  0  0
 19 22  1  0  0  0
 22 23  2  0  0  0
 23 24  1  0  0  0
 23 25  1  0  0  0
 25 26  2  0  0  0
 26 27  1  0  0  0
 26 28  1  0  0  0
 28 29  2  0  0  0
 29 30  1  0  0  0
 29 22  1  0  0  0
  5  1  1  0  0  0
M  END
>  <minimizedAffinity>
-6.52588

>  <minimizedRMSD>
1.68664

$$$$
CHEMBL1510960 ChemDiv-3909-8584 MCULE-4784959360 MolPort-007-562-249 PubChem-9550932 ZINC000008680281 ZINC08680281


 35 37  0  0  0  0  0  0  0  0999 V2000
   18.0132  -10.6473   12.5051 N   0  0  0  0  0  0  0  0  0  0  0  0
   18.6468  -11.4699   13.3960 C   0  0  0  0  0  0  0  0  0  0  0  0
   18.4304  -11.3461   14.7344 N   0  0  0  0  0  0  0  0  0  0  0  0
   17.5768  -10.3929   15.1719 C   0  0  0  0  0  0  0  0  0  0  0  0
   16.9149   -9.5397   14.3137 C   0  0  0  0  0  0  0  0  0  0  0  0
   16.0780   -8.6276   14.9856 C   0  0  0  0  0  0  0  0  0  0  0  0
   15.2497   -7.5953   14.2921 C   0  0  0  0  0  0  0  0  0  0  0  0
   16.1106   -8.7977   16.3809 C   0  0  0  0  0  0  0  0  0  0  0  0
   17.1680  -10.0668   16.7621 S   0  0  0  0  0  0  0  0  0  0  0  0
   17.1443   -9.6770   12.9379 C   0  0  0  0  0  0  0  0  0  0  0  0
   16.5624   -8.9231   12.1108 O   0  0  0  0  0  0  0  0  0  0  0  0
   15.3648   -8.0236   17.3906 C   0  0  0  0  0  0  0  0  0  0  0  0
   14.3516   -7.3538   17.0541 O   0  0  0  0  0  0  0  0  0  0  0  0
   15.8068   -8.0432   18.7556 N   0  0  0  0  0  0  0  0  0  0  0  0
   16.6046   -8.5854   18.9523 H   0  0  0  0  0  0  0  0  0  0  0  0
   15.2092   -7.3563   19.8635 C   0  0  0  0  0  0  0  0  0  0  0  0
   16.0275   -6.9191   20.9027 C   0  0  0  0  0  0  0  0  0  0  0  0
   15.4898   -6.2430   22.0076 C   0  0  0  0  0  0  0  0  0  0  0  0
   14.1078   -5.9974   22.0784 C   0  0  0  0  0  0  0  0  0  0  0  0
   13.2679   -6.4394   21.0245 C   0  0  0  0  0  0  0  0  0  0  0  0
   13.8345   -7.1135   19.9314 C   0  0  0  0  0  0  0  0  0  0  0  0
   16.3128   -5.8040   23.0512 O   0  0  0  0  0  0  0  0  0  0  0  0
   17.3591   -6.5979   23.5943 C   0  0  0  0  0  0  0  0  0  0  0  0
   13.6313   -5.3155   23.2110 O   0  0  0  0  0  0  0  0  0  0  0  0
   13.4063   -3.9151   23.2858 C   0  0  0  0  0  0  0  0  0  0  0  0
   11.8878   -6.2100   21.0658 O   0  0  0  0  0  0  0  0  0  0  0  0
   11.2611   -5.1289   20.3878 C   0  0  0  0  0  0  0  0  0  0  0  0
   18.2979  -10.8270   11.0846 C   0  0  0  0  0  0  0  0  0  0  0  0
   18.1035   -9.1215    9.1903 N   0  0  0  0  0  0  0  0  0  0  0  0
   18.6833   -9.5261   10.4426 C   0  0  0  0  0  0  0  0  0  0  0  0
   19.5620   -8.8065   10.9912 O   0  0  0  0  0  0  0  0  0  0  0  0
   18.4051   -8.0234    7.0301 C   0  0  0  0  0  0  0  0  0  0  0  0
   18.5752   -7.9088    8.5337 C   0  0  0  0  0  0  0  0  0  0  0  0
   17.1884   -9.9933    8.4606 C   0  0  0  0  0  0  0  0  0  0  0  0
   15.8045   -9.9445    9.0808 C   0  0  0  0  0  0  0  0  0  0  0  0
 32 33  1  0  0  0
 33 29  1  0  0  0
 29 34  1  0  0  0
 29 30  1  0  0  0
 34 35  1  0  0  0
 30 31  2  0  0  0
 30 28  1  0  0  0
 28  1  1  0  0  0
  1  2  1  0  0  0
  2  3  2  0  0  0
  3  4  1  0  0  0
  4  5  2  0  0  0
  5  6  1  0  0  0
  5 10  1  0  0  0
  6  7  1  0  0  0
  6  8  2  0  0  0
  8  9  1  0  0  0
  8 12  1  0  0  0
  9  4  1  0  0  0
 12 13  2  0  0  0
 12 14  1  0  0  0
 14 16  1  0  0  0
 16 17  2  0  0  0
 17 18  1  0  0  0
 18 22  1  0  0  0
 18 19  2  0  0  0
 22 23  1  0  0  0
 19 24  1  0  0  0
 19 20  1  0  0  0
 24 25  1  0  0  0
 20 26  1  0  0  0
 20 21  2  0  0  0
 26 27  1  0  0  0
 21 16  1  0  0  0
 10 11  2  0  0  0
 10  1  1  0  0  0
 14 15  1  0  0  0
M  END
>  <minimizedAffinity>
-6.52425

>  <minimizedRMSD>
1.78559

$$$$
CHEMBL1917524 PubChem-56833534


 29 30  0  0  0  0  0  0  0  0999 V2000
   15.8498   -8.1902   18.4757 O   0  0  0  0  0  0  0  0  0  0  0  0
   14.7121   -7.5118   18.9212 C   0  0  0  0  0  0  0  0  0  0  0  0
   13.5796   -7.4314   18.0994 C   0  0  0  0  0  0  0  0  0  0  0  0
   12.4255   -6.7626   18.5124 C   0  0  0  0  0  0  0  0  0  0  0  0
   12.4187   -6.1033   19.7649 C   0  0  0  0  0  0  0  0  0  0  0  0
   13.5431   -6.2053   20.5929 C   0  0  0  0  0  0  0  0  0  0  0  0
   14.6881   -6.9096   20.1980 C   0  0  0  0  0  0  0  0  0  0  0  0
   11.3285   -5.2710   20.1862 N   0  0  0  0  0  0  0  0  0  0  0  0
   10.8426   -4.4287   19.4033 O   0  0  0  0  0  0  0  0  0  0  0  0
   11.0010   -5.2012   21.5208 O   0  0  0  0  0  0  0  0  0  0  0  0
   15.8088   -6.9755   21.1002 N   0  0  0  0  0  0  0  0  0  0  0  0
   16.9489   -6.6078   20.7496 O   0  0  0  0  0  0  0  0  0  0  0  0
   15.6363   -7.4676   22.3739 O   0  0  0  0  0  0  0  0  0  0  0  0
   11.3179   -6.7985   17.6589 O   0  0  0  0  0  0  0  0  0  0  0  0
   10.3729   -7.8591   17.6687 C   0  0  0  0  0  0  0  0  0  0  0  0
   17.0451   -9.0124   16.6802 N   0  0  0  0  0  0  0  0  0  0  0  0
   18.2082   -8.7845   17.3834 O   0  0  0  0  0  0  0  0  0  0  0  0
   15.9218   -8.7253   17.2071 N   0  0  0  0  0  0  0  0  0  0  0  0
   17.2367   -9.4496   11.2199 C   0  0  0  0  0  0  0  0  0  0  0  0
   16.2433   -8.9988   10.5844 O   0  0  0  0  0  0  0  0  0  0  0  0
   17.1145   -9.7647   12.6123 N   0  0  0  0  0  0  0  0  0  0  0  0
   18.2642  -10.3145   13.3293 C   0  0  0  0  0  0  0  0  0  0  0  0
   18.3980   -9.6463   14.6969 C   0  0  0  0  0  0  0  0  0  0  0  0
   17.1045   -9.5563   15.3827 N   0  0  0  0  0  0  0  0  0  0  0  0
   15.8930  -10.0724   14.7405 C   0  0  0  0  0  0  0  0  0  0  0  0
   15.8255   -9.5958   13.2910 C   0  0  0  0  0  0  0  0  0  0  0  0
   18.4587   -9.6398   10.5691 O   0  0  0  0  0  0  0  0  0  0  0  0
   19.4853   -7.7841    9.4520 C   0  0  0  0  0  0  0  0  0  0  0  0
   18.7238   -9.0830    9.2902 C   0  0  0  0  0  0  0  0  0  0  0  0
 28 29  1  0  0  0
 29 27  1  0  0  0
 27 19  1  0  0  0
 19 20  2  0  0  0
 19 21  1  0  0  0
 21 22  1  0  0  0
 22 23  1  0  0  0
 23 24  1  0  0  0
 24 16  1  0  0  0
 24 25  1  0  0  0
 16 17  1  0  0  0
 16 18  2  0  0  0
 18  1  1  0  0  0
  1  2  1  0  0  0
  2  3  2  0  0  0
  3  4  1  0  0  0
  4 14  1  0  0  0
  4  5  2  0  0  0
 14 15  1  0  0  0
  5  8  1  0  0  0
  5  6  1  0  0  0
  8  9  2  0  0  0
  8 10  1  0  0  0
  6  7  2  0  0  0
  7 11  1  0  0  0
  7  2  1  0  0  0
 11 12  2  0  0  0
 11 13  1  0  0  0
 25 26  1  0  0  0
 26 21  1  0  0  0
M  CHG 1   8   1
M  CHG 1  10  -1
M  CHG 1  11   1
M  CHG 1  13  -1
M  CHG 1  16   1
M  CHG 1  17  -1
M  END
>  <minimizedAffinity>
-6.49308

>  <minimizedRMSD>
1.83770

$$$$
CHEMBL429293 PubChem-44440590


 35 39  0  0  0  0  0  0  0  0999 V2000
   16.1580   -9.0930   15.9870 N   0  0  0  0  0  0  0  0  0  0  0  0
   16.7935  -10.3695   15.9245 C   0  0  0  0  0  0  0  0  0  0  0  0
   16.8691  -11.1621   16.9001 O   0  0  0  0  0  0  0  0  0  0  0  0
   17.3554  -10.6676   14.5713 C   0  0  0  0  0  0  0  0  0  0  0  0
   17.0118   -9.4712   13.8041 N   0  0  0  0  0  0  0  0  0  0  0  0
   16.3128   -8.5763   14.6714 C   0  0  0  0  0  0  0  0  0  0  0  0
   15.8755   -7.4515   14.3085 O   0  0  0  0  0  0  0  0  0  0  0  0
   13.5560   -7.3537   18.0722 C   0  0  0  0  0  0  0  0  0  0  0  0
   14.2104   -7.9544   16.9911 C   0  0  0  0  0  0  0  0  0  0  0  0
   15.5036   -8.4783   17.1150 C   0  0  0  0  0  0  0  0  0  0  0  0
   16.1483   -8.3939   18.3538 C   0  0  0  0  0  0  0  0  0  0  0  0
   15.5128   -7.8016   19.4443 C   0  0  0  0  0  0  0  0  0  0  0  0
   14.2164   -7.2763   19.3228 C   0  0  0  0  0  0  0  0  0  0  0  0
   11.7956   -5.5843   18.2593 C   0  0  0  0  0  0  0  0  0  0  0  0
   12.2643   -6.8579   17.8399 O   0  0  0  0  0  0  0  0  0  0  0  0
   13.5864   -6.6905   20.4286 O   0  0  0  0  0  0  0  0  0  0  0  0
   13.8196   -7.0949   21.7748 C   0  0  0  0  0  0  0  0  0  0  0  0
   14.5749   -6.0128   22.5329 C   0  0  0  0  0  0  0  0  0  0  0  0
   13.6755   -4.9247   22.8835 N   0  0  0  0  0  0  0  0  0  0  0  0
   12.3394   -5.4936   23.0133 C   0  0  0  0  0  0  0  0  0  0  0  0
   11.7268   -4.9408   24.2751 C   0  0  0  0  0  0  0  0  0  0  0  0
   12.9077   -4.6755   25.1629 C   0  0  0  0  0  0  0  0  0  0  0  0
   14.0663   -4.4601   24.2112 C   0  0  0  0  0  0  0  0  0  0  0  0
   17.3262   -9.2750   12.4139 C   0  0  0  0  0  0  0  0  0  0  0  0
   18.6625   -9.1637   12.0048 C   0  0  0  0  0  0  0  0  0  0  0  0
   18.9795   -8.9756   10.6573 C   0  0  0  0  0  0  0  0  0  0  0  0
   17.9665   -8.8953    9.6890 C   0  0  0  0  0  0  0  0  0  0  0  0
   16.6293   -9.0068   10.1005 C   0  0  0  0  0  0  0  0  0  0  0  0
   16.3131   -9.1943   11.4483 C   0  0  0  0  0  0  0  0  0  0  0  0
   18.3026   -8.6973    8.2586 C   0  0  0  0  0  0  0  0  0  0  0  0
   17.6148   -9.4041    7.2574 C   0  0  0  0  0  0  0  0  0  0  0  0
   17.9318   -9.2172    5.9088 C   0  0  0  0  0  0  0  0  0  0  0  0
   18.9396   -8.3207    5.5456 C   0  0  0  0  0  0  0  0  0  0  0  0
   19.6307   -7.6112    6.5306 C   0  0  0  0  0  0  0  0  0  0  0  0
   19.3142   -7.7987    7.8793 C   0  0  0  0  0  0  0  0  0  0  0  0
 14 15  1  0  0  0
 15  8  1  0  0  0
  8  9  2  0  0  0
  9 10  1  0  0  0
 10  1  1  0  0  0
 10 11  2  0  0  0
  1  2  1  0  0  0
  2  3  2  0  0  0
  2  4  1  0  0  0
  4  5  1  0  0  0
  5 24  1  0  0  0
  5  6  1  0  0  0
 24 25  2  0  0  0
 25 26  1  0  0  0
 26 27  2  0  0  0
 27 30  1  0  0  0
 27 28  1  0  0  0
 30 31  2  0  0  0
 31 32  1  0  0  0
 32 33  2  0  0  0
 33 34  1  0  0  0
 34 35  2  0  0  0
 35 30  1  0  0  0
 28 29  2  0  0  0
 29 24  1  0  0  0
  6  7  2  0  0  0
  6  1  1  0  0  0
 11 12  1  0  0  0
 12 13  2  0  0  0
 13 16  1  0  0  0
 13  8  1  0  0  0
 16 17  1  0  0  0
 17 18  1  0  0  0
 18 19  1  0  0  0
 19 20  1  0  0  0
 20 21  1  0  0  0
 21 22  1  0  0  0
 22 23  1  0  0  0
 23 19  1  0  0  0
M  END
>  <minimizedAffinity>
-6.49055

>  <minimizedRMSD>
1.85572

$$$$
CHEMBL1888153 NSC94541 PubChem-261665


 31 32  0  0  0  0  0  0  0  0999 V2000
   14.6030   -7.3424   19.7823 C   0  0  0  0  0  0  0  0  0  0  0  0
   15.6100   -8.0838   19.9460 O   0  0  0  0  0  0  0  0  0  0  0  0
   14.0953   -7.0757   18.4638 N   0  0  0  0  0  0  0  0  0  0  0  0
   13.3072   -6.4895   18.3970 H   0  0  0  0  0  0  0  0  0  0  0  0
   12.0505   -5.5431   21.9261 C   0  0  0  0  0  0  0  0  0  0  0  0
   12.6975   -6.1195   20.8214 C   0  0  0  0  0  0  0  0  0  0  0  0
   13.9401   -6.7434   20.9542 C   0  0  0  0  0  0  0  0  0  0  0  0
   14.5447   -6.7915   22.2123 C   0  0  0  0  0  0  0  0  0  0  0  0
   13.9213   -6.2242   23.3329 C   0  0  0  0  0  0  0  0  0  0  0  0
   12.6711   -5.5961   23.2002 C   0  0  0  0  0  0  0  0  0  0  0  0
   10.1730   -4.7765   20.4982 C   0  0  0  0  0  0  0  0  0  0  0  0
   10.8055   -4.9244   21.7628 O   0  0  0  0  0  0  0  0  0  0  0  0
   14.5276   -6.2726   24.5936 O   0  0  0  0  0  0  0  0  0  0  0  0
   15.6356   -7.1139   24.8844 C   0  0  0  0  0  0  0  0  0  0  0  0
   12.0995   -5.0472   24.3608 O   0  0  0  0  0  0  0  0  0  0  0  0
   11.2044   -3.9446   24.3868 C   0  0  0  0  0  0  0  0  0  0  0  0
   14.6248   -7.5782   17.2595 N   0  0  0  0  0  0  0  0  0  0  0  0
   15.7483   -8.2196   17.1855 C   0  0  0  0  0  0  0  0  0  0  0  0
   16.2594   -8.7246   15.9074 C   0  0  0  0  0  0  0  0  0  0  0  0
   15.4090   -8.9330   14.8135 C   0  0  0  0  0  0  0  0  0  0  0  0
   15.9221   -9.4154   13.6067 C   0  0  0  0  0  0  0  0  0  0  0  0
   17.2918   -9.6967   13.4739 C   0  0  0  0  0  0  0  0  0  0  0  0
   18.1361   -9.4841   14.5761 C   0  0  0  0  0  0  0  0  0  0  0  0
   17.6232   -9.0018   15.7832 C   0  0  0  0  0  0  0  0  0  0  0  0
   17.8217  -10.1952   12.2271 N   0  0  0  0  0  0  0  0  0  0  0  0
   17.6046   -9.4845   10.9720 C   0  0  0  0  0  0  0  0  0  0  0  0
   18.9186   -9.3075   10.2337 C   0  0  0  0  0  0  0  0  0  0  0  0
   18.8767   -7.7902    9.3091 Cl  0  0  0  0  0  0  0  0  0  0  0  0
   18.6073  -11.4246   12.1688 C   0  0  0  0  0  0  0  0  0  0  0  0
   19.1457  -11.7903   13.5440 C   0  0  0  0  0  0  0  0  0  0  0  0
   18.1185  -13.0299   14.3052 Cl  0  0  0  0  0  0  0  0  0  0  0  0
 11 12  1  0  0  0
 12  5  1  0  0  0
  5  6  2  0  0  0
  6  7  1  0  0  0
  7  1  1  0  0  0
  7  8  2  0  0  0
  1  2  2  0  0  0
  1  3  1  0  0  0
  3 17  1  0  0  0
 17 18  2  0  0  0
 18 19  1  0  0  0
 19 20  2  0  0  0
 20 21  1  0  0  0
 21 22  2  0  0  0
 22 25  1  0  0  0
 22 23  1  0  0  0
 25 26  1  0  0  0
 25 29  1  0  0  0
 26 27  1  0  0  0
 27 28  1  0  0  0
 29 30  1  0  0  0
 30 31  1  0  0  0
 23 24  2  0  0  0
 24 19  1  0  0  0
  8  9  1  0  0  0
  9 13  1  0  0  0
  9 10  2  0  0  0
 13 14  1  0  0  0
 10 15  1  0  0  0
 10  5  1  0  0  0
 15 16  1  0  0  0
  3  4  1  0  0  0
M  END
>  <minimizedAffinity>
-6.48600

>  <minimizedRMSD>
1.97521

$$$$
CHEMBL1872488 13112627 CSC025893122 MCULE-9654642941 MolPort-003-322-322 PubChem-16308084 Z16599924 ZINC000013112627


 34 36  0  0  0  0  0  0  0  0999 V2000
   15.9776   -8.8547   15.1634 N   0  0  0  0  0  0  0  0  0  0  0  0
   16.5277   -9.3909   16.3685 C   0  0  0  0  0  0  0  0  0  0  0  0
   16.7377  -10.6277   16.4844 O   0  0  0  0  0  0  0  0  0  0  0  0
   15.7812   -7.8907   15.1250 H   0  0  0  0  0  0  0  0  0  0  0  0
   15.6938   -9.6696   13.9886 C   0  0  0  0  0  0  0  0  0  0  0  0
   16.9844  -10.1253   13.3168 C   0  0  0  0  0  0  0  0  0  0  0  0
   16.7649   -9.5700    9.0539 C   0  0  0  0  0  0  0  0  0  0  0  0
   17.9804   -9.3201    9.7400 C   0  0  0  0  0  0  0  0  0  0  0  0
   18.0343   -9.5138   11.1307 C   0  0  0  0  0  0  0  0  0  0  0  0
   16.9116   -9.9481   11.8376 C   0  0  0  0  0  0  0  0  0  0  0  0
   15.7161  -10.1883   11.1600 C   0  0  0  0  0  0  0  0  0  0  0  0
   15.6477  -10.0020    9.7786 C   0  0  0  0  0  0  0  0  0  0  0  0
   16.6046   -9.4103    7.6689 O   0  0  0  0  0  0  0  0  0  0  0  0
   18.2576   -8.6740    6.0964 C   0  0  0  0  0  0  0  0  0  0  0  0
   17.0507   -8.2859    6.9242 C   0  0  0  0  0  0  0  0  0  0  0  0
   19.1158   -8.8851    9.0471 O   0  0  0  0  0  0  0  0  0  0  0  0
   19.8116   -7.6894    9.3739 C   0  0  0  0  0  0  0  0  0  0  0  0
   21.0485   -8.0301   10.1772 C   0  0  0  0  0  0  0  0  0  0  0  0
   16.8221   -8.4824   17.5121 C   0  0  0  0  0  0  0  0  0  0  0  0
   15.7516   -8.5061   18.4489 O   0  0  0  0  0  0  0  0  0  0  0  0
   14.6754   -7.6150   18.3854 C   0  0  0  0  0  0  0  0  0  0  0  0
   14.2035   -7.2782   17.2649 O   0  0  0  0  0  0  0  0  0  0  0  0
   14.1159   -7.0780   19.6490 C   0  0  0  0  0  0  0  0  0  0  0  0
   13.0028   -6.2106   19.7137 C   0  0  0  0  0  0  0  0  0  0  0  0
   12.5608   -5.7657   20.9805 C   0  0  0  0  0  0  0  0  0  0  0  0
   11.4568   -4.9036   21.0723 C   0  0  0  0  0  0  0  0  0  0  0  0
   10.7914   -4.4822   19.9200 C   0  0  0  0  0  0  0  0  0  0  0  0
   11.2228   -4.9184   18.6671 C   0  0  0  0  0  0  0  0  0  0  0  0
   12.3201   -5.7761   18.5653 C   0  0  0  0  0  0  0  0  0  0  0  0
   13.2343   -6.1948   22.1307 C   0  0  0  0  0  0  0  0  0  0  0  0
   12.8551   -5.8085   23.2725 O   0  0  0  0  0  0  0  0  0  0  0  0
   14.3030   -7.0335   22.0075 N   0  0  0  0  0  0  0  0  0  0  0  0
   15.0216   -7.4960   23.1850 C   0  0  0  0  0  0  0  0  0  0  0  0
   14.7173   -7.4512   20.8106 N   0  0  0  0  0  0  0  0  0  0  0  0
 14 15  1  0  0  0
 15 13  1  0  0  0
 13  7  1  0  0  0
  7  8  2  0  0  0
  8 16  1  0  0  0
 16 17  1  0  0  0
 17 18  1  0  0  0
  8  9  1  0  0  0
  9 10  2  0  0  0
 10  6  1  0  0  0
  6  5  1  0  0  0
  5  1  1  0  0  0
  1  2  1  0  0  0
  2 19  1  0  0  0
 19 20  1  0  0  0
 20 21  1  0  0  0
 21 23  1  0  0  0
 23 24  1  0  0  0
 24 25  1  0  0  0
 25 26  2  0  0  0
 26 27  1  0  0  0
 27 28  2  0  0  0
 28 29  1  0  0  0
 25 30  1  0  0  0
 30 31  2  0  0  0
 30 32  1  0  0  0
 32 33  1  0  0  0
 32 34  1  0  0  0
 21 22  2  0  0  0
  2  3  2  0  0  0
 10 11  1  0  0  0
 11 12  2  0  0  0
 12  7  1  0  0  0
 34 23  2  0  0  0
 29 24  2  0  0  0
  1  4  1  0  0  0
M  END
>  <minimizedAffinity>
-6.48025

>  <minimizedRMSD>
1.35093

$$$$
CHEMBL2031275 PubChem-44463318


 38 40  0  0  0  0  0  0  0  0999 V2000
   16.9881   -8.6615   16.4174 N   0  0  0  0  0  0  0  0  0  0  0  0
   15.6304   -8.6588   16.8766 C   0  0  0  0  0  0  0  0  0  0  0  0
   14.7865   -9.4644   16.3988 O   0  0  0  0  0  0  0  0  0  0  0  0
   15.2483   -7.7235   17.8907 N   0  0  0  0  0  0  0  0  0  0  0  0
   13.9378   -7.6060   18.4624 C   0  0  0  0  0  0  0  0  0  0  0  0
   13.0082   -8.3737   18.0914 O   0  0  0  0  0  0  0  0  0  0  0  0
   17.5987   -8.0180   16.8443 H   0  0  0  0  0  0  0  0  0  0  0  0
   15.9426   -7.1100   18.2235 H   0  0  0  0  0  0  0  0  0  0  0  0
   18.0263  -10.0182   13.0680 C   0  0  0  0  0  0  0  0  0  0  0  0
   18.6798  -11.1918   13.4708 C   0  0  0  0  0  0  0  0  0  0  0  0
   18.7697  -11.5197   14.8258 C   0  0  0  0  0  0  0  0  0  0  0  0
   18.2067  -10.6763   15.7869 C   0  0  0  0  0  0  0  0  0  0  0  0
   17.5509   -9.5030   15.4014 C   0  0  0  0  0  0  0  0  0  0  0  0
   17.4659   -9.1809   14.0382 C   0  0  0  0  0  0  0  0  0  0  0  0
   18.9183   -9.0075   10.8831 C   0  0  0  0  0  0  0  0  0  0  0  0
   20.0443   -8.7175   11.3718 O   0  0  0  0  0  0  0  0  0  0  0  0
   17.9146   -9.6453   11.6878 N   0  0  0  0  0  0  0  0  0  0  0  0
   17.0589   -9.8481   11.2450 H   0  0  0  0  0  0  0  0  0  0  0  0
   18.0745   -8.0844    6.7817 C   0  0  0  0  0  0  0  0  0  0  0  0
   18.9736   -7.2935    7.5150 C   0  0  0  0  0  0  0  0  0  0  0  0
   19.2482   -7.5946    8.8517 C   0  0  0  0  0  0  0  0  0  0  0  0
   18.6299   -8.6888    9.4735 C   0  0  0  0  0  0  0  0  0  0  0  0
   17.7330   -9.4765    8.7383 C   0  0  0  0  0  0  0  0  0  0  0  0
   17.4577   -9.1754    7.4016 C   0  0  0  0  0  0  0  0  0  0  0  0
   18.6466   -8.1657    4.3767 C   0  0  0  0  0  0  0  0  0  0  0  0
   17.7784   -7.8097    5.4439 O   0  0  0  0  0  0  0  0  0  0  0  0
   13.6768   -6.5833   19.4907 C   0  0  0  0  0  0  0  0  0  0  0  0
   14.5009   -6.4837   20.6133 C   0  0  0  0  0  0  0  0  0  0  0  0
   14.2631   -5.5137   21.5974 C   0  0  0  0  0  0  0  0  0  0  0  0
   13.1835   -4.6241   21.4625 C   0  0  0  0  0  0  0  0  0  0  0  0
   12.3410   -4.7191   20.3254 C   0  0  0  0  0  0  0  0  0  0  0  0
   12.6029   -5.6999   19.3556 C   0  0  0  0  0  0  0  0  0  0  0  0
   15.0897   -5.4143   22.7226 O   0  0  0  0  0  0  0  0  0  0  0  0
   16.1218   -6.3495   23.0059 C   0  0  0  0  0  0  0  0  0  0  0  0
   12.9993   -3.6751   22.4825 O   0  0  0  0  0  0  0  0  0  0  0  0
   12.1287   -3.8300   23.5940 C   0  0  0  0  0  0  0  0  0  0  0  0
   11.2573   -3.8478   20.1643 O   0  0  0  0  0  0  0  0  0  0  0  0
   10.1984   -4.0887   19.2468 C   0  0  0  0  0  0  0  0  0  0  0  0
 25 26  1  0  0  0
 26 19  1  0  0  0
 19 20  2  0  0  0
 20 21  1  0  0  0
 21 22  2  0  0  0
 22 15  1  0  0  0
 22 23  1  0  0  0
 15 16  2  0  0  0
 15 17  1  0  0  0
 17  9  1  0  0  0
  9 10  2  0  0  0
 10 11  1  0  0  0
 11 12  2  0  0  0
 12 13  1  0  0  0
 13  1  1  0  0  0
 13 14  2  0  0  0
  1  2  1  0  0  0
  2  3  2  0  0  0
  2  4  1  0  0  0
  4  5  1  0  0  0
  5  6  2  0  0  0
  5 27  1  0  0  0
 27 28  2  0  0  0
 28 29  1  0  0  0
 29 33  1  0  0  0
 29 30  2  0  0  0
 33 34  1  0  0  0
 30 35  1  0  0  0
 30 31  1  0  0  0
 35 36  1  0  0  0
 31 37  1  0  0  0
 31 32  2  0  0  0
 37 38  1  0  0  0
 32 27  1  0  0  0
 14  9  1  0  0  0
 23 24  2  0  0  0
 24 19  1  0  0  0
 17 18  1  0  0  0
  1  7  1  0  0  0
  4  8  1  0  0  0
M  END
>  <minimizedAffinity>
-6.47887

>  <minimizedRMSD>
1.89275

$$$$
CHEMBL3234914 PubChem-90670571


 26 28  0  0  0  0  0  0  0  0999 V2000
   16.1107   -8.7635   15.9635 C   0  0  0  0  0  0  0  0  0  0  0  0
   16.6785   -9.2946   17.1283 C   0  0  0  0  0  0  0  0  0  0  0  0
   16.2442   -8.8767   18.3854 C   0  0  0  0  0  0  0  0  0  0  0  0
   15.2318   -7.9117   18.4884 C   0  0  0  0  0  0  0  0  0  0  0  0
   14.6959   -7.4009   17.3449 N   0  0  0  0  0  0  0  0  0  0  0  0
   15.1057   -7.7957   16.1101 C   0  0  0  0  0  0  0  0  0  0  0  0
   17.3469   -9.8698   11.9773 C   0  0  0  0  0  0  0  0  0  0  0  0
   16.3195   -8.9436   12.1881 C   0  0  0  0  0  0  0  0  0  0  0  0
   15.9357   -8.6053   13.4853 C   0  0  0  0  0  0  0  0  0  0  0  0
   16.5643   -9.1781   14.6046 C   0  0  0  0  0  0  0  0  0  0  0  0
   17.5991  -10.1251   14.3912 C   0  0  0  0  0  0  0  0  0  0  0  0
   17.9760  -10.4531   13.0772 C   0  0  0  0  0  0  0  0  0  0  0  0
   18.0552   -9.2718    9.6838 C   0  0  0  0  0  0  0  0  0  0  0  0
   17.7594  -10.2294   10.6913 O   0  0  0  0  0  0  0  0  0  0  0  0
   18.2341  -10.7423   15.4761 O   0  0  0  0  0  0  0  0  0  0  0  0
   18.1822  -12.1435   15.7102 C   0  0  0  0  0  0  0  0  0  0  0  0
   14.7577   -7.4561   19.8262 C   0  0  0  0  0  0  0  0  0  0  0  0
   15.7001   -6.9687   20.7486 C   0  0  0  0  0  0  0  0  0  0  0  0
   15.3126   -6.5294   22.0141 C   0  0  0  0  0  0  0  0  0  0  0  0
   13.9653   -6.5672   22.3898 C   0  0  0  0  0  0  0  0  0  0  0  0
   13.0180   -7.0483   21.4859 C   0  0  0  0  0  0  0  0  0  0  0  0
   13.3925   -7.4948   20.2065 C   0  0  0  0  0  0  0  0  0  0  0  0
   13.5415   -6.1351   23.6495 O   0  0  0  0  0  0  0  0  0  0  0  0
   14.4406   -5.9109   24.7270 C   0  0  0  0  0  0  0  0  0  0  0  0
   12.4202   -7.9732   19.3192 O   0  0  0  0  0  0  0  0  0  0  0  0
   11.3574   -7.1681   18.8263 C   0  0  0  0  0  0  0  0  0  0  0  0
 13 14  1  0  0  0
 14  7  1  0  0  0
  7  8  2  0  0  0
  8  9  1  0  0  0
  9 10  2  0  0  0
 10  1  1  0  0  0
 10 11  1  0  0  0
  1  2  2  0  0  0
  2  3  1  0  0  0
  3  4  2  0  0  0
  4 17  1  0  0  0
  4  5  1  0  0  0
 17 18  2  0  0  0
 18 19  1  0  0  0
 19 20  2  0  0  0
 20 23  1  0  0  0
 20 21  1  0  0  0
 23 24  1  0  0  0
 21 22  2  0  0  0
 22 25  1  0  0  0
 22 17  1  0  0  0
 25 26  1  0  0  0
  5  6  2  0  0  0
  6  1  1  0  0  0
 11 15  1  0  0  0
 11 12  2  0  0  0
 15 16  1  0  0  0
 12  7  1  0  0  0
M  END
>  <minimizedAffinity>
-6.47679

>  <minimizedRMSD>
1.53254

$$$$
CHEMBL4159742 PubChem-145960126


 29 31  0  0  0  0  0  0  0  0999 V2000
   17.5127  -10.5515   15.8808 C   0  0  0  0  0  0  0  0  0  0  0  0
   17.3228  -10.3442   17.2449 C   0  0  0  0  0  0  0  0  0  0  0  0
   16.4722   -9.3762   17.6716 N   0  0  0  0  0  0  0  0  0  0  0  0
   15.7956   -8.5976   16.7847 C   0  0  0  0  0  0  0  0  0  0  0  0
   15.9728   -8.7908   15.4511 N   0  0  0  0  0  0  0  0  0  0  0  0
   16.8146   -9.7483   14.9744 C   0  0  0  0  0  0  0  0  0  0  0  0
   16.9698   -9.9149   13.5127 C   0  0  0  0  0  0  0  0  0  0  0  0
   15.8431   -9.3725   12.3807 S   0  0  0  0  0  0  0  0  0  0  0  0
   16.7309   -9.9213   11.0676 C   0  0  0  0  0  0  0  0  0  0  0  0
   17.8760  -10.5211   11.4531 N   0  0  0  0  0  0  0  0  0  0  0  0
   18.0199  -10.5213   12.8053 C   0  0  0  0  0  0  0  0  0  0  0  0
   19.2224  -11.1347   13.4359 C   0  0  0  0  0  0  0  0  0  0  0  0
   16.2260   -9.7556    9.3608 S   0  0  0  0  0  0  0  0  0  0  0  0
   17.9018   -9.3106    8.8121 C   0  0  0  0  0  0  0  0  0  0  0  0
   17.8377   -8.3688    7.6232 C   0  0  0  0  0  0  0  0  0  0  0  0
   18.8265   -7.3912    7.7328 O   0  0  0  0  0  0  0  0  0  0  0  0
   19.3014   -7.5181    9.0371 C   0  0  0  0  0  0  0  0  0  0  0  0
   14.8950   -7.5730   17.2271 N   0  0  0  0  0  0  0  0  0  0  0  0
   14.5638   -6.9569   16.5343 H   0  0  0  0  0  0  0  0  0  0  0  0
   14.4194   -7.3401   18.5626 C   0  0  0  0  0  0  0  0  0  0  0  0
   13.0630   -7.0318   18.7594 C   0  0  0  0  0  0  0  0  0  0  0  0
   12.5852   -6.8018   20.0602 C   0  0  0  0  0  0  0  0  0  0  0  0
   13.4469   -6.8766   21.1643 C   0  0  0  0  0  0  0  0  0  0  0  0
   14.7934   -7.1835   20.9610 C   0  0  0  0  0  0  0  0  0  0  0  0
   15.2759   -7.4134   19.6711 C   0  0  0  0  0  0  0  0  0  0  0  0
   12.9923   -6.6514   22.4665 O   0  0  0  0  0  0  0  0  0  0  0  0
   12.2395   -5.5018   22.8287 C   0  0  0  0  0  0  0  0  0  0  0  0
   12.2087   -6.9588   17.6531 O   0  0  0  0  0  0  0  0  0  0  0  0
   10.8695   -7.4338   17.6818 C   0  0  0  0  0  0  0  0  0  0  0  0
  1  2  2  0  0  0
  2  3  1  0  0  0
  3  4  2  0  0  0
  4  5  1  0  0  0
  5  6  2  0  0  0
  6  7  1  0  0  0
  7  8  1  0  0  0
  8  9  1  0  0  0
  9 10  2  0  0  0
 10 11  1  0  0  0
 11 12  1  0  0  0
  9 13  1  0  0  0
 13 14  1  0  0  0
 14 15  1  0  0  0
 15 16  1  0  0  0
 16 17  1  0  0  0
  4 18  1  0  0  0
 18 20  1  0  0  0
 20 21  2  0  0  0
 21 22  1  0  0  0
 22 23  2  0  0  0
 23 24  1  0  0  0
 24 25  2  0  0  0
 23 26  1  0  0  0
 26 27  1  0  0  0
 21 28  1  0  0  0
 28 29  1  0  0  0
  6  1  1  0  0  0
 11  7  2  0  0  0
 25 20  1  0  0  0
 18 19  1  0  0  0
M  END
>  <minimizedAffinity>
-6.47127

>  <minimizedRMSD>
1.53554

$$$$
CHEMBL3318078 PubChem-118708610


 34 36  0  0  0  0  0  0  0  0999 V2000
   15.6534   -6.8664   20.1871 C   0  0  0  0  0  0  0  0  0  0  0  0
   16.8287   -6.6574   20.5960 O   0  0  0  0  0  0  0  0  0  0  0  0
   15.4661   -7.5176   18.9217 N   0  0  0  0  0  0  0  0  0  0  0  0
   16.2406   -8.4921   18.4792 N   0  0  0  0  0  0  0  0  0  0  0  0
   15.7735   -8.7953   17.2518 C   0  0  0  0  0  0  0  0  0  0  0  0
   14.7249   -8.0269   16.8751 N   0  0  0  0  0  0  0  0  0  0  0  0
   14.5668   -7.2405   17.9560 C   0  0  0  0  0  0  0  0  0  0  0  0
   13.6461   -6.1535   17.9995 N   0  0  0  0  0  0  0  0  0  0  0  0
   13.0164   -6.0117   17.2561 H   0  0  0  0  0  0  0  0  0  0  0  0
   13.6397   -5.5443   18.7729 H   0  0  0  0  0  0  0  0  0  0  0  0
   14.5100   -6.4853   21.0447 C   0  0  0  0  0  0  0  0  0  0  0  0
   14.6582   -6.4435   22.4314 C   0  0  0  0  0  0  0  0  0  0  0  0
   13.5896   -6.1157   23.2701 C   0  0  0  0  0  0  0  0  0  0  0  0
   12.3189   -5.8197   22.7083 C   0  0  0  0  0  0  0  0  0  0  0  0
   12.1590   -5.8866   21.2990 C   0  0  0  0  0  0  0  0  0  0  0  0
   13.2570   -6.2225   20.4938 C   0  0  0  0  0  0  0  0  0  0  0  0
   10.9157   -5.6310   20.7059 O   0  0  0  0  0  0  0  0  0  0  0  0
   10.7364   -4.6832   19.6612 C   0  0  0  0  0  0  0  0  0  0  0  0
   11.2635   -5.4711   23.5686 O   0  0  0  0  0  0  0  0  0  0  0  0
   10.7987   -4.1498   23.8149 C   0  0  0  0  0  0  0  0  0  0  0  0
   13.8579   -6.1051   24.6478 O   0  0  0  0  0  0  0  0  0  0  0  0
   15.1241   -6.3663   25.2387 C   0  0  0  0  0  0  0  0  0  0  0  0
   16.3425   -9.8360   16.4478 N   0  0  0  0  0  0  0  0  0  0  0  0
   16.6278  -10.6521   16.9187 H   0  0  0  0  0  0  0  0  0  0  0  0
   16.5388   -9.8107   15.0284 C   0  0  0  0  0  0  0  0  0  0  0  0
   15.5519   -9.3383   14.1488 C   0  0  0  0  0  0  0  0  0  0  0  0
   15.7813   -9.3260   12.7698 C   0  0  0  0  0  0  0  0  0  0  0  0
   16.9996   -9.7853   12.2593 C   0  0  0  0  0  0  0  0  0  0  0  0
   17.9885  -10.2536   13.1327 C   0  0  0  0  0  0  0  0  0  0  0  0
   17.7574  -10.2653   14.5113 C   0  0  0  0  0  0  0  0  0  0  0  0
   17.2480   -9.7553   10.7873 C   0  0  0  0  0  0  0  0  0  0  0  0
   18.5621   -9.0516   10.4628 C   0  0  0  0  0  0  0  0  0  0  0  0
   18.4833   -8.2950    9.1435 C   0  0  0  0  0  0  0  0  0  0  0  0
   17.5462   -9.0034    8.1823 C   0  0  0  0  0  0  0  0  0  0  0  0
  1  2  2  0  0  0
  1 11  1  0  0  0
 11 12  2  0  0  0
 12 13  1  0  0  0
 13 14  2  0  0  0
 14 15  1  0  0  0
 15 16  2  0  0  0
 15 17  1  0  0  0
 17 18  1  0  0  0
 14 19  1  0  0  0
 19 20  1  0  0  0
 13 21  1  0  0  0
 21 22  1  0  0  0
  1  3  1  0  0  0
  3  4  1  0  0  0
  4  5  2  0  0  0
  5  6  1  0  0  0
  6  7  2  0  0  0
  7  8  1  0  0  0
  5 23  1  0  0  0
 23 25  1  0  0  0
 25 26  2  0  0  0
 26 27  1  0  0  0
 27 28  2  0  0  0
 28 29  1  0  0  0
 29 30  2  0  0  0
 28 31  1  0  0  0
 31 32  1  0  0  0
 32 33  1  0  0  0
 33 34  1  0  0  0
 16 11  1  0  0  0
  7  3  1  0  0  0
 30 25  1  0  0  0
  8  9  1  0  0  0
  8 10  1  0  0  0
 23 24  1  0  0  0
M  END
>  <minimizedAffinity>
-6.47110

>  <minimizedRMSD>
1.94416

$$$$
CHEMBL1195398 CHEMBL554449 PubChem-44338647 PubChem-9802802 PubChem-9802803


 28 31  0  0  0  0  0  0  0  0999 V2000
   14.9672   -8.0271   17.9229 C   0  0  0  0  0  0  0  0  0  0  0  0
   15.9727   -8.8877   17.8149 C   0  0  0  0  0  0  0  0  0  0  0  0
   12.3882   -6.3677   18.5208 C   0  0  0  0  0  0  0  0  0  0  0  0
   13.4955   -6.6587   19.4804 C   0  0  0  0  0  0  0  0  0  0  0  0
   14.6267   -7.3923   19.2020 C   0  0  0  0  0  0  0  0  0  0  0  0
   15.3681   -7.4030   20.3722 C   0  0  0  0  0  0  0  0  0  0  0  0
   14.6891   -6.6977   21.3024 N   0  0  0  0  0  0  0  0  0  0  0  0
   13.5631   -6.2502   20.7653 N   0  0  0  0  0  0  0  0  0  0  0  0
   12.6116   -5.4600   21.4975 C   0  0  0  0  0  0  0  0  0  0  0  0
   12.2119   -4.2431   21.0352 N   0  0  0  0  0  0  0  0  0  0  0  0
   11.3130   -3.4912   21.7221 C   0  0  0  0  0  0  0  0  0  0  0  0
   10.7835   -3.9620   22.9217 C   0  0  0  0  0  0  0  0  0  0  0  0
   11.2006   -5.2084   23.3836 C   0  0  0  0  0  0  0  0  0  0  0  0
   12.1014   -5.9313   22.6685 N   0  0  0  0  0  0  0  0  0  0  0  0
   16.2971   -9.5157   16.5017 C   0  0  0  0  0  0  0  0  0  0  0  0
   17.3410   -8.7552   15.8169 N   0  0  0  0  0  0  0  0  0  0  0  0
   18.2949   -9.6669   15.1637 C   0  0  0  0  0  0  0  0  0  0  0  0
   17.6602  -10.4410   14.0056 C   0  0  0  0  0  0  0  0  0  0  0  0
   17.0248   -9.4979   13.0942 N   0  0  0  0  0  0  0  0  0  0  0  0
   16.0703   -8.5620   13.6753 C   0  0  0  0  0  0  0  0  0  0  0  0
   16.7323   -7.8311   14.8476 C   0  0  0  0  0  0  0  0  0  0  0  0
   17.3521   -9.4671   11.6931 C   0  0  0  0  0  0  0  0  0  0  0  0
   18.5796   -8.9405   11.2575 C   0  0  0  0  0  0  0  0  0  0  0  0
   18.8970   -8.9101    9.8965 C   0  0  0  0  0  0  0  0  0  0  0  0
   17.9905   -9.4058    8.9565 C   0  0  0  0  0  0  0  0  0  0  0  0
   16.7668   -9.9321    9.3772 C   0  0  0  0  0  0  0  0  0  0  0  0
   15.6305  -10.5534    8.2002 Cl  0  0  0  0  0  0  0  0  0  0  0  0
   16.4493   -9.9627   10.7378 C   0  0  0  0  0  0  0  0  0  0  0  0
  3  4  1  0  0  0
  4  5  2  0  0  0
  5  1  1  0  0  0
  5  6  1  0  0  0
  1  2  2  0  0  0
  2 15  1  0  0  0
 15 16  1  0  0  0
 16 17  1  0  0  0
 17 18  1  0  0  0
 18 19  1  0  0  0
 19 22  1  0  0  0
 19 20  1  0  0  0
 22 23  2  0  0  0
 23 24  1  0  0  0
 24 25  2  0  0  0
 25 26  1  0  0  0
 26 27  1  0  0  0
 26 28  2  0  0  0
 28 22  1  0  0  0
 20 21  1  0  0  0
 21 16  1  0  0  0
  6  7  2  0  0  0
  7  8  1  0  0  0
  8  9  1  0  0  0
  8  4  1  0  0  0
  9 10  2  0  0  0
 10 11  1  0  0  0
 11 12  2  0  0  0
 12 13  1  0  0  0
 13 14  2  0  0  0
 14  9  1  0  0  0
M  END
>  <minimizedAffinity>
-6.45771

>  <minimizedRMSD>
1.71844

$$$$
CHEMBL4456342 PubChem-141746830


 29 30  0  0  0  0  0  0  0  0999 V2000
   15.7939   -8.3949   18.3364 C   0  0  0  0  0  0  0  0  0  0  0  0
   15.7828   -8.6787   17.0358 C   0  0  0  0  0  0  0  0  0  0  0  0
   13.0471   -5.6497   20.1436 C   0  0  0  0  0  0  0  0  0  0  0  0
   14.2503   -5.9636   20.7787 C   0  0  0  0  0  0  0  0  0  0  0  0
   15.1579   -6.8619   20.1937 C   0  0  0  0  0  0  0  0  0  0  0  0
   14.8472   -7.4499   18.9544 C   0  0  0  0  0  0  0  0  0  0  0  0
   13.6357   -7.1301   18.3213 C   0  0  0  0  0  0  0  0  0  0  0  0
   12.7374   -6.2334   18.9068 C   0  0  0  0  0  0  0  0  0  0  0  0
   12.1683   -4.7576   20.7471 O   0  0  0  0  0  0  0  0  0  0  0  0
   12.3851   -4.3733   21.5737 H   0  0  0  0  0  0  0  0  0  0  0  0
   16.3659   -7.1794   20.8273 O   0  0  0  0  0  0  0  0  0  0  0  0
   16.8222   -6.5107   21.9954 C   0  0  0  0  0  0  0  0  0  0  0  0
   11.4487   -5.9261   18.2118 C   0  0  0  0  0  0  0  0  0  0  0  0
   10.3151   -6.7041   18.8027 C   0  0  0  0  0  0  0  0  0  0  0  0
    9.5049   -6.1559   19.7055 C   0  0  0  0  0  0  0  0  0  0  0  0
   16.7335   -9.6243   16.4304 C   0  0  0  0  0  0  0  0  0  0  0  0
   17.3849  -10.4014   17.1829 O   0  0  0  0  0  0  0  0  0  0  0  0
   16.9479   -9.6892   14.9600 C   0  0  0  0  0  0  0  0  0  0  0  0
   17.8965  -10.6016   14.4703 C   0  0  0  0  0  0  0  0  0  0  0  0
   18.1480  -10.7147   13.1023 C   0  0  0  0  0  0  0  0  0  0  0  0
   17.4518   -9.9128   12.1891 C   0  0  0  0  0  0  0  0  0  0  0  0
   16.5059   -9.0018   12.6619 C   0  0  0  0  0  0  0  0  0  0  0  0
   16.2469   -8.8812   14.0310 C   0  0  0  0  0  0  0  0  0  0  0  0
   15.2934   -7.9563   14.4391 O   0  0  0  0  0  0  0  0  0  0  0  0
   14.8445   -7.4346   13.8033 H   0  0  0  0  0  0  0  0  0  0  0  0
   17.6789  -10.0006   10.8132 O   0  0  0  0  0  0  0  0  0  0  0  0
   18.3864   -9.0034   10.0862 C   0  0  0  0  0  0  0  0  0  0  0  0
   17.7327   -8.7767    8.7646 C   0  0  0  0  0  0  0  0  0  0  0  0
   17.0065   -9.7352    8.1956 C   0  0  0  0  0  0  0  0  0  0  0  0
  3  4  2  0  0  0
  4  5  1  0  0  0
  5  6  2  0  0  0
  6  7  1  0  0  0
  7  8  2  0  0  0
  8 13  1  0  0  0
 13 14  1  0  0  0
 14 15  2  0  0  0
  6  1  1  0  0  0
  1  2  2  0  0  0
  2 16  1  0  0  0
 16 17  2  0  0  0
 16 18  1  0  0  0
 18 19  2  0  0  0
 19 20  1  0  0  0
 20 21  2  0  0  0
 21 22  1  0  0  0
 22 23  2  0  0  0
 23 24  1  0  0  0
 21 26  1  0  0  0
 26 27  1  0  0  0
 27 28  1  0  0  0
 28 29  2  0  0  0
  5 11  1  0  0  0
 11 12  1  0  0  0
  3  9  1  0  0  0
  8  3  1  0  0  0
 23 18  1  0  0  0
 24 25  1  0  0  0
  9 10  1  0  0  0
M  END
>  <minimizedAffinity>
-6.45758

>  <minimizedRMSD>
1.64981

$$$$
CHEMBL1867804 CSC047286866 ChemDiv-D065-0079 MCULE-1247616778 MolPort-007-687-306 PubChem-16013186 ZINC000008612129 ZINC08612129


 31 34  0  0  0  0  0  0  0  0999 V2000
   16.2866   -8.0080   14.6967 C   0  0  0  0  0  0  0  0  0  0  0  0
   16.0060   -8.1425   16.1539 C   0  0  0  0  0  0  0  0  0  0  0  0
   15.0845   -7.4184   16.8164 N   0  0  0  0  0  0  0  0  0  0  0  0
   15.2161   -7.9088   18.0681 C   0  0  0  0  0  0  0  0  0  0  0  0
   16.1612   -8.8673   18.1504 N   0  0  0  0  0  0  0  0  0  0  0  0
   16.6265   -8.9814   16.9443 O   0  0  0  0  0  0  0  0  0  0  0  0
   14.4156   -7.4495   19.2135 C   0  0  0  0  0  0  0  0  0  0  0  0
   13.1587   -6.8679   19.0086 C   0  0  0  0  0  0  0  0  0  0  0  0
   12.3852   -6.4266   20.0948 C   0  0  0  0  0  0  0  0  0  0  0  0
   12.8790   -6.5706   21.4005 C   0  0  0  0  0  0  0  0  0  0  0  0
   14.1400   -7.1543   21.6039 C   0  0  0  0  0  0  0  0  0  0  0  0
   14.9019   -7.5903   20.5181 C   0  0  0  0  0  0  0  0  0  0  0  0
   11.1280   -5.8442   19.8997 O   0  0  0  0  0  0  0  0  0  0  0  0
   10.9606   -4.4852   19.5193 C   0  0  0  0  0  0  0  0  0  0  0  0
   12.1027   -6.1284   22.4774 O   0  0  0  0  0  0  0  0  0  0  0  0
   12.4905   -5.0456   23.3121 C   0  0  0  0  0  0  0  0  0  0  0  0
   15.4361   -9.3149   13.7578 S   0  0  0  0  0  0  0  0  0  0  0  0
   17.7099  -10.5508   12.6665 N   0  0  0  0  0  0  0  0  0  0  0  0
   18.6604  -11.3722   13.1660 C   0  0  0  0  0  0  0  0  0  0  0  0
   19.8130  -11.9266   12.3995 C   0  0  0  0  0  0  0  0  0  0  0  0
   18.4220  -11.6854   14.4528 N   0  0  0  0  0  0  0  0  0  0  0  0
   17.3110  -11.0565   14.8042 N   0  0  0  0  0  0  0  0  0  0  0  0
   16.8847  -10.3761   13.7237 C   0  0  0  0  0  0  0  0  0  0  0  0
   17.4379   -8.8995    8.7485 C   0  0  0  0  0  0  0  0  0  0  0  0
   18.5362   -8.6096    9.5626 C   0  0  0  0  0  0  0  0  0  0  0  0
   18.6243   -9.1512   10.8477 C   0  0  0  0  0  0  0  0  0  0  0  0
   17.6143   -9.9912   11.3408 C   0  0  0  0  0  0  0  0  0  0  0  0
   16.5154  -10.2817   10.5190 C   0  0  0  0  0  0  0  0  0  0  0  0
   16.4252   -9.7409    9.2340 C   0  0  0  0  0  0  0  0  0  0  0  0
   18.4590   -8.4122    6.5490 C   0  0  0  0  0  0  0  0  0  0  0  0
   17.3778   -8.3420    7.4684 O   0  0  0  0  0  0  0  0  0  0  0  0
 30 31  1  0  0  0
 31 24  1  0  0  0
 24 25  2  0  0  0
 25 26  1  0  0  0
 26 27  2  0  0  0
 27 28  1  0  0  0
 27 18  1  0  0  0
 28 29  2  0  0  0
 29 24  1  0  0  0
 18 19  1  0  0  0
 19 20  1  0  0  0
 19 21  2  0  0  0
 21 22  1  0  0  0
 22 23  2  0  0  0
 23 17  1  0  0  0
 23 18  1  0  0  0
 17  1  1  0  0  0
  1  2  1  0  0  0
  2  3  2  0  0  0
  3  4  1  0  0  0
  4  5  2  0  0  0
  4  7  1  0  0  0
  5  6  1  0  0  0
  6  2  1  0  0  0
  7  8  2  0  0  0
  8  9  1  0  0  0
  9 13  1  0  0  0
  9 10  2  0  0  0
 13 14  1  0  0  0
 10 15  1  0  0  0
 10 11  1  0  0  0
 15 16  1  0  0  0
 11 12  2  0  0  0
 12  7  1  0  0  0
M  END
>  <minimizedAffinity>
-6.45203

>  <minimizedRMSD>
1.31023

$$$$
CHEMBL2386013 PubChem-71697370


 28 31  0  0  0  0  0  0  0  0999 V2000
   15.9790   -8.1604   17.3594 C   0  0  0  0  0  0  0  0  0  0  0  0
   15.3683   -7.6560   16.2621 N   0  0  0  0  0  0  0  0  0  0  0  0
   15.7209   -8.2689   15.1337 N   0  0  0  0  0  0  0  0  0  0  0  0
   16.6111   -9.2645   15.3288 C   0  0  0  0  0  0  0  0  0  0  0  0
   17.0105   -9.4276   16.9551 S   0  0  0  0  0  0  0  0  0  0  0  0
   15.7744   -7.6642   18.7566 C   0  0  0  0  0  0  0  0  0  0  0  0
   14.7873   -8.8125   19.7723 S   0  0  0  0  0  0  0  0  0  0  0  0
   10.5621   -3.8085   23.4816 C   0  0  0  0  0  0  0  0  0  0  0  0
   11.2047   -4.5357   22.3562 C   0  0  0  0  0  0  0  0  0  0  0  0
   10.9538   -4.1303   21.0293 C   0  0  0  0  0  0  0  0  0  0  0  0
   11.5705   -4.8304   19.9840 C   0  0  0  0  0  0  0  0  0  0  0  0
   11.3387   -4.4391   18.5657 C   0  0  0  0  0  0  0  0  0  0  0  0
   12.3804   -5.8675   20.3112 N   0  0  0  0  0  0  0  0  0  0  0  0
   13.0605   -6.6602   19.5081 N   0  0  0  0  0  0  0  0  0  0  0  0
   13.7008   -7.5126   20.3453 C   0  0  0  0  0  0  0  0  0  0  0  0
   13.4442   -7.2850   21.6614 N   0  0  0  0  0  0  0  0  0  0  0  0
   12.6078   -6.2374   21.5719 C   0  0  0  0  0  0  0  0  0  0  0  0
   12.0337   -5.5902   22.6154 N   0  0  0  0  0  0  0  0  0  0  0  0
   17.2803  -10.2678   14.0117 S   0  0  0  0  0  0  0  0  0  0  0  0
   15.9636   -9.7660   12.8624 C   0  0  0  0  0  0  0  0  0  0  0  0
   16.4804   -9.7209   11.4633 C   0  0  0  0  0  0  0  0  0  0  0  0
   17.8370   -9.4628   11.2275 C   0  0  0  0  0  0  0  0  0  0  0  0
   18.3301   -9.4341    9.9199 C   0  0  0  0  0  0  0  0  0  0  0  0
   17.4697   -9.6674    8.8435 C   0  0  0  0  0  0  0  0  0  0  0  0
   17.9475   -9.6391    7.5766 F   0  0  0  0  0  0  0  0  0  0  0  0
   16.1169   -9.9327    9.0745 C   0  0  0  0  0  0  0  0  0  0  0  0
   15.6202   -9.9627   10.3814 C   0  0  0  0  0  0  0  0  0  0  0  0
   14.3054  -10.2233   10.5888 F   0  0  0  0  0  0  0  0  0  0  0  0
  8  9  1  0  0  0
  9 10  1  0  0  0
 10 11  2  0  0  0
 11 12  1  0  0  0
 11 13  1  0  0  0
 13 14  1  0  0  0
 14 15  2  0  0  0
 15  7  1  0  0  0
 15 16  1  0  0  0
  7  6  1  0  0  0
  6  1  1  0  0  0
  1  2  2  0  0  0
  2  3  1  0  0  0
  3  4  2  0  0  0
  4 19  1  0  0  0
  4  5  1  0  0  0
 19 20  1  0  0  0
 20 21  1  0  0  0
 21 22  2  0  0  0
 22 23  1  0  0  0
 23 24  2  0  0  0
 24 25  1  0  0  0
 24 26  1  0  0  0
 26 27  2  0  0  0
 27 28  1  0  0  0
 27 21  1  0  0  0
  5  1  1  0  0  0
 16 17  2  0  0  0
 17 18  1  0  0  0
 17 13  1  0  0  0
 18  9  2  0  0  0
M  END
>  <minimizedAffinity>
-6.44656

>  <minimizedRMSD>
1.71447

$$$$
CHEMBL4578743 PubChem-135335075


 32 36  0  0  0  0  0  0  0  0999 V2000
   14.4052   -7.2601   19.3922 C   0  0  0  0  0  0  0  0  0  0  0  0
   15.3733   -8.2530   19.5385 C   0  0  0  0  0  0  0  0  0  0  0  0
   15.7952   -8.5321   18.2978 N   0  0  0  0  0  0  0  0  0  0  0  0
   16.7284   -9.4267   17.8941 C   0  0  0  0  0  0  0  0  0  0  0  0
   16.9902   -9.5295   16.5208 C   0  0  0  0  0  0  0  0  0  0  0  0
   16.2900   -8.7128   15.6014 C   0  0  0  0  0  0  0  0  0  0  0  0
   15.3270   -7.8009   16.0835 C   0  0  0  0  0  0  0  0  0  0  0  0
   15.1112   -7.7443   17.4575 C   0  0  0  0  0  0  0  0  0  0  0  0
   14.2378   -6.9381   18.0843 N   0  0  0  0  0  0  0  0  0  0  0  0
   12.3856   -6.0425   20.3265 C   0  0  0  0  0  0  0  0  0  0  0  0
   11.7301   -5.4686   21.4281 C   0  0  0  0  0  0  0  0  0  0  0  0
   12.3122   -5.4740   22.7033 C   0  0  0  0  0  0  0  0  0  0  0  0
   13.5700   -6.0635   22.8764 C   0  0  0  0  0  0  0  0  0  0  0  0
   14.2296   -6.6365   21.7883 C   0  0  0  0  0  0  0  0  0  0  0  0
   13.6554   -6.6360   20.5083 C   0  0  0  0  0  0  0  0  0  0  0  0
   14.3407   -6.0959   24.4522 Cl  0  0  0  0  0  0  0  0  0  0  0  0
   11.4493   -4.8259   18.3796 C   0  0  0  0  0  0  0  0  0  0  0  0
   11.7871   -6.0268   19.0606 O   0  0  0  0  0  0  0  0  0  0  0  0
   11.6594   -4.9024   23.8011 O   0  0  0  0  0  0  0  0  0  0  0  0
   10.6517   -3.9096   23.6656 C   0  0  0  0  0  0  0  0  0  0  0  0
   16.5497   -8.8184   14.1892 N   0  0  0  0  0  0  0  0  0  0  0  0
   17.8519   -9.2703   13.6962 C   0  0  0  0  0  0  0  0  0  0  0  0
   17.6515  -10.3121   12.6006 C   0  0  0  0  0  0  0  0  0  0  0  0
   16.6968   -9.8035   11.6175 N   0  0  0  0  0  0  0  0  0  0  0  0
   15.3894   -9.3708   12.1078 C   0  0  0  0  0  0  0  0  0  0  0  0
   15.5791   -8.3303   13.2078 C   0  0  0  0  0  0  0  0  0  0  0  0
   17.0406   -9.7070   10.2237 C   0  0  0  0  0  0  0  0  0  0  0  0
   18.1856   -9.0185    9.8057 C   0  0  0  0  0  0  0  0  0  0  0  0
   18.4925   -8.9380    8.4851 N   0  0  0  0  0  0  0  0  0  0  0  0
   17.6993   -9.5203    7.5489 C   0  0  0  0  0  0  0  0  0  0  0  0
   16.5823  -10.1944    7.9269 N   0  0  0  0  0  0  0  0  0  0  0  0
   16.2412  -10.2975    9.2376 C   0  0  0  0  0  0  0  0  0  0  0  0
 17 18  1  0  0  0
 18 10  1  0  0  0
 10 11  2  0  0  0
 11 12  1  0  0  0
 12 13  2  0  0  0
 13 14  1  0  0  0
 14 15  2  0  0  0
 15  1  1  0  0  0
  1  2  2  0  0  0
  2  3  1  0  0  0
  3  4  1  0  0  0
  4  5  2  0  0  0
  5  6  1  0  0  0
  6  7  2  0  0  0
  7  8  1  0  0  0
  8  9  2  0  0  0
  6 21  1  0  0  0
 21 22  1  0  0  0
 22 23  1  0  0  0
 23 24  1  0  0  0
 24 25  1  0  0  0
 25 26  1  0  0  0
 24 27  1  0  0  0
 27 28  2  0  0  0
 28 29  1  0  0  0
 29 30  2  0  0  0
 30 31  1  0  0  0
 31 32  2  0  0  0
 13 16  1  0  0  0
 12 19  1  0  0  0
 19 20  1  0  0  0
 15 10  1  0  0  0
  9  1  1  0  0  0
  8  3  1  0  0  0
 26 21  1  0  0  0
 32 27  1  0  0  0
M  END
>  <minimizedAffinity>
-6.44557

>  <minimizedRMSD>
1.84078

$$$$
CHEMBL486458 PubChem-44561628


 27 30  0  0  0  0  0  0  0  0999 V2000
   16.2499   -9.2017   13.7217 N   0  0  0  0  0  0  0  0  0  0  0  0
   15.9441   -7.8543   14.1899 C   0  0  0  0  0  0  0  0  0  0  0  0
   16.6288   -7.6118   15.5382 C   0  0  0  0  0  0  0  0  0  0  0  0
   16.3375   -8.6699   16.5157 N   0  0  0  0  0  0  0  0  0  0  0  0
   16.7023   -9.9937   15.9872 C   0  0  0  0  0  0  0  0  0  0  0  0
   16.0170  -10.3001   14.6531 C   0  0  0  0  0  0  0  0  0  0  0  0
   17.2064   -9.9291    9.6362 C   0  0  0  0  0  0  0  0  0  0  0  0
   15.8848  -10.0629   10.0889 C   0  0  0  0  0  0  0  0  0  0  0  0
   15.5720   -9.8260   11.4298 C   0  0  0  0  0  0  0  0  0  0  0  0
   16.5730   -9.4535   12.3415 C   0  0  0  0  0  0  0  0  0  0  0  0
   17.8927   -9.3187   11.8804 C   0  0  0  0  0  0  0  0  0  0  0  0
   18.2056   -9.5557   10.5392 C   0  0  0  0  0  0  0  0  0  0  0  0
   17.6946   -9.1106    7.3535 C   0  0  0  0  0  0  0  0  0  0  0  0
   17.5517  -10.1595    8.3017 O   0  0  0  0  0  0  0  0  0  0  0  0
   14.9217   -8.6365   16.8797 C   0  0  0  0  0  0  0  0  0  0  0  0
   14.7263   -7.8713   18.1449 C   0  0  0  0  0  0  0  0  0  0  0  0
   15.5792   -8.0983   19.2299 C   0  0  0  0  0  0  0  0  0  0  0  0
   15.4023   -7.3934   20.4239 C   0  0  0  0  0  0  0  0  0  0  0  0
   14.3691   -6.4592   20.5399 C   0  0  0  0  0  0  0  0  0  0  0  0
   14.2057   -5.7907   21.6780 O   0  0  0  0  0  0  0  0  0  0  0  0
   13.2396   -4.8912   21.8445 C   0  0  0  0  0  0  0  0  0  0  0  0
   13.1307   -4.2874   22.9427 O   0  0  0  0  0  0  0  0  0  0  0  0
   12.3444   -4.6117   20.8090 C   0  0  0  0  0  0  0  0  0  0  0  0
   12.4753   -5.2874   19.5963 C   0  0  0  0  0  0  0  0  0  0  0  0
   11.3448   -4.9291   18.2985 Cl  0  0  0  0  0  0  0  0  0  0  0  0
   13.5018   -6.2297   19.4475 C   0  0  0  0  0  0  0  0  0  0  0  0
   13.6864   -6.9412   18.2550 C   0  0  0  0  0  0  0  0  0  0  0  0
 13 14  1  0  0  0
 14  7  1  0  0  0
  7  8  2  0  0  0
  8  9  1  0  0  0
  9 10  2  0  0  0
 10  1  1  0  0  0
 10 11  1  0  0  0
  1  2  1  0  0  0
  2  3  1  0  0  0
  3  4  1  0  0  0
  4 15  1  0  0  0
  4  5  1  0  0  0
 15 16  1  0  0  0
 16 17  2  0  0  0
 17 18  1  0  0  0
 18 19  2  0  0  0
 19 20  1  0  0  0
 20 21  1  0  0  0
 21 22  2  0  0  0
 21 23  1  0  0  0
 23 24  2  0  0  0
 24 25  1  0  0  0
 24 26  1  0  0  0
 26 27  2  0  0  0
 26 19  1  0  0  0
 27 16  1  0  0  0
  5  6  1  0  0  0
  6  1  1  0  0  0
 11 12  2  0  0  0
 12  7  1  0  0  0
M  END
>  <minimizedAffinity>
-6.43897

>  <minimizedRMSD>
1.82398

$$$$
CHEMBL1322887 4384110 ChemDiv-D069-0310 LN00758156 MCULE-2243880928 MolPort-002-017-333 PubChem-3159529 ZINC000004384110 ZINC04384110


 31 33  0  0  0  0  0  0  0  0999 V2000
   16.1341   -8.5908   15.0662 C   0  0  0  0  0  0  0  0  0  0  0  0
   15.2833   -7.8433   15.7933 N   0  0  0  0  0  0  0  0  0  0  0  0
   15.5168   -8.3099   17.0391 C   0  0  0  0  0  0  0  0  0  0  0  0
   16.4526   -9.2804   17.0593 N   0  0  0  0  0  0  0  0  0  0  0  0
   16.8094   -9.4249   15.8200 O   0  0  0  0  0  0  0  0  0  0  0  0
   14.8270   -7.8142   18.2402 C   0  0  0  0  0  0  0  0  0  0  0  0
   13.4926   -7.4092   18.1709 C   0  0  0  0  0  0  0  0  0  0  0  0
   12.8183   -6.9335   19.3067 C   0  0  0  0  0  0  0  0  0  0  0  0
   13.5065   -6.8640   20.5451 C   0  0  0  0  0  0  0  0  0  0  0  0
   14.8498   -7.2724   20.6118 C   0  0  0  0  0  0  0  0  0  0  0  0
   15.4987   -7.7434   19.4614 C   0  0  0  0  0  0  0  0  0  0  0  0
   11.4803   -6.5338   19.2093 O   0  0  0  0  0  0  0  0  0  0  0  0
   10.4828   -7.3144   18.5638 C   0  0  0  0  0  0  0  0  0  0  0  0
   12.9139   -6.4021   21.7326 O   0  0  0  0  0  0  0  0  0  0  0  0
   12.8076   -5.0383   22.1151 C   0  0  0  0  0  0  0  0  0  0  0  0
   15.5223   -7.2009   21.8374 O   0  0  0  0  0  0  0  0  0  0  0  0
   16.7310   -6.4741   22.0123 C   0  0  0  0  0  0  0  0  0  0  0  0
   16.2734   -8.4666   13.5836 C   0  0  0  0  0  0  0  0  0  0  0  0
   16.0985   -9.8082   12.8923 C   0  0  0  0  0  0  0  0  0  0  0  0
   17.5999   -8.7195   11.1851 N   0  0  0  0  0  0  0  0  0  0  0  0
   16.6468   -9.7394   11.5116 C   0  0  0  0  0  0  0  0  0  0  0  0
   16.2441  -10.5603   10.6452 O   0  0  0  0  0  0  0  0  0  0  0  0
   17.8569   -8.1068   11.9116 H   0  0  0  0  0  0  0  0  0  0  0  0
   18.1885   -8.5711    7.4757 C   0  0  0  0  0  0  0  0  0  0  0  0
   19.4890   -8.0430    7.4529 C   0  0  0  0  0  0  0  0  0  0  0  0
   20.1483   -7.7456    8.6480 C   0  0  0  0  0  0  0  0  0  0  0  0
   19.5132   -7.9737    9.8715 C   0  0  0  0  0  0  0  0  0  0  0  0
   18.2176   -8.4994    9.9098 C   0  0  0  0  0  0  0  0  0  0  0  0
   17.5612   -8.7961    8.7053 C   0  0  0  0  0  0  0  0  0  0  0  0
   18.0195   -8.5889    5.0081 C   0  0  0  0  0  0  0  0  0  0  0  0
   17.5010   -8.8797    6.2988 O   0  0  0  0  0  0  0  0  0  0  0  0
 30 31  1  0  0  0
 31 24  1  0  0  0
 24 25  2  0  0  0
 25 26  1  0  0  0
 26 27  2  0  0  0
 27 28  1  0  0  0
 28 20  1  0  0  0
 28 29  2  0  0  0
 20 21  1  0  0  0
 21 22  2  0  0  0
 21 19  1  0  0  0
 19 18  1  0  0  0
 18  1  1  0  0  0
  1  2  2  0  0  0
  2  3  1  0  0  0
  3  4  2  0  0  0
  3  6  1  0  0  0
  4  5  1  0  0  0
  5  1  1  0  0  0
  6  7  2  0  0  0
  7  8  1  0  0  0
  8 12  1  0  0  0
  8  9  2  0  0  0
 12 13  1  0  0  0
  9 14  1  0  0  0
  9 10  1  0  0  0
 14 15  1  0  0  0
 10 16  1  0  0  0
 10 11  2  0  0  0
 16 17  1  0  0  0
 11  6  1  0  0  0
 29 24  1  0  0  0
 20 23  1  0  0  0
M  END
>  <minimizedAffinity>
-6.43727

>  <minimizedRMSD>
1.36022

$$$$
CHEMBL1319581 3327664 CSC026099858 MCULE-6203046957 MolPort-005-846-731 PubChem-2443401 Z19873981 ZINC000003327664


 34 36  0  0  0  0  0  0  0  0999 V2000
   16.2040   -8.0128   18.6579 N   0  0  0  0  0  0  0  0  0  0  0  0
   16.0456   -7.9692   17.2366 C   0  0  0  0  0  0  0  0  0  0  0  0
   15.1632   -7.2412   16.7086 O   0  0  0  0  0  0  0  0  0  0  0  0
   16.9981   -8.4687   19.0194 H   0  0  0  0  0  0  0  0  0  0  0  0
   13.9029   -7.2631   19.4170 C   0  0  0  0  0  0  0  0  0  0  0  0
   15.2809   -7.4356   19.5879 C   0  0  0  0  0  0  0  0  0  0  0  0
   15.7423   -6.8111   21.0716 S   0  0  0  0  0  0  0  0  0  0  0  0
   14.2153   -6.2695   21.5309 C   0  0  0  0  0  0  0  0  0  0  0  0
   13.3075   -6.5925   20.5101 C   0  0  0  0  0  0  0  0  0  0  0  0
   11.8401   -6.3226   20.5945 C   0  0  0  0  0  0  0  0  0  0  0  0
   13.9487   -5.5891   22.8165 C   0  0  0  0  0  0  0  0  0  0  0  0
   13.5811   -4.1477   22.8908 C   0  0  0  0  0  0  0  0  0  0  0  0
   14.0375   -6.2390   23.8913 O   0  0  0  0  0  0  0  0  0  0  0  0
   13.1364   -7.8144   18.2793 C   0  0  0  0  0  0  0  0  0  0  0  0
   13.3220   -9.0080   17.9166 O   0  0  0  0  0  0  0  0  0  0  0  0
   12.1976   -7.0196   17.6190 O   0  0  0  0  0  0  0  0  0  0  0  0
   10.4807   -8.5031   18.3859 C   0  0  0  0  0  0  0  0  0  0  0  0
   10.8846   -7.4829   17.3431 C   0  0  0  0  0  0  0  0  0  0  0  0
   16.9443   -8.7797   16.3701 C   0  0  0  0  0  0  0  0  0  0  0  0
   16.2255  -10.4247   16.0759 S   0  0  0  0  0  0  0  0  0  0  0  0
   15.9696  -10.1121   14.3285 C   0  0  0  0  0  0  0  0  0  0  0  0
   14.7561   -9.9531   13.7703 N   0  0  0  0  0  0  0  0  0  0  0  0
   14.9522   -9.7574   12.4745 N   0  0  0  0  0  0  0  0  0  0  0  0
   16.2839   -9.8013   12.2579 C   0  0  0  0  0  0  0  0  0  0  0  0
   16.9512  -10.0203   13.4134 N   0  0  0  0  0  0  0  0  0  0  0  0
   16.8868   -9.6248   10.9172 C   0  0  0  0  0  0  0  0  0  0  0  0
   16.2973  -10.2486    9.8073 C   0  0  0  0  0  0  0  0  0  0  0  0
   16.8450  -10.0932    8.5304 C   0  0  0  0  0  0  0  0  0  0  0  0
   17.9883   -9.3104    8.3518 C   0  0  0  0  0  0  0  0  0  0  0  0
   18.5822   -8.6831    9.4495 C   0  0  0  0  0  0  0  0  0  0  0  0
   19.7976   -7.8493    9.2617 C   0  0  0  0  0  0  0  0  0  0  0  0
   18.0327   -8.8394   10.7250 C   0  0  0  0  0  0  0  0  0  0  0  0
   18.3800  -10.1987   13.6405 C   0  0  0  0  0  0  0  0  0  0  0  0
   18.7392  -11.6703   13.5571 C   0  0  0  0  0  0  0  0  0  0  0  0
 17 18  1  0  0  0
 18 16  1  0  0  0
 16 14  1  0  0  0
 14 15  2  0  0  0
 14  5  1  0  0  0
  5  6  2  0  0  0
  6  1  1  0  0  0
  1  2  1  0  0  0
  2  3  2  0  0  0
  2 19  1  0  0  0
 19 20  1  0  0  0
 20 21  1  0  0  0
 21 22  2  0  0  0
 22 23  1  0  0  0
 23 24  2  0  0  0
 24 25  1  0  0  0
 25 33  1  0  0  0
 33 34  1  0  0  0
 24 26  1  0  0  0
 26 27  2  0  0  0
 27 28  1  0  0  0
 28 29  2  0  0  0
 29 30  1  0  0  0
 30 31  1  0  0  0
 30 32  2  0  0  0
  6  7  1  0  0  0
  7  8  1  0  0  0
  8 11  1  0  0  0
 11 12  1  0  0  0
 11 13  2  0  0  0
  8  9  2  0  0  0
  9 10  1  0  0  0
  9  5  1  0  0  0
 25 21  1  0  0  0
 32 26  1  0  0  0
  1  4  1  0  0  0
M  END
>  <minimizedAffinity>
-6.43046

>  <minimizedRMSD>
1.93284

$$$$
CHEMBL4525814 PubChem-135281208


 34 38  0  0  0  0  0  0  0  0999 V2000
   14.3380   -7.1967   18.9530 C   0  0  0  0  0  0  0  0  0  0  0  0
   15.5138   -7.8464   19.3252 C   0  0  0  0  0  0  0  0  0  0  0  0
   16.0062   -8.3806   18.1997 N   0  0  0  0  0  0  0  0  0  0  0  0
   17.1324   -9.1115   18.0223 C   0  0  0  0  0  0  0  0  0  0  0  0
   17.4287   -9.5590   16.7273 C   0  0  0  0  0  0  0  0  0  0  0  0
   16.5637   -9.2461   15.6515 C   0  0  0  0  0  0  0  0  0  0  0  0
   15.4050   -8.4794   15.9008 C   0  0  0  0  0  0  0  0  0  0  0  0
   15.1644   -8.0638   17.2073 C   0  0  0  0  0  0  0  0  0  0  0  0
   14.1157   -7.3320   17.6201 N   0  0  0  0  0  0  0  0  0  0  0  0
   13.8490   -5.8733   21.0714 C   0  0  0  0  0  0  0  0  0  0  0  0
   12.9190   -5.1807   21.8642 C   0  0  0  0  0  0  0  0  0  0  0  0
   11.5807   -5.0507   21.4680 C   0  0  0  0  0  0  0  0  0  0  0  0
   11.1685   -5.6234   20.2591 C   0  0  0  0  0  0  0  0  0  0  0  0
   12.0844   -6.3135   19.4641 C   0  0  0  0  0  0  0  0  0  0  0  0
   13.4252   -6.4494   19.8510 C   0  0  0  0  0  0  0  0  0  0  0  0
    9.5047   -5.4884   19.7193 Cl  0  0  0  0  0  0  0  0  0  0  0  0
   15.5556   -6.1534   22.8482 C   0  0  0  0  0  0  0  0  0  0  0  0
   15.1809   -5.9907   21.4868 O   0  0  0  0  0  0  0  0  0  0  0  0
   10.6542   -4.3608   22.2577 O   0  0  0  0  0  0  0  0  0  0  0  0
   10.8921   -4.0427   23.6222 C   0  0  0  0  0  0  0  0  0  0  0  0
   16.8647   -9.7008   14.3177 N   0  0  0  0  0  0  0  0  0  0  0  0
   18.2565   -9.9575   13.9220 C   0  0  0  0  0  0  0  0  0  0  0  0
   18.3414  -10.4942   12.4945 C   0  0  0  0  0  0  0  0  0  0  0  0
   17.5053   -9.6849   11.6077 N   0  0  0  0  0  0  0  0  0  0  0  0
   16.1305   -9.3560   12.0035 C   0  0  0  0  0  0  0  0  0  0  0  0
   15.7811   -9.9563   13.3641 C   0  0  0  0  0  0  0  0  0  0  0  0
   18.1115   -9.0536   10.4657 C   0  0  0  0  0  0  0  0  0  0  0  0
   17.5239   -9.0984    9.1792 C   0  0  0  0  0  0  0  0  0  0  0  0
   18.1661   -8.4594    8.1165 C   0  0  0  0  0  0  0  0  0  0  0  0
   19.3715   -7.7909    8.3218 C   0  0  0  0  0  0  0  0  0  0  0  0
   19.9314   -7.7776    9.5975 C   0  0  0  0  0  0  0  0  0  0  0  0
   19.2999   -8.4033   10.6257 N   0  0  0  0  0  0  0  0  0  0  0  0
   16.3159   -9.8315    8.9014 C   0  0  0  0  0  0  0  0  0  0  0  0
   15.3458  -10.4210    8.6756 N   0  0  0  0  0  0  0  0  0  0  0  0
 17 18  1  0  0  0
 18 10  1  0  0  0
 10 11  2  0  0  0
 11 12  1  0  0  0
 12 13  2  0  0  0
 13 14  1  0  0  0
 14 15  2  0  0  0
 15  1  1  0  0  0
  1  2  2  0  0  0
  2  3  1  0  0  0
  3  4  1  0  0  0
  4  5  2  0  0  0
  5  6  1  0  0  0
  6  7  2  0  0  0
  7  8  1  0  0  0
  8  9  2  0  0  0
  6 21  1  0  0  0
 21 22  1  0  0  0
 22 23  1  0  0  0
 23 24  1  0  0  0
 24 25  1  0  0  0
 25 26  1  0  0  0
 24 27  1  0  0  0
 27 28  2  0  0  0
 28 29  1  0  0  0
 29 30  2  0  0  0
 30 31  1  0  0  0
 31 32  2  0  0  0
 28 33  1  0  0  0
 33 34  3  0  0  0
 13 16  1  0  0  0
 12 19  1  0  0  0
 19 20  1  0  0  0
 15 10  1  0  0  0
  9  1  1  0  0  0
  8  3  1  0  0  0
 26 21  1  0  0  0
 32 27  1  0  0  0
M  END
>  <minimizedAffinity>
-6.42374

>  <minimizedRMSD>
1.96734

$$$$
CHEMBL1256666 CHEMBL258764 3875139 LN00193038 MCULE-2208552656 MCULE-5343453436 MolPort-003-939-721 NSC379318 PubChem-51371107 PubChem-5494 PubChem-67587951 PubChem-6917843 PubChem-74764737 ZINC000003875139


 28 28  0  0  0  0  0  0  0  0999 V2000
   15.8568   -8.4777   17.9685 O   0  0  0  0  0  0  0  0  0  0  0  0
   14.7300   -7.6626   18.1033 C   0  0  0  0  0  0  0  0  0  0  0  0
   14.0203   -7.3873   17.0962 O   0  0  0  0  0  0  0  0  0  0  0  0
   14.3736   -7.1237   19.4256 C   0  0  0  0  0  0  0  0  0  0  0  0
   15.2745   -7.2219   20.4893 C   0  0  0  0  0  0  0  0  0  0  0  0
   14.9522   -6.7235   21.7547 C   0  0  0  0  0  0  0  0  0  0  0  0
   13.7175   -6.0520   21.9458 C   0  0  0  0  0  0  0  0  0  0  0  0
   12.7908   -5.9954   20.8922 C   0  0  0  0  0  0  0  0  0  0  0  0
   13.1272   -6.5275   19.6387 C   0  0  0  0  0  0  0  0  0  0  0  0
   15.8678   -6.9420   22.7881 O   0  0  0  0  0  0  0  0  0  0  0  0
   15.5109   -7.5966   23.9974 C   0  0  0  0  0  0  0  0  0  0  0  0
   13.3882   -5.4123   23.1457 O   0  0  0  0  0  0  0  0  0  0  0  0
   13.8288   -4.0969   23.4521 C   0  0  0  0  0  0  0  0  0  0  0  0
   11.5513   -5.3822   21.1064 O   0  0  0  0  0  0  0  0  0  0  0  0
   10.6310   -5.1178   20.0560 C   0  0  0  0  0  0  0  0  0  0  0  0
   16.3929   -8.8121   16.6973 C   0  0  0  0  0  0  0  0  0  0  0  0
   16.6176  -10.3106   16.6205 C   0  0  0  0  0  0  0  0  0  0  0  0
   18.0884  -10.6121   16.3988 C   0  0  0  0  0  0  0  0  0  0  0  0
   18.6920   -9.6127   15.4255 C   0  0  0  0  0  0  0  0  0  0  0  0
   19.1873  -10.3232   14.1756 C   0  0  0  0  0  0  0  0  0  0  0  0
   18.0336  -10.9497   13.4014 C   0  0  0  0  0  0  0  0  0  0  0  0
   17.4557   -9.9765   12.3811 C   0  0  0  0  0  0  0  0  0  0  0  0
   18.5303   -9.4814   11.4226 C   0  0  0  0  0  0  0  0  0  0  0  0
   18.0815   -9.6223   10.0450 N   0  0  0  0  0  0  0  0  0  0  0  0
   16.6501   -9.8729   10.0934 C   0  0  0  0  0  0  0  0  0  0  0  0
   16.1181  -10.0837    8.6890 C   0  0  0  0  0  0  0  0  0  0  0  0
   19.7090   -7.8904    9.5311 C   0  0  0  0  0  0  0  0  0  0  0  0
   18.2618   -8.3274    9.4077 C   0  0  0  0  0  0  0  0  0  0  0  0
 27 28  1  0  0  0
 28 24  1  0  0  0
 24 25  1  0  0  0
 24 23  1  0  0  0
 25 26  1  0  0  0
 23 22  1  0  0  0
 22 21  1  0  0  0
 21 20  1  0  0  0
 20 19  1  0  0  0
 19 18  1  0  0  0
 18 17  1  0  0  0
 17 16  1  0  0  0
 16  1  1  0  0  0
  1  2  1  0  0  0
  2  3  2  0  0  0
  2  4  1  0  0  0
  4  5  2  0  0  0
  5  6  1  0  0  0
  6  7  2  0  0  0
  6 10  1  0  0  0
  7  8  1  0  0  0
  7 12  1  0  0  0
  8  9  2  0  0  0
  8 14  1  0  0  0
  9  4  1  0  0  0
 14 15  1  0  0  0
 12 13  1  0  0  0
 10 11  1  0  0  0
M  END
>  <minimizedAffinity>
-6.40764

>  <minimizedRMSD>
1.68327

$$$$
CHEMBL1896417 3446332 CSC026423075 MCULE-5605270662 MolPort-004-063-582 PubChem-2566479 Z31554337 ZINC000003446332 ZINC03446332


 31 32  0  0  0  0  0  0  0  0999 V2000
   16.8805   -8.1704   16.4376 N   0  0  0  0  0  0  0  0  0  0  0  0
   15.4927   -7.8199   16.4734 C   0  0  0  0  0  0  0  0  0  0  0  0
   14.8720   -7.5881   15.3997 O   0  0  0  0  0  0  0  0  0  0  0  0
   17.3456   -8.3333   17.2899 H   0  0  0  0  0  0  0  0  0  0  0  0
   14.7897   -7.7264   17.7646 C   0  0  0  0  0  0  0  0  0  0  0  0
   13.3998   -7.5956   17.8063 C   0  0  0  0  0  0  0  0  0  0  0  0
   12.7221   -7.5056   19.0307 C   0  0  0  0  0  0  0  0  0  0  0  0
   13.4410   -7.5450   20.2379 C   0  0  0  0  0  0  0  0  0  0  0  0
   14.8525   -7.6794   20.2037 C   0  0  0  0  0  0  0  0  0  0  0  0
   15.5049   -7.7685   18.9637 C   0  0  0  0  0  0  0  0  0  0  0  0
   11.3291   -7.3756   19.0727 O   0  0  0  0  0  0  0  0  0  0  0  0
   10.4675   -7.9964   18.1280 C   0  0  0  0  0  0  0  0  0  0  0  0
   12.7037   -7.4475   21.4302 O   0  0  0  0  0  0  0  0  0  0  0  0
   12.5056   -6.2528   22.1723 C   0  0  0  0  0  0  0  0  0  0  0  0
   15.5950   -7.7247   21.3897 O   0  0  0  0  0  0  0  0  0  0  0  0
   16.2567   -6.5902   21.9340 C   0  0  0  0  0  0  0  0  0  0  0  0
   17.6361   -8.2971   15.1990 C   0  0  0  0  0  0  0  0  0  0  0  0
   17.3744  -10.5943   14.1179 N   0  0  0  0  0  0  0  0  0  0  0  0
   17.7908  -11.9812   13.9772 C   0  0  0  0  0  0  0  0  0  0  0  0
   18.0849   -9.7111   15.0003 C   0  0  0  0  0  0  0  0  0  0  0  0
   19.0990  -10.1225   15.6261 O   0  0  0  0  0  0  0  0  0  0  0  0
   16.2577  -10.1183   13.3101 C   0  0  0  0  0  0  0  0  0  0  0  0
   17.5019   -9.5668    9.2342 C   0  0  0  0  0  0  0  0  0  0  0  0
   16.1960   -9.9949    9.5256 C   0  0  0  0  0  0  0  0  0  0  0  0
   15.7916  -10.1700   10.8519 C   0  0  0  0  0  0  0  0  0  0  0  0
   16.6858   -9.9137   11.8959 C   0  0  0  0  0  0  0  0  0  0  0  0
   17.9886   -9.4923   11.6098 C   0  0  0  0  0  0  0  0  0  0  0  0
   18.3939   -9.3195   10.2831 C   0  0  0  0  0  0  0  0  0  0  0  0
   17.9364   -9.3802    7.9188 O   0  0  0  0  0  0  0  0  0  0  0  0
   19.2442   -7.5222    7.1519 C   0  0  0  0  0  0  0  0  0  0  0  0
   17.8593   -8.1263    7.2547 C   0  0  0  0  0  0  0  0  0  0  0  0
 30 31  1  0  0  0
 31 29  1  0  0  0
 29 23  1  0  0  0
 23 24  2  0  0  0
 24 25  1  0  0  0
 25 26  2  0  0  0
 26 22  1  0  0  0
 26 27  1  0  0  0
 22 18  1  0  0  0
 18 19  1  0  0  0
 18 20  1  0  0  0
 20 21  2  0  0  0
 20 17  1  0  0  0
 17  1  1  0  0  0
  1  2  1  0  0  0
  2  3  2  0  0  0
  2  5  1  0  0  0
  5  6  2  0  0  0
  6  7  1  0  0  0
  7 11  1  0  0  0
  7  8  2  0  0  0
 11 12  1  0  0  0
  8 13  1  0  0  0
  8  9  1  0  0  0
 13 14  1  0  0  0
  9 15  1  0  0  0
  9 10  2  0  0  0
 15 16  1  0  0  0
 10  5  1  0  0  0
 27 28  2  0  0  0
 28 23  1  0  0  0
  1  4  1  0  0  0
M  END
>  <minimizedAffinity>
-6.40654

>  <minimizedRMSD>
1.85937

$$$$
CHEMBL1432475 19866662 MCULE-4728390893 MCULE-9429501011 MolPort-001-958-548 MolPort-035-716-748 PubChem-3128135 PubChem-90486106 ZINC000019866662


 30 32  0  0  0  0  0  0  0  0999 V2000
   16.3625   -7.7675   16.3820 N   0  0  0  0  0  0  0  0  0  0  0  0
   17.5280   -8.6352   16.6269 C   0  0  0  0  0  0  0  0  0  0  0  0
   17.9440   -9.4687   15.4103 C   0  0  0  0  0  0  0  0  0  0  0  0
   16.7587   -9.8636   14.6558 N   0  0  0  0  0  0  0  0  0  0  0  0
   16.1058   -8.6908   14.0579 C   0  0  0  0  0  0  0  0  0  0  0  0
   16.1801   -7.4430   14.9597 C   0  0  0  0  0  0  0  0  0  0  0  0
   15.1642   -8.4302   16.8857 C   0  0  0  0  0  0  0  0  0  0  0  0
   15.3168   -7.1629   20.4556 C   0  0  0  0  0  0  0  0  0  0  0  0
   15.6660   -7.7515   19.2303 C   0  0  0  0  0  0  0  0  0  0  0  0
   14.7456   -7.8168   18.1810 C   0  0  0  0  0  0  0  0  0  0  0  0
   13.4589   -7.2797   18.3417 C   0  0  0  0  0  0  0  0  0  0  0  0
   13.1106   -6.6916   19.5672 C   0  0  0  0  0  0  0  0  0  0  0  0
   14.0307   -6.6306   20.6257 C   0  0  0  0  0  0  0  0  0  0  0  0
   17.4650   -6.3985   21.4204 C   0  0  0  0  0  0  0  0  0  0  0  0
   16.2300   -7.0956   21.5135 O   0  0  0  0  0  0  0  0  0  0  0  0
   12.5463   -7.3388   17.2817 O   0  0  0  0  0  0  0  0  0  0  0  0
   11.1403   -7.3999   17.4792 C   0  0  0  0  0  0  0  0  0  0  0  0
   13.6890   -6.0463   21.8502 O   0  0  0  0  0  0  0  0  0  0  0  0
   12.3439   -5.7955   22.2341 C   0  0  0  0  0  0  0  0  0  0  0  0
   17.1184  -10.8391   13.6171 C   0  0  0  0  0  0  0  0  0  0  0  0
   17.2178  -10.2643   12.2290 C   0  0  0  0  0  0  0  0  0  0  0  0
   18.4267   -9.7470   11.7481 C   0  0  0  0  0  0  0  0  0  0  0  0
   18.5061   -9.2394   10.4485 C   0  0  0  0  0  0  0  0  0  0  0  0
   17.3765   -9.2399    9.6178 C   0  0  0  0  0  0  0  0  0  0  0  0
   16.1775   -9.7916   10.0916 C   0  0  0  0  0  0  0  0  0  0  0  0
   16.0985  -10.2990   11.3914 C   0  0  0  0  0  0  0  0  0  0  0  0
   17.4751   -8.7418    8.2051 C   0  0  0  0  0  0  0  0  0  0  0  0
   16.2504   -8.2595    7.7768 F   0  0  0  0  0  0  0  0  0  0  0  0
   17.8646   -9.7809    7.3806 F   0  0  0  0  0  0  0  0  0  0  0  0
   18.4060   -7.7212    8.1170 F   0  0  0  0  0  0  0  0  0  0  0  0
 14 15  1  0  0  0
 15  8  1  0  0  0
  8  9  2  0  0  0
  9 10  1  0  0  0
 10  7  1  0  0  0
 10 11  2  0  0  0
  7  1  1  0  0  0
  1  2  1  0  0  0
  2  3  1  0  0  0
  3  4  1  0  0  0
  4 20  1  0  0  0
  4  5  1  0  0  0
 20 21  1  0  0  0
 21 22  2  0  0  0
 22 23  1  0  0  0
 23 24  2  0  0  0
 24 25  1  0  0  0
 24 27  1  0  0  0
 25 26  2  0  0  0
 26 21  1  0  0  0
 27 28  1  0  0  0
 27 29  1  0  0  0
 27 30  1  0  0  0
  5  6  1  0  0  0
  6  1  1  0  0  0
 11 16  1  0  0  0
 11 12  1  0  0  0
 16 17  1  0  0  0
 12 13  2  0  0  0
 13 18  1  0  0  0
 13  8  1  0  0  0
 18 19  1  0  0  0
M  END
>  <minimizedAffinity>
-6.40476

>  <minimizedRMSD>
1.24154

$$$$
CHEMBL5308658 1565523349


 33 36  0  0  0  0  0  0  0  0999 V2000
   14.6845   -7.5345   18.7706 C   0  0  0  0  0  0  0  0  0  0  0  0
   15.9453   -8.0942   18.6475 C   0  0  0  0  0  0  0  0  0  0  0  0
   16.0195   -8.3747   17.2942 C   0  0  0  0  0  0  0  0  0  0  0  0
   14.8803   -8.0148   16.6742 N   0  0  0  0  0  0  0  0  0  0  0  0
   14.0647   -7.4981   17.5761 N   0  0  0  0  0  0  0  0  0  0  0  0
   13.1609   -7.1473   17.4044 H   0  0  0  0  0  0  0  0  0  0  0  0
   17.1707   -9.0187   16.6278 C   0  0  0  0  0  0  0  0  0  0  0  0
   18.0939   -9.4909   17.3464 O   0  0  0  0  0  0  0  0  0  0  0  0
   17.2605   -9.1370   15.1958 N   0  0  0  0  0  0  0  0  0  0  0  0
   18.2605  -10.0376   14.6193 C   0  0  0  0  0  0  0  0  0  0  0  0
   17.6757  -10.8392   13.4502 C   0  0  0  0  0  0  0  0  0  0  0  0
   16.6172  -10.0751   12.6230 C   0  0  0  0  0  0  0  0  0  0  0  0
   16.7481   -8.5631   12.8428 C   0  0  0  0  0  0  0  0  0  0  0  0
   16.4976   -8.2455   14.3145 C   0  0  0  0  0  0  0  0  0  0  0  0
   16.7175  -10.4158   11.1971 N   0  0  0  0  0  0  0  0  0  0  0  0
   15.4052  -10.2523   10.5785 C   0  0  0  0  0  0  0  0  0  0  0  0
   15.6202   -9.7895    9.1544 C   0  0  0  0  0  0  0  0  0  0  0  0
   17.0290   -9.2495    9.1176 C   0  0  0  0  0  0  0  0  0  0  0  0
   17.5501   -9.4195   10.5290 C   0  0  0  0  0  0  0  0  0  0  0  0
   17.7957  -10.0198    8.2416 O   0  0  0  0  0  0  0  0  0  0  0  0
   17.9763   -9.2101    7.1192 C   0  0  0  0  0  0  0  0  0  0  0  0
   14.1192   -6.8452   22.4530 C   0  0  0  0  0  0  0  0  0  0  0  0
   14.6845   -7.3068   21.2537 C   0  0  0  0  0  0  0  0  0  0  0  0
   14.0808   -7.0444   20.0213 C   0  0  0  0  0  0  0  0  0  0  0  0
   12.8941   -6.3104   19.9878 C   0  0  0  0  0  0  0  0  0  0  0  0
   12.3075   -5.8366   21.1699 C   0  0  0  0  0  0  0  0  0  0  0  0
   12.9140   -6.0982   22.4106 C   0  0  0  0  0  0  0  0  0  0  0  0
   16.1473   -7.0093   23.8710 C   0  0  0  0  0  0  0  0  0  0  0  0
   14.7442   -7.1247   23.6740 O   0  0  0  0  0  0  0  0  0  0  0  0
   11.1174   -5.1007   21.1365 O   0  0  0  0  0  0  0  0  0  0  0  0
   10.4940   -4.6978   19.9244 C   0  0  0  0  0  0  0  0  0  0  0  0
   12.2772   -5.5947   23.5578 O   0  0  0  0  0  0  0  0  0  0  0  0
   12.6526   -4.4106   24.2464 C   0  0  0  0  0  0  0  0  0  0  0  0
 28 29  1  0  0  0
 29 22  1  0  0  0
 22 23  2  0  0  0
 23 24  1  0  0  0
 24  1  1  0  0  0
  1  2  2  0  0  0
  2  3  1  0  0  0
  3  7  1  0  0  0
  7  8  2  0  0  0
  7  9  1  0  0  0
  9 10  1  0  0  0
 10 11  1  0  0  0
 11 12  1  0  0  0
 12 15  1  0  0  0
 15 16  1  0  0  0
 16 17  1  0  0  0
 17 18  1  0  0  0
 18 20  1  0  0  0
 20 21  1  0  0  0
 18 19  1  0  0  0
 12 13  1  0  0  0
 13 14  1  0  0  0
  3  4  2  0  0  0
  4  5  1  0  0  0
 24 25  2  0  0  0
 25 26  1  0  0  0
 26 30  1  0  0  0
 30 31  1  0  0  0
 26 27  2  0  0  0
 27 32  1  0  0  0
 32 33  1  0  0  0
 27 22  1  0  0  0
  5  1  1  0  0  0
 14  9  1  0  0  0
 19 15  1  0  0  0
  5  6  1  0  0  0
M  END
>  <minimizedAffinity>
-6.40461

>  <minimizedRMSD>
1.68544

$$$$
CHEMBL5020466 ChemDiv-E713-0323 MCULE-3860291163 MolPort-007-755-335 PubChem-20912202 ZINC000015681006 ZINC15681006


 31 34  0  0  0  0  0  0  0  0999 V2000
   16.3648   -9.0826   14.5204 N   0  0  0  0  0  0  0  0  0  0  0  0
   15.7447   -8.1368   13.5947 C   0  0  0  0  0  0  0  0  0  0  0  0
   16.7303   -7.7827   12.4860 C   0  0  0  0  0  0  0  0  0  0  0  0
   17.3022   -9.0100   11.9349 N   0  0  0  0  0  0  0  0  0  0  0  0
   17.9569   -9.9249   12.8683 C   0  0  0  0  0  0  0  0  0  0  0  0
   16.9853  -10.2927   13.9859 C   0  0  0  0  0  0  0  0  0  0  0  0
   17.2010   -9.3184   10.5323 C   0  0  0  0  0  0  0  0  0  0  0  0
   16.3378  -10.3309   10.0840 C   0  0  0  0  0  0  0  0  0  0  0  0
   16.2345  -10.6248    8.7224 C   0  0  0  0  0  0  0  0  0  0  0  0
   16.9976   -9.9132    7.7943 C   0  0  0  0  0  0  0  0  0  0  0  0
   17.8786   -8.9112    8.2225 C   0  0  0  0  0  0  0  0  0  0  0  0
   17.9619   -8.6093    9.5889 C   0  0  0  0  0  0  0  0  0  0  0  0
   18.6610   -8.1098    7.2230 C   0  0  0  0  0  0  0  0  0  0  0  0
   18.9715   -8.8836    6.1180 F   0  0  0  0  0  0  0  0  0  0  0  0
   17.9069   -7.0247    6.8168 F   0  0  0  0  0  0  0  0  0  0  0  0
   19.8401   -7.6551    7.7880 F   0  0  0  0  0  0  0  0  0  0  0  0
   15.4915   -8.3286   17.8011 C   0  0  0  0  0  0  0  0  0  0  0  0
   16.3948   -9.3081   18.0150 N   0  0  0  0  0  0  0  0  0  0  0  0
   16.7880   -9.6654   16.8310 O   0  0  0  0  0  0  0  0  0  0  0  0
   16.1636   -8.9483   15.9303 C   0  0  0  0  0  0  0  0  0  0  0  0
   15.3127   -8.0654   16.4880 N   0  0  0  0  0  0  0  0  0  0  0  0
   13.4128   -6.2775   20.9367 C   0  0  0  0  0  0  0  0  0  0  0  0
   12.8630   -6.3271   19.6464 C   0  0  0  0  0  0  0  0  0  0  0  0
   13.5518   -7.0016   18.6248 C   0  0  0  0  0  0  0  0  0  0  0  0
   14.7795   -7.6247   18.8790 C   0  0  0  0  0  0  0  0  0  0  0  0
   15.3221   -7.5712   20.1677 C   0  0  0  0  0  0  0  0  0  0  0  0
   14.6446   -6.9029   21.1894 C   0  0  0  0  0  0  0  0  0  0  0  0
   13.3308   -5.2189   23.1735 C   0  0  0  0  0  0  0  0  0  0  0  0
   12.7207   -5.6040   21.9492 O   0  0  0  0  0  0  0  0  0  0  0  0
   11.6354   -5.7018   19.4021 O   0  0  0  0  0  0  0  0  0  0  0  0
   11.4925   -4.6143   18.4982 C   0  0  0  0  0  0  0  0  0  0  0  0
 28 29  1  0  0  0
 29 22  1  0  0  0
 22 23  2  0  0  0
 23 30  1  0  0  0
 23 24  1  0  0  0
 30 31  1  0  0  0
 24 25  2  0  0  0
 25 26  1  0  0  0
 25 17  1  0  0  0
 26 27  2  0  0  0
 27 22  1  0  0  0
 17 18  2  0  0  0
 18 19  1  0  0  0
 19 20  1  0  0  0
 20 21  2  0  0  0
 20  1  1  0  0  0
 21 17  1  0  0  0
  1  2  1  0  0  0
  2  3  1  0  0  0
  3  4  1  0  0  0
  4  5  1  0  0  0
  4  7  1  0  0  0
  5  6  1  0  0  0
  6  1  1  0  0  0
  7  8  2  0  0  0
  8  9  1  0  0  0
  9 10  2  0  0  0
 10 11  1  0  0  0
 11 12  2  0  0  0
 11 13  1  0  0  0
 12  7  1  0  0  0
 13 14  1  0  0  0
 13 15  1  0  0  0
 13 16  1  0  0  0
M  END
>  <minimizedAffinity>
-6.40028

>  <minimizedRMSD>
1.87380

$$$$
CHEMBL1476626 ChemDiv-D349-2845 MCULE-7633120082 MolPort-007-700-263 PubChem-16016221 ZINC000008587037 ZINC08587037


 35 38  0  0  0  0  0  0  0  0999 V2000
   16.3397   -9.4847   13.8460 C   0  0  0  0  0  0  0  0  0  0  0  0
   17.5626   -9.4947   13.1732 C   0  0  0  0  0  0  0  0  0  0  0  0
   17.6060   -9.7523   11.8037 C   0  0  0  0  0  0  0  0  0  0  0  0
   16.4298  -10.0034   11.0803 C   0  0  0  0  0  0  0  0  0  0  0  0
   15.1838  -10.0011   11.7549 C   0  0  0  0  0  0  0  0  0  0  0  0
   15.1624   -9.7379   13.1350 C   0  0  0  0  0  0  0  0  0  0  0  0
   15.7309   -8.5260   17.1791 C   0  0  0  0  0  0  0  0  0  0  0  0
   16.8758   -9.2193   17.3404 N   0  0  0  0  0  0  0  0  0  0  0  0
   17.1908   -9.6249   16.1484 O   0  0  0  0  0  0  0  0  0  0  0  0
   16.2934   -9.2087   15.2883 C   0  0  0  0  0  0  0  0  0  0  0  0
   15.3238   -8.4930   15.8920 N   0  0  0  0  0  0  0  0  0  0  0  0
   13.0409   -6.7066   19.1117 C   0  0  0  0  0  0  0  0  0  0  0  0
   13.7381   -7.3340   18.0693 C   0  0  0  0  0  0  0  0  0  0  0  0
   15.0081   -7.8725   18.2811 C   0  0  0  0  0  0  0  0  0  0  0  0
   15.5845   -7.7830   19.5495 C   0  0  0  0  0  0  0  0  0  0  0  0
   14.9099   -7.1591   20.6111 C   0  0  0  0  0  0  0  0  0  0  0  0
   13.6205   -6.6112   20.3888 C   0  0  0  0  0  0  0  0  0  0  0  0
   10.6261   -6.9718   18.6256 C   0  0  0  0  0  0  0  0  0  0  0  0
   11.7659   -6.1685   18.9012 O   0  0  0  0  0  0  0  0  0  0  0  0
   15.5109   -7.0820   21.8730 O   0  0  0  0  0  0  0  0  0  0  0  0
   16.7673   -6.4555   22.0964 C   0  0  0  0  0  0  0  0  0  0  0  0
   12.8721   -5.9680   21.3892 O   0  0  0  0  0  0  0  0  0  0  0  0
   13.0092   -4.6042   21.7621 C   0  0  0  0  0  0  0  0  0  0  0  0
   13.9360  -10.2493   11.0750 N   0  0  0  0  0  0  0  0  0  0  0  0
   13.7401   -9.8744    9.7661 O   0  0  0  0  0  0  0  0  0  0  0  0
   13.0079  -10.8363   11.6701 O   0  0  0  0  0  0  0  0  0  0  0  0
   16.5031  -10.2601    9.6718 N   0  0  0  0  0  0  0  0  0  0  0  0
   15.6613  -10.2757    9.1615 H   0  0  0  0  0  0  0  0  0  0  0  0
   17.7457  -10.4996    8.9473 C   0  0  0  0  0  0  0  0  0  0  0  0
   18.1712   -9.2663    8.2242 C   0  0  0  0  0  0  0  0  0  0  0  0
   18.7339   -8.1976    8.9256 C   0  0  0  0  0  0  0  0  0  0  0  0
   19.1169   -7.0424    8.2420 C   0  0  0  0  0  0  0  0  0  0  0  0
   18.9294   -6.9748    6.8593 C   0  0  0  0  0  0  0  0  0  0  0  0
   18.3790   -8.0255    6.1926 N   0  0  0  0  0  0  0  0  0  0  0  0
   17.9988   -9.1594    6.8409 C   0  0  0  0  0  0  0  0  0  0  0  0
 18 19  1  0  0  0
 19 12  1  0  0  0
 12 13  2  0  0  0
 13 14  1  0  0  0
 14 15  2  0  0  0
 14  7  1  0  0  0
 15 16  1  0  0  0
 16 20  1  0  0  0
 16 17  2  0  0  0
 20 21  1  0  0  0
 17 22  1  0  0  0
 17 12  1  0  0  0
 22 23  1  0  0  0
  7  8  2  0  0  0
  8  9  1  0  0  0
  9 10  1  0  0  0
 10 11  2  0  0  0
 10  1  1  0  0  0
 11  7  1  0  0  0
  1  2  2  0  0  0
  2  3  1  0  0  0
  3  4  2  0  0  0
  4 27  1  0  0  0
  4  5  1  0  0  0
 27 29  1  0  0  0
 29 30  1  0  0  0
 30 31  2  0  0  0
 31 32  1  0  0  0
 32 33  2  0  0  0
 33 34  1  0  0  0
 34 35  2  0  0  0
 35 30  1  0  0  0
  5  6  2  0  0  0
  5 24  1  0  0  0
  6  1  1  0  0  0
 24 25  1  0  0  0
 24 26  2  0  0  0
 27 28  1  0  0  0
M  CHG 1  24   1
M  CHG 1  25  -1
M  END
>  <minimizedAffinity>
-6.39195

>  <minimizedRMSD>
1.51510

$$$$
CHEMBL3199047 LN00705163 MolPort-002-629-541 PubChem-9633759 ZINC09499512


 35 38  0  0  0  0  0  0  0  0999 V2000
   15.0158   -7.0328   20.7275 C   0  0  0  0  0  0  0  0  0  0  0  0
   14.1408   -6.3077   21.5217 C   0  0  0  0  0  0  0  0  0  0  0  0
   14.5711   -6.4524   22.7940 N   0  0  0  0  0  0  0  0  0  0  0  0
   15.6497   -7.2205   22.7740 N   0  0  0  0  0  0  0  0  0  0  0  0
   15.9404   -7.5899   21.5348 N   0  0  0  0  0  0  0  0  0  0  0  0
   14.0493   -5.8480   23.9884 C   0  0  0  0  0  0  0  0  0  0  0  0
   12.7455   -5.6814   24.2684 N   0  0  0  0  0  0  0  0  0  0  0  0
   12.7140   -5.0609   25.4177 O   0  0  0  0  0  0  0  0  0  0  0  0
   13.8940   -4.7996   25.9128 N   0  0  0  0  0  0  0  0  0  0  0  0
   14.7624   -5.2885   25.0152 C   0  0  0  0  0  0  0  0  0  0  0  0
   16.1783   -5.2228   25.1448 N   0  0  0  0  0  0  0  0  0  0  0  0
   16.5810   -4.7925   25.9334 H   0  0  0  0  0  0  0  0  0  0  0  0
   16.7550   -5.6076   24.4458 H   0  0  0  0  0  0  0  0  0  0  0  0
   12.9548   -5.5496   21.0893 C   0  0  0  0  0  0  0  0  0  0  0  0
   11.8644   -6.2169   20.5171 C   0  0  0  0  0  0  0  0  0  0  0  0
   10.7337   -5.5053   20.1033 C   0  0  0  0  0  0  0  0  0  0  0  0
   10.7001   -4.1106   20.2642 C   0  0  0  0  0  0  0  0  0  0  0  0
   11.7866   -3.4405   20.8327 C   0  0  0  0  0  0  0  0  0  0  0  0
   12.9120   -4.1587   21.2444 C   0  0  0  0  0  0  0  0  0  0  0  0
    9.6637   -6.2048   19.5387 O   0  0  0  0  0  0  0  0  0  0  0  0
    8.3594   -6.1981   20.1026 C   0  0  0  0  0  0  0  0  0  0  0  0
   15.8987   -8.1542   18.6696 N   0  0  0  0  0  0  0  0  0  0  0  0
   14.9678   -7.2565   19.2733 C   0  0  0  0  0  0  0  0  0  0  0  0
   14.1051   -6.6754   18.5622 O   0  0  0  0  0  0  0  0  0  0  0  0
   16.5661   -8.6104   19.2315 H   0  0  0  0  0  0  0  0  0  0  0  0
   16.9039   -8.9273   16.7124 C   0  0  0  0  0  0  0  0  0  0  0  0
   15.8777   -8.3961   17.2915 N   0  0  0  0  0  0  0  0  0  0  0  0
   16.9793   -9.7345   12.5140 C   0  0  0  0  0  0  0  0  0  0  0  0
   17.9491  -10.2843   13.3682 C   0  0  0  0  0  0  0  0  0  0  0  0
   17.9157  -10.0143   14.7392 C   0  0  0  0  0  0  0  0  0  0  0  0
   16.9157   -9.1944   15.2705 C   0  0  0  0  0  0  0  0  0  0  0  0
   15.9465   -8.6445   14.4192 C   0  0  0  0  0  0  0  0  0  0  0  0
   15.9800   -8.9145   13.0480 C   0  0  0  0  0  0  0  0  0  0  0  0
   17.8337   -9.2898   10.2357 C   0  0  0  0  0  0  0  0  0  0  0  0
   16.9856   -9.9855   11.1392 O   0  0  0  0  0  0  0  0  0  0  0  0
 34 35  1  0  0  0
 35 28  1  0  0  0
 28 29  2  0  0  0
 29 30  1  0  0  0
 30 31  2  0  0  0
 31 26  1  0  0  0
 31 32  1  0  0  0
 26 27  2  0  0  0
 27 22  1  0  0  0
 22 23  1  0  0  0
 23 24  2  0  0  0
 23  1  1  0  0  0
  1  2  2  0  0  0
  2  3  1  0  0  0
  2 14  1  0  0  0
  3  4  1  0  0  0
  3  6  1  0  0  0
  4  5  2  0  0  0
  5  1  1  0  0  0
  6  7  2  0  0  0
  7  8  1  0  0  0
  8  9  1  0  0  0
  9 10  2  0  0  0
 10 11  1  0  0  0
 10  6  1  0  0  0
 14 15  2  0  0  0
 15 16  1  0  0  0
 16 20  1  0  0  0
 16 17  2  0  0  0
 20 21  1  0  0  0
 17 18  1  0  0  0
 18 19  2  0  0  0
 19 14  1  0  0  0
 32 33  2  0  0  0
 33 28  1  0  0  0
 22 25  1  0  0  0
 11 12  1  0  0  0
 11 13  1  0  0  0
M  END
>  <minimizedAffinity>
-6.38920

>  <minimizedRMSD>
1.98898

$$$$
CHEMBL3885066 PubChem-134131042


 33 34  0  0  0  0  0  0  0  0999 V2000
   17.3578   -8.6214   16.0581 C   0  0  0  0  0  0  0  0  0  0  0  0
   16.5408  -10.1425   12.1113 C   0  0  0  0  0  0  0  0  0  0  0  0
   15.6140   -9.3171   12.7674 C   0  0  0  0  0  0  0  0  0  0  0  0
   15.8866   -8.8290   14.0480 C   0  0  0  0  0  0  0  0  0  0  0  0
   17.0842   -9.1638   14.6873 C   0  0  0  0  0  0  0  0  0  0  0  0
   18.0115   -9.9887   14.0337 C   0  0  0  0  0  0  0  0  0  0  0  0
   17.7378  -10.4760   12.7528 C   0  0  0  0  0  0  0  0  0  0  0  0
   16.2951  -10.6500   10.8327 O   0  0  0  0  0  0  0  0  0  0  0  0
   16.1436   -9.8206    9.6869 C   0  0  0  0  0  0  0  0  0  0  0  0
   17.5047   -9.5429    9.0699 C   0  0  0  0  0  0  0  0  0  0  0  0
   17.4318   -9.6232    7.5550 C   0  0  0  0  0  0  0  0  0  0  0  0
   18.1144   -8.2203    9.5457 C   0  0  0  0  0  0  0  0  0  0  0  0
   19.3881   -7.8307    8.8019 C   0  0  0  0  0  0  0  0  0  0  0  0
   19.0588   -7.0563    7.5423 C   0  0  0  0  0  0  0  0  0  0  0  0
   16.2577   -8.9114   16.9708 N   0  0  0  0  0  0  0  0  0  0  0  0
   15.1733   -8.0056   17.1848 C   0  0  0  0  0  0  0  0  0  0  0  0
   15.1453   -6.8886   16.6024 O   0  0  0  0  0  0  0  0  0  0  0  0
   16.2624   -9.7661   17.4594 H   0  0  0  0  0  0  0  0  0  0  0  0
   14.0843   -8.3699   18.1346 C   0  0  0  0  0  0  0  0  0  0  0  0
   14.1367   -7.5002   19.3487 C   0  0  0  0  0  0  0  0  0  0  0  0
   15.1236   -7.7361   20.3116 C   0  0  0  0  0  0  0  0  0  0  0  0
   15.2090   -6.9263   21.4456 C   0  0  0  0  0  0  0  0  0  0  0  0
   14.3077   -5.8667   21.6269 C   0  0  0  0  0  0  0  0  0  0  0  0
   13.3254   -5.6291   20.6614 C   0  0  0  0  0  0  0  0  0  0  0  0
   13.2308   -6.4381   19.5167 C   0  0  0  0  0  0  0  0  0  0  0  0
   12.2512   -6.2034   18.5446 O   0  0  0  0  0  0  0  0  0  0  0  0
   11.5718   -4.9615   18.4203 C   0  0  0  0  0  0  0  0  0  0  0  0
   14.3662   -5.0379   22.7507 O   0  0  0  0  0  0  0  0  0  0  0  0
   15.2376   -5.2885   23.8449 C   0  0  0  0  0  0  0  0  0  0  0  0
   18.6453   -9.1517   16.6029 C   0  0  0  0  0  0  0  0  0  0  0  0
   18.7771  -10.3853   16.8355 O   0  0  0  0  0  0  0  0  0  0  0  0
   19.7022   -8.2688   16.8236 O   0  0  0  0  0  0  0  0  0  0  0  0
   20.8163   -8.2000   15.9467 C   0  0  0  0  0  0  0  0  0  0  0  0
 10 12  1  0  0  0
 12 13  1  0  0  0
 13 14  1  0  0  0
 10  9  1  0  0  0
  9  8  1  0  0  0
  8  2  1  0  0  0
  2  3  2  0  0  0
  3  4  1  0  0  0
  4  5  2  0  0  0
  5  6  1  0  0  0
  6  7  2  0  0  0
  1  5  1  0  0  0
  1 30  1  0  0  0
 30 31  2  0  0  0
 30 32  1  0  0  0
 32 33  1  0  0  0
  1 15  1  0  0  0
 15 16  1  0  0  0
 16 17  2  0  0  0
 16 19  1  0  0  0
 19 20  1  0  0  0
 20 21  2  0  0  0
 21 22  1  0  0  0
 22 23  2  0  0  0
 23 24  1  0  0  0
 24 25  2  0  0  0
 25 26  1  0  0  0
 26 27  1  0  0  0
 23 28  1  0  0  0
 28 29  1  0  0  0
 10 11  1  0  0  0
  7  2  1  0  0  0
 25 20  1  0  0  0
 15 18  1  0  0  0
M  END
>  <minimizedAffinity>
-6.38260

>  <minimizedRMSD>
1.89051

$$$$
CHEMBL1362373


 28 29  0  0  0  0  0  0  0  0999 V2000
   15.9460   -7.9508   16.5234 N   0  0  0  0  0  0  0  0  0  0  0  0
   15.6536   -7.1791   15.9865 H   0  0  0  0  0  0  0  0  0  0  0  0
   16.8126   -8.9247   15.9395 C   0  0  0  0  0  0  0  0  0  0  0  0
   17.7560   -9.4518   16.6516 N   0  0  0  0  0  0  0  0  0  0  0  0
   18.3561  -10.1235   16.2541 H   0  0  0  0  0  0  0  0  0  0  0  0
   16.2644  -10.0914   11.8391 C   0  0  0  0  0  0  0  0  0  0  0  0
   15.1687   -9.9277   12.6932 C   0  0  0  0  0  0  0  0  0  0  0  0
   15.3460   -9.5490   14.0243 C   0  0  0  0  0  0  0  0  0  0  0  0
   16.6296   -9.3251   14.5311 C   0  0  0  0  0  0  0  0  0  0  0  0
   17.7329   -9.4865   13.6838 C   0  0  0  0  0  0  0  0  0  0  0  0
   17.5709   -9.8676   12.3408 C   0  0  0  0  0  0  0  0  0  0  0  0
   15.7691   -9.5743    9.4407 C   0  0  0  0  0  0  0  0  0  0  0  0
   15.9909  -10.4739   10.5172 O   0  0  0  0  0  0  0  0  0  0  0  0
   18.6900  -10.0221   11.5144 O   0  0  0  0  0  0  0  0  0  0  0  0
   18.9732   -9.1552   10.4240 C   0  0  0  0  0  0  0  0  0  0  0  0
   15.5127   -8.0731   17.8253 O   0  0  0  0  0  0  0  0  0  0  0  0
   14.2790   -7.5565   18.2249 C   0  0  0  0  0  0  0  0  0  0  0  0
   13.3478   -7.4570   17.3808 O   0  0  0  0  0  0  0  0  0  0  0  0
   14.0849   -7.1480   19.6402 C   0  0  0  0  0  0  0  0  0  0  0  0
   14.8180   -7.8454   20.6087 C   0  0  0  0  0  0  0  0  0  0  0  0
   14.7046   -7.5343   21.9594 C   0  0  0  0  0  0  0  0  0  0  0  0
   13.8460   -6.5194   22.3668 C   0  0  0  0  0  0  0  0  0  0  0  0
   13.0862   -5.7983   21.4370 C   0  0  0  0  0  0  0  0  0  0  0  0
   13.2135   -6.1017   20.0535 C   0  0  0  0  0  0  0  0  0  0  0  0
   12.4782   -5.2819   19.0387 C   0  0  0  0  0  0  0  0  0  0  0  0
   12.2116   -4.7646   21.9316 N   0  0  0  0  0  0  0  0  0  0  0  0
   11.0581   -5.0256   22.3306 O   0  0  0  0  0  0  0  0  0  0  0  0
   12.6981   -3.4904   22.1155 O   0  0  0  0  0  0  0  0  0  0  0  0
 12 13  1  0  0  0
 13  6  1  0  0  0
  6  7  2  0  0  0
  7  8  1  0  0  0
  8  9  2  0  0  0
  9  3  1  0  0  0
  9 10  1  0  0  0
  3  4  2  0  0  0
  3  1  1  0  0  0
  1 16  1  0  0  0
 16 17  1  0  0  0
 17 18  2  0  0  0
 17 19  1  0  0  0
 19 20  2  0  0  0
 20 21  1  0  0  0
 21 22  2  0  0  0
 22 23  1  0  0  0
 23 26  1  0  0  0
 23 24  2  0  0  0
 26 27  2  0  0  0
 26 28  1  0  0  0
 24 25  1  0  0  0
 24 19  1  0  0  0
 10 11  2  0  0  0
 11 14  1  0  0  0
 11  6  1  0  0  0
 14 15  1  0  0  0
  4  5  1  0  0  0
  1  2  1  0  0  0
M  CHG 1  26   1
M  CHG 1  28  -1
M  END
>  <minimizedAffinity>
-6.36372

>  <minimizedRMSD>
1.87352

$$$$
CHEMBL1586109 876034 MolPort-001-982-084 PubChem-1134805 ZINC000000876034 ZINC00876034


 31 33  0  0  0  0  0  0  0  0999 V2000
   16.9812   -9.9278   14.7516 N   0  0  0  0  0  0  0  0  0  0  0  0
   17.7418  -10.8946   15.4241 N   0  0  0  0  0  0  0  0  0  0  0  0
   17.5246  -10.7053   16.8185 C   0  0  0  0  0  0  0  0  0  0  0  0
   18.0716  -11.4102   17.7069 O   0  0  0  0  0  0  0  0  0  0  0  0
   16.5958   -9.6066   17.0639 C   0  0  0  0  0  0  0  0  0  0  0  0
   16.2169   -9.1710   18.2728 C   0  0  0  0  0  0  0  0  0  0  0  0
   16.2926   -9.1233   15.7134 C   0  0  0  0  0  0  0  0  0  0  0  0
   15.6161   -8.1027   15.4209 O   0  0  0  0  0  0  0  0  0  0  0  0
   18.3182  -11.5767   15.0097 H   0  0  0  0  0  0  0  0  0  0  0  0
   16.9315   -9.5590   10.5146 C   0  0  0  0  0  0  0  0  0  0  0  0
   18.1460   -9.6610   11.2068 C   0  0  0  0  0  0  0  0  0  0  0  0
   18.1569   -9.7812   12.5991 C   0  0  0  0  0  0  0  0  0  0  0  0
   16.9551   -9.8005   13.3205 C   0  0  0  0  0  0  0  0  0  0  0  0
   15.7414   -9.6997   12.6254 C   0  0  0  0  0  0  0  0  0  0  0  0
   15.7295   -9.5795   11.2332 C   0  0  0  0  0  0  0  0  0  0  0  0
   16.9137   -9.4321    9.0482 C   0  0  0  0  0  0  0  0  0  0  0  0
   16.1723  -10.1854    8.3578 O   0  0  0  0  0  0  0  0  0  0  0  0
   18.0807   -8.5750    7.0564 C   0  0  0  0  0  0  0  0  0  0  0  0
   17.7199   -8.4759    8.4257 O   0  0  0  0  0  0  0  0  0  0  0  0
   15.2347   -8.1199   18.5877 C   0  0  0  0  0  0  0  0  0  0  0  0
   15.4227   -7.3666   19.7420 C   0  0  0  0  0  0  0  0  0  0  0  0
   14.4970   -6.3876   20.1329 C   0  0  0  0  0  0  0  0  0  0  0  0
   13.3349   -6.1676   19.3458 C   0  0  0  0  0  0  0  0  0  0  0  0
   13.1319   -6.9607   18.1846 C   0  0  0  0  0  0  0  0  0  0  0  0
   14.0789   -7.9251   17.8331 C   0  0  0  0  0  0  0  0  0  0  0  0
   14.7252   -5.6420   21.2958 O   0  0  0  0  0  0  0  0  0  0  0  0
   15.3161   -6.1905   22.4670 C   0  0  0  0  0  0  0  0  0  0  0  0
   12.3753   -5.1953   19.6771 O   0  0  0  0  0  0  0  0  0  0  0  0
   11.2798   -5.3840   20.5617 C   0  0  0  0  0  0  0  0  0  0  0  0
   12.0159   -6.8442   17.3406 O   0  0  0  0  0  0  0  0  0  0  0  0
   10.7771   -7.5150   17.5211 C   0  0  0  0  0  0  0  0  0  0  0  0
 18 19  1  0  0  0
 19 16  1  0  0  0
 16 17  2  0  0  0
 16 10  1  0  0  0
 10 11  2  0  0  0
 11 12  1  0  0  0
 12 13  2  0  0  0
 13 14  1  0  0  0
 13  1  1  0  0  0
 14 15  2  0  0  0
 15 10  1  0  0  0
  1  2  1  0  0  0
  2  3  1  0  0  0
  3  4  2  0  0  0
  3  5  1  0  0  0
  5  6  2  0  0  0
  5  7  1  0  0  0
  6 20  1  0  0  0
 20 21  2  0  0  0
 21 22  1  0  0  0
 22 26  1  0  0  0
 22 23  2  0  0  0
 26 27  1  0  0  0
 23 28  1  0  0  0
 23 24  1  0  0  0
 28 29  1  0  0  0
 24 30  1  0  0  0
 24 25  2  0  0  0
 30 31  1  0  0  0
 25 20  1  0  0  0
  7  8  2  0  0  0
  7  1  1  0  0  0
  2  9  1  0  0  0
M  END
>  <minimizedAffinity>
-6.35801

>  <minimizedRMSD>
1.96315

$$$$
CHEMBL190685 PubChem-5330349


 34 38  0  0  0  0  0  0  0  0999 V2000
   10.7974   -5.2616   19.7842 C   0  0  0  0  0  0  0  0  0  0  0  0
   12.0471   -5.7100   20.4716 C   0  0  0  0  0  0  0  0  0  0  0  0
   12.2095   -5.4203   21.8212 C   0  0  0  0  0  0  0  0  0  0  0  0
   13.3605   -5.8383   22.4954 C   0  0  0  0  0  0  0  0  0  0  0  0
   13.4872   -5.5290   23.7108 O   0  0  0  0  0  0  0  0  0  0  0  0
   14.3361   -6.5594   21.8419 N   0  0  0  0  0  0  0  0  0  0  0  0
   14.1987   -6.8453   20.5070 C   0  0  0  0  0  0  0  0  0  0  0  0
   15.1622   -7.5491   19.8453 N   0  0  0  0  0  0  0  0  0  0  0  0
   15.0458   -7.8440   18.5231 C   0  0  0  0  0  0  0  0  0  0  0  0
   13.9497   -7.4215   17.8305 N   0  0  0  0  0  0  0  0  0  0  0  0
   12.9605   -6.7188   18.4382 C   0  0  0  0  0  0  0  0  0  0  0  0
   13.0534   -6.4152   19.7989 C   0  0  0  0  0  0  0  0  0  0  0  0
   15.5406   -7.0394   22.5428 C   0  0  0  0  0  0  0  0  0  0  0  0
   16.4676   -5.9006   22.9321 C   0  0  0  0  0  0  0  0  0  0  0  0
   17.0565   -6.3110   24.2665 C   0  0  0  0  0  0  0  0  0  0  0  0
   15.9949   -7.1702   24.9300 C   0  0  0  0  0  0  0  0  0  0  0  0
   15.2006   -7.8158   23.8071 C   0  0  0  0  0  0  0  0  0  0  0  0
   16.0929   -8.5859   17.8807 N   0  0  0  0  0  0  0  0  0  0  0  0
   16.7494   -9.0185   18.4733 H   0  0  0  0  0  0  0  0  0  0  0  0
   16.2899   -8.7676   16.4710 C   0  0  0  0  0  0  0  0  0  0  0  0
   15.9242   -7.7873   15.5349 C   0  0  0  0  0  0  0  0  0  0  0  0
   16.1391   -7.9962   14.1710 C   0  0  0  0  0  0  0  0  0  0  0  0
   16.7254   -9.1898   13.7144 C   0  0  0  0  0  0  0  0  0  0  0  0
   17.0935  -10.1669   14.6567 C   0  0  0  0  0  0  0  0  0  0  0  0
   16.8774   -9.9559   16.0217 C   0  0  0  0  0  0  0  0  0  0  0  0
   16.9578   -9.4012   12.3089 N   0  0  0  0  0  0  0  0  0  0  0  0
   18.1109   -8.7862   11.6423 C   0  0  0  0  0  0  0  0  0  0  0  0
   18.5495   -9.6267   10.4309 C   0  0  0  0  0  0  0  0  0  0  0  0
   19.2767  -10.8820   10.8888 C   0  0  0  0  0  0  0  0  0  0  0  0
   17.4506   -9.9996    9.5148 N   0  0  0  0  0  0  0  0  0  0  0  0
   16.1037   -9.7248   10.0338 C   0  0  0  0  0  0  0  0  0  0  0  0
   15.0851  -10.4870    9.2133 C   0  0  0  0  0  0  0  0  0  0  0  0
   15.9742  -10.1232   11.5040 C   0  0  0  0  0  0  0  0  0  0  0  0
   17.5205  -10.9991    9.3239 H   0  0  0  0  0  0  0  0  0  0  0  0
  1  2  1  0  0  0
  2  3  2  0  0  0
  3  4  1  0  0  0
  4  5  2  0  0  0
  4  6  1  0  0  0
  6 13  1  0  0  0
  6  7  1  0  0  0
 13 14  1  0  0  0
 14 15  1  0  0  0
 15 16  1  0  0  0
 16 17  1  0  0  0
 17 13  1  0  0  0
  7  8  2  0  0  0
  8  9  1  0  0  0
  9 18  1  0  0  0
  9 10  2  0  0  0
 18 20  1  0  0  0
 20 21  2  0  0  0
 21 22  1  0  0  0
 22 23  2  0  0  0
 23 26  1  0  0  0
 23 24  1  0  0  0
 26 27  1  0  0  0
 27 28  1  0  0  0
 28 29  1  0  0  0
 28 30  1  0  0  0
 30 31  1  0  0  0
 31 32  1  0  0  0
 31 33  1  0  0  0
 33 26  1  0  0  0
 24 25  2  0  0  0
 25 20  1  0  0  0
 10 11  1  0  0  0
 11 12  2  0  0  0
 12  2  1  0  0  0
 12  7  1  0  0  0
 18 19  1  0  0  0
 30 34  1  0  0  0
M  END
>  <minimizedAffinity>
-6.35046

>  <minimizedRMSD>
1.82475

$$$$
CHEMBL4166229 PubChem-145952887


 27 29  0  0  0  0  0  0  0  0999 V2000
   17.4072  -10.6078   15.6473 C   0  0  0  0  0  0  0  0  0  0  0  0
   17.2562  -10.4362   17.0212 C   0  0  0  0  0  0  0  0  0  0  0  0
   16.4584   -9.4465   17.4970 N   0  0  0  0  0  0  0  0  0  0  0  0
   15.7974   -8.6115   16.6506 C   0  0  0  0  0  0  0  0  0  0  0  0
   15.9371   -8.7695   15.3079 N   0  0  0  0  0  0  0  0  0  0  0  0
   16.7255   -9.7469   14.7823 C   0  0  0  0  0  0  0  0  0  0  0  0
   16.8413   -9.8734   13.3129 C   0  0  0  0  0  0  0  0  0  0  0  0
   15.6102   -9.4607   12.2354 S   0  0  0  0  0  0  0  0  0  0  0  0
   16.5052   -9.8800   10.8812 C   0  0  0  0  0  0  0  0  0  0  0  0
   17.7345  -10.3338   11.2095 N   0  0  0  0  0  0  0  0  0  0  0  0
   17.9305  -10.3339   12.5555 C   0  0  0  0  0  0  0  0  0  0  0  0
   19.2246  -10.7988   13.1292 C   0  0  0  0  0  0  0  0  0  0  0  0
   16.0367   -9.7731    9.5731 O   0  0  0  0  0  0  0  0  0  0  0  0
   16.8690  -10.0597    8.4604 C   0  0  0  0  0  0  0  0  0  0  0  0
   17.2970   -8.7645    7.8039 C   0  0  0  0  0  0  0  0  0  0  0  0
   14.9527   -7.5636   17.1451 N   0  0  0  0  0  0  0  0  0  0  0  0
   14.6589   -6.8945   16.4853 H   0  0  0  0  0  0  0  0  0  0  0  0
   14.4847   -7.3754   18.4903 C   0  0  0  0  0  0  0  0  0  0  0  0
   13.1264   -7.0885   18.7060 C   0  0  0  0  0  0  0  0  0  0  0  0
   12.6561   -6.9022   20.0164 C   0  0  0  0  0  0  0  0  0  0  0  0
   13.5270   -6.9995   21.1115 C   0  0  0  0  0  0  0  0  0  0  0  0
   14.8754   -7.2849   20.8894 C   0  0  0  0  0  0  0  0  0  0  0  0
   15.3504   -7.4713   19.5899 C   0  0  0  0  0  0  0  0  0  0  0  0
   13.0800   -6.8179   22.4231 O   0  0  0  0  0  0  0  0  0  0  0  0
   12.5202   -5.5944   22.8807 C   0  0  0  0  0  0  0  0  0  0  0  0
   12.2630   -6.9928   17.6086 O   0  0  0  0  0  0  0  0  0  0  0  0
   10.9037   -7.4046   17.6603 C   0  0  0  0  0  0  0  0  0  0  0  0
  1  2  2  0  0  0
  2  3  1  0  0  0
  3  4  2  0  0  0
  4  5  1  0  0  0
  5  6  2  0  0  0
  6  7  1  0  0  0
  7  8  1  0  0  0
  8  9  1  0  0  0
  9 10  2  0  0  0
 10 11  1  0  0  0
 11 12  1  0  0  0
  9 13  1  0  0  0
 13 14  1  0  0  0
 14 15  1  0  0  0
  4 16  1  0  0  0
 16 18  1  0  0  0
 18 19  2  0  0  0
 19 20  1  0  0  0
 20 21  2  0  0  0
 21 22  1  0  0  0
 22 23  2  0  0  0
 21 24  1  0  0  0
 24 25  1  0  0  0
 19 26  1  0  0  0
 26 27  1  0  0  0
  6  1  1  0  0  0
 11  7  2  0  0  0
 23 18  1  0  0  0
 16 17  1  0  0  0
M  END
>  <minimizedAffinity>
-6.34806

>  <minimizedRMSD>
1.88749

$$$$
CHEMBL251844 PubChem-44445962


 25 27  0  0  0  0  0  0  0  0999 V2000
   14.0946   -7.1774   19.2134 C   0  0  0  0  0  0  0  0  0  0  0  0
   13.4556   -7.0684   18.0257 N   0  0  0  0  0  0  0  0  0  0  0  0
   14.1699   -7.5195   16.9961 N   0  0  0  0  0  0  0  0  0  0  0  0
   15.3807   -7.9891   17.3641 C   0  0  0  0  0  0  0  0  0  0  0  0
   15.6257   -7.8630   19.0219 S   0  0  0  0  0  0  0  0  0  0  0  0
   12.4002   -4.6410   19.7117 C   0  0  0  0  0  0  0  0  0  0  0  0
   12.7866   -5.6384   20.7000 N   0  0  0  0  0  0  0  0  0  0  0  0
   12.4863   -5.6543   22.0125 C   0  0  0  0  0  0  0  0  0  0  0  0
   13.0419   -6.7718   22.6007 C   0  0  0  0  0  0  0  0  0  0  0  0
   13.6970   -7.4611   21.6417 N   0  0  0  0  0  0  0  0  0  0  0  0
   13.5249   -6.7519   20.5046 C   0  0  0  0  0  0  0  0  0  0  0  0
   11.7087   -4.6658   22.7027 N   0  0  0  0  0  0  0  0  0  0  0  0
   10.4766   -4.8009   22.8452 O   0  0  0  0  0  0  0  0  0  0  0  0
   12.3245   -3.5491   23.2182 O   0  0  0  0  0  0  0  0  0  0  0  0
   16.3328   -8.5265   16.4500 N   0  0  0  0  0  0  0  0  0  0  0  0
   17.2056   -8.8369   16.7833 H   0  0  0  0  0  0  0  0  0  0  0  0
   16.0420   -8.6183   15.0847 N   0  0  0  0  0  0  0  0  0  0  0  0
   16.6582   -9.4839   14.3489 C   0  0  0  0  0  0  0  0  0  0  0  0
   16.3777   -9.6067   12.9147 C   0  0  0  0  0  0  0  0  0  0  0  0
   15.0947   -9.9291   12.4472 C   0  0  0  0  0  0  0  0  0  0  0  0
   14.8542  -10.0401   11.0745 C   0  0  0  0  0  0  0  0  0  0  0  0
   15.8935   -9.8295   10.1639 C   0  0  0  0  0  0  0  0  0  0  0  0
   17.1731   -9.5081   10.6259 C   0  0  0  0  0  0  0  0  0  0  0  0
   18.5897   -9.2212    9.3849 Br  0  0  0  0  0  0  0  0  0  0  0  0
   17.4140   -9.3972   11.9988 C   0  0  0  0  0  0  0  0  0  0  0  0
  6  7  1  0  0  0
  7  8  1  0  0  0
  8 12  1  0  0  0
  8  9  2  0  0  0
 12 13  2  0  0  0
 12 14  1  0  0  0
  9 10  1  0  0  0
 10 11  2  0  0  0
 11  1  1  0  0  0
 11  7  1  0  0  0
  1  2  2  0  0  0
  2  3  1  0  0  0
  3  4  2  0  0  0
  4 15  1  0  0  0
  4  5  1  0  0  0
 15 17  1  0  0  0
 17 18  2  0  0  0
 18 19  1  0  0  0
 19 20  2  0  0  0
 20 21  1  0  0  0
 21 22  2  0  0  0
 22 23  1  0  0  0
 23 24  1  0  0  0
 23 25  2  0  0  0
 25 19  1  0  0  0
  5  1  1  0  0  0
 15 16  1  0  0  0
M  CHG 1  12   1
M  CHG 1  14  -1
M  END
>  <minimizedAffinity>
-6.34566

>  <minimizedRMSD>
1.91964

$$$$
CHEMBL74791 PubChem-15118930


 35 37  0  0  0  0  0  0  0  0999 V2000
   15.0798   -8.3740   17.0906 C   0  0  0  0  0  0  0  0  0  0  0  0
   13.9246   -8.6280   16.6524 O   0  0  0  0  0  0  0  0  0  0  0  0
   16.2343   -8.9474   16.4526 N   0  0  0  0  0  0  0  0  0  0  0  0
   17.5732   -8.6765   16.9788 C   0  0  0  0  0  0  0  0  0  0  0  0
   18.2946   -9.9802   17.3439 C   0  0  0  0  0  0  0  0  0  0  0  0
   17.8871  -11.1756   16.4696 C   0  0  0  0  0  0  0  0  0  0  0  0
   17.3325  -10.7348   15.1196 C   0  0  0  0  0  0  0  0  0  0  0  0
   16.0738   -9.8901   15.3354 C   0  0  0  0  0  0  0  0  0  0  0  0
   15.2334   -7.4724   18.2760 C   0  0  0  0  0  0  0  0  0  0  0  0
   14.1702   -6.4820   18.2896 N   0  0  0  0  0  0  0  0  0  0  0  0
   13.2677   -6.9528   18.3551 H   0  0  0  0  0  0  0  0  0  0  0  0
   14.2057   -5.9331   17.4305 H   0  0  0  0  0  0  0  0  0  0  0  0
   15.2123   -8.2880   19.5627 C   0  0  0  0  0  0  0  0  0  0  0  0
   16.9687   -6.6406   21.2798 C   0  0  0  0  0  0  0  0  0  0  0  0
   15.4970   -6.7057   21.5168 C   0  0  0  0  0  0  0  0  0  0  0  0
   14.9648   -5.9742   22.5812 C   0  0  0  0  0  0  0  0  0  0  0  0
   13.5955   -6.0061   22.8444 C   0  0  0  0  0  0  0  0  0  0  0  0
   13.0751   -5.2694   23.9001 O   0  0  0  0  0  0  0  0  0  0  0  0
   12.7474   -6.7703   22.0411 C   0  0  0  0  0  0  0  0  0  0  0  0
   13.2632   -7.5097   20.9734 C   0  0  0  0  0  0  0  0  0  0  0  0
   12.3190   -8.3243   20.1537 C   0  0  0  0  0  0  0  0  0  0  0  0
   14.6478   -7.4865   20.7026 C   0  0  0  0  0  0  0  0  0  0  0  0
   13.6446   -4.7566   24.4392 H   0  0  0  0  0  0  0  0  0  0  0  0
   15.6850   -9.1669   14.0490 C   0  0  0  0  0  0  0  0  0  0  0  0
   16.4367   -9.6848   12.9140 N   0  0  0  0  0  0  0  0  0  0  0  0
   16.8675  -10.5767   13.1575 H   0  0  0  0  0  0  0  0  0  0  0  0
   15.4933   -9.8681   11.8232 C   0  0  0  0  0  0  0  0  0  0  0  0
   16.2447  -10.0763   10.5226 C   0  0  0  0  0  0  0  0  0  0  0  0
   17.6011   -9.4015   10.6159 C   0  0  0  0  0  0  0  0  0  0  0  0
   18.0112   -8.8490    9.2932 C   0  0  0  0  0  0  0  0  0  0  0  0
   17.4928   -9.3785    8.1039 C   0  0  0  0  0  0  0  0  0  0  0  0
   17.9027   -8.8632    6.8701 C   0  0  0  0  0  0  0  0  0  0  0  0
   18.8364   -7.8248    6.8211 C   0  0  0  0  0  0  0  0  0  0  0  0
   19.3609   -7.3016    8.0069 C   0  0  0  0  0  0  0  0  0  0  0  0
   18.9502   -7.8145    9.2414 C   0  0  0  0  0  0  0  0  0  0  0  0
 14 15  1  0  0  0
 15 16  2  0  0  0
 16 17  1  0  0  0
 17 18  1  0  0  0
 17 19  2  0  0  0
 19 20  1  0  0  0
 20 21  1  0  0  0
 20 22  2  0  0  0
 22 13  1  0  0  0
 22 15  1  0  0  0
  9 13  1  0  0  0
  9 10  1  0  0  0
  9  1  1  0  0  0
  1  2  2  0  0  0
  1  3  1  0  0  0
  3  4  1  0  0  0
  4  5  1  0  0  0
  5  6  1  0  0  0
  6  7  1  0  0  0
  7  8  1  0  0  0
  8 24  1  0  0  0
  8  3  1  0  0  0
 24 25  1  0  0  0
 25 27  1  0  0  0
 27 28  1  0  0  0
 28 29  1  0  0  0
 29 30  1  0  0  0
 30 31  2  0  0  0
 31 32  1  0  0  0
 32 33  2  0  0  0
 33 34  1  0  0  0
 34 35  2  0  0  0
 35 30  1  0  0  0
 18 23  1  0  0  0
 10 11  1  0  0  0
 10 12  1  0  0  0
 25 26  1  0  0  0
M  END
>  <minimizedAffinity>
-6.34168

>  <minimizedRMSD>
1.79578

$$$$
CHEMBL3919045 PubChem-118970892


 31 34  0  0  0  0  0  0  0  0999 V2000
   16.1870   -8.9202   15.9804 C   0  0  0  0  0  0  0  0  0  0  0  0
   14.9688   -9.3441   15.5464 N   0  0  0  0  0  0  0  0  0  0  0  0
   14.7869   -9.7696   14.2701 C   0  0  0  0  0  0  0  0  0  0  0  0
   15.8563   -9.7753   13.3781 C   0  0  0  0  0  0  0  0  0  0  0  0
   15.6491  -10.2643   11.9752 C   0  0  0  0  0  0  0  0  0  0  0  0
   16.7855   -9.9177   11.1246 N   0  0  0  0  0  0  0  0  0  0  0  0
   18.1229  -10.1319   11.6672 C   0  0  0  0  0  0  0  0  0  0  0  0
   18.3137   -9.3067   12.9376 C   0  0  0  0  0  0  0  0  0  0  0  0
   17.1147   -9.3526   13.8424 C   0  0  0  0  0  0  0  0  0  0  0  0
   17.2440   -8.9257   15.1258 N   0  0  0  0  0  0  0  0  0  0  0  0
   16.5840   -9.7468    9.7117 C   0  0  0  0  0  0  0  0  0  0  0  0
   15.5315  -10.1920    9.1777 O   0  0  0  0  0  0  0  0  0  0  0  0
   17.5643   -9.0420    8.8616 C   0  0  0  0  0  0  0  0  0  0  0  0
   17.6183   -9.1208    7.4773 C   0  0  0  0  0  0  0  0  0  0  0  0
   18.6151   -8.3075    6.9186 C   0  0  0  0  0  0  0  0  0  0  0  0
   19.3472   -7.5722    7.8474 C   0  0  0  0  0  0  0  0  0  0  0  0
   18.7347   -7.9489    9.3670 S   0  0  0  0  0  0  0  0  0  0  0  0
   16.3811   -8.4648   17.3263 N   0  0  0  0  0  0  0  0  0  0  0  0
   17.2961   -8.5348   17.6828 H   0  0  0  0  0  0  0  0  0  0  0  0
   14.7559   -7.3051   20.4781 C   0  0  0  0  0  0  0  0  0  0  0  0
   15.6876   -7.8311   19.5711 C   0  0  0  0  0  0  0  0  0  0  0  0
   15.3935   -7.9190   18.2122 C   0  0  0  0  0  0  0  0  0  0  0  0
   14.1499   -7.4738   17.7560 C   0  0  0  0  0  0  0  0  0  0  0  0
   13.1973   -6.9428   18.6395 C   0  0  0  0  0  0  0  0  0  0  0  0
   13.5045   -6.8570   20.0212 C   0  0  0  0  0  0  0  0  0  0  0  0
   16.1864   -6.5211   22.3426 C   0  0  0  0  0  0  0  0  0  0  0  0
   15.0524   -7.2175   21.8431 O   0  0  0  0  0  0  0  0  0  0  0  0
   12.6154   -6.3407   20.9791 O   0  0  0  0  0  0  0  0  0  0  0  0
   12.4625   -4.9638   21.2924 C   0  0  0  0  0  0  0  0  0  0  0  0
   11.9600   -6.5050   18.1531 O   0  0  0  0  0  0  0  0  0  0  0  0
   10.8871   -7.3892   17.8563 C   0  0  0  0  0  0  0  0  0  0  0  0
 26 27  1  0  0  0
 27 20  1  0  0  0
 20 21  2  0  0  0
 21 22  1  0  0  0
 22 23  2  0  0  0
 23 24  1  0  0  0
 24 25  2  0  0  0
 25 28  1  0  0  0
 28 29  1  0  0  0
 24 30  1  0  0  0
 30 31  1  0  0  0
 22 18  1  0  0  0
 18  1  1  0  0  0
  1  2  2  0  0  0
  2  3  1  0  0  0
  3  4  2  0  0  0
  4  5  1  0  0  0
  5  6  1  0  0  0
  6  7  1  0  0  0
  7  8  1  0  0  0
  8  9  1  0  0  0
  9 10  2  0  0  0
  6 11  1  0  0  0
 11 12  2  0  0  0
 11 13  1  0  0  0
 13 14  2  0  0  0
 14 15  1  0  0  0
 15 16  2  0  0  0
 16 17  1  0  0  0
 25 20  1  0  0  0
 10  1  1  0  0  0
  9  4  1  0  0  0
 17 13  1  0  0  0
 18 19  1  0  0  0
M  END
>  <minimizedAffinity>
-6.31380

>  <minimizedRMSD>
1.63252

$$$$
CHEMBL2031260 PubChem-44464377


 38 40  0  0  0  0  0  0  0  0999 V2000
   16.0988   -8.8451   17.1265 N   0  0  0  0  0  0  0  0  0  0  0  0
   15.1399   -8.6837   16.9729 H   0  0  0  0  0  0  0  0  0  0  0  0
   17.9691  -11.3547   14.2519 C   0  0  0  0  0  0  0  0  0  0  0  0
   17.7904  -11.8069   15.5692 C   0  0  0  0  0  0  0  0  0  0  0  0
   17.1798  -10.9913   16.5227 C   0  0  0  0  0  0  0  0  0  0  0  0
   16.7538   -9.7023   16.1817 C   0  0  0  0  0  0  0  0  0  0  0  0
   16.9099   -9.2576   14.8665 C   0  0  0  0  0  0  0  0  0  0  0  0
   17.4948  -10.0748   13.8934 C   0  0  0  0  0  0  0  0  0  0  0  0
   17.6492   -9.5482   12.5696 N   0  0  0  0  0  0  0  0  0  0  0  0
   16.7465   -9.7704   11.4781 C   0  0  0  0  0  0  0  0  0  0  0  0
   15.5857  -10.2132   11.6963 O   0  0  0  0  0  0  0  0  0  0  0  0
   18.4398   -8.9881   12.3953 H   0  0  0  0  0  0  0  0  0  0  0  0
   17.1580   -9.4348   10.1042 C   0  0  0  0  0  0  0  0  0  0  0  0
   18.2128   -8.5380    9.8796 C   0  0  0  0  0  0  0  0  0  0  0  0
   18.6083   -8.2241    8.5759 C   0  0  0  0  0  0  0  0  0  0  0  0
   17.9521   -8.8047    7.4873 C   0  0  0  0  0  0  0  0  0  0  0  0
   16.9003   -9.6995    7.7020 C   0  0  0  0  0  0  0  0  0  0  0  0
   16.5052  -10.0139    9.0058 C   0  0  0  0  0  0  0  0  0  0  0  0
   19.9950  -11.9380   12.9502 C   0  0  0  0  0  0  0  0  0  0  0  0
   18.6358  -12.1456   13.3092 O   0  0  0  0  0  0  0  0  0  0  0  0
   16.6745   -8.1933   18.2711 C   0  0  0  0  0  0  0  0  0  0  0  0
   18.2598   -7.7806   18.3066 S   0  0  0  0  0  0  0  0  0  0  0  0
   15.8318   -7.7027   19.3191 N   0  0  0  0  0  0  0  0  0  0  0  0
   14.5156   -7.1582   19.1500 C   0  0  0  0  0  0  0  0  0  0  0  0
   13.9762   -7.1309   18.0102 O   0  0  0  0  0  0  0  0  0  0  0  0
   16.1868   -7.7424   20.2365 H   0  0  0  0  0  0  0  0  0  0  0  0
   13.7824   -6.6421   20.3192 C   0  0  0  0  0  0  0  0  0  0  0  0
   14.3541   -6.6961   21.5918 C   0  0  0  0  0  0  0  0  0  0  0  0
   13.6660   -6.2084   22.7119 C   0  0  0  0  0  0  0  0  0  0  0  0
   12.3833   -5.6535   22.5632 C   0  0  0  0  0  0  0  0  0  0  0  0
   11.7931   -5.5997   21.2746 C   0  0  0  0  0  0  0  0  0  0  0  0
   12.5050   -6.0954   20.1707 C   0  0  0  0  0  0  0  0  0  0  0  0
   14.2403   -6.2614   23.9874 O   0  0  0  0  0  0  0  0  0  0  0  0
   15.3048   -7.1441   24.3170 C   0  0  0  0  0  0  0  0  0  0  0  0
   11.7484   -5.1762   23.7224 O   0  0  0  0  0  0  0  0  0  0  0  0
   11.0816   -3.9271   23.8295 C   0  0  0  0  0  0  0  0  0  0  0  0
   10.5116   -5.0650   21.0979 O   0  0  0  0  0  0  0  0  0  0  0  0
    9.7638   -5.2250   19.8997 C   0  0  0  0  0  0  0  0  0  0  0  0
 19 20  1  0  0  0
 20  3  1  0  0  0
  3  4  2  0  0  0
  4  5  1  0  0  0
  5  6  2  0  0  0
  6  1  1  0  0  0
  6  7  1  0  0  0
  1 21  1  0  0  0
 21 22  2  0  0  0
 21 23  1  0  0  0
 23 24  1  0  0  0
 24 25  2  0  0  0
 24 27  1  0  0  0
 27 28  2  0  0  0
 28 29  1  0  0  0
 29 33  1  0  0  0
 29 30  2  0  0  0
 33 34  1  0  0  0
 30 35  1  0  0  0
 30 31  1  0  0  0
 35 36  1  0  0  0
 31 37  1  0  0  0
 31 32  2  0  0  0
 37 38  1  0  0  0
 32 27  1  0  0  0
  7  8  2  0  0  0
  8  9  1  0  0  0
  8  3  1  0  0  0
  9 10  1  0  0  0
 10 11  2  0  0  0
 10 13  1  0  0  0
 13 14  2  0  0  0
 14 15  1  0  0  0
 15 16  2  0  0  0
 16 17  1  0  0  0
 17 18  2  0  0  0
 18 13  1  0  0  0
  1  2  1  0  0  0
 23 26  1  0  0  0
  9 12  1  0  0  0
M  END
>  <minimizedAffinity>
-6.30422

>  <minimizedRMSD>
1.74855

$$$$
CHEMBL1519589 8721640 MCULE-6897215404 MolPort-002-197-110 PubChem-2896390 ZINC000008721640 ZINC08721640


 30 31  0  0  0  0  0  0  0  0999 V2000
   16.1501   -8.5675   17.9958 N   0  0  0  0  0  0  0  0  0  0  0  0
   14.9888   -7.7466   18.1842 C   0  0  0  0  0  0  0  0  0  0  0  0
   14.1845   -7.5469   17.2333 O   0  0  0  0  0  0  0  0  0  0  0  0
   16.7478   -8.6819   18.7697 H   0  0  0  0  0  0  0  0  0  0  0  0
   14.7354   -7.1297   19.4981 C   0  0  0  0  0  0  0  0  0  0  0  0
   15.7366   -7.1040   20.4716 C   0  0  0  0  0  0  0  0  0  0  0  0
   15.5146   -6.5204   21.7290 C   0  0  0  0  0  0  0  0  0  0  0  0
   14.2497   -5.9462   22.0147 C   0  0  0  0  0  0  0  0  0  0  0  0
   13.2426   -5.9733   21.0348 C   0  0  0  0  0  0  0  0  0  0  0  0
   13.4921   -6.5630   19.7873 C   0  0  0  0  0  0  0  0  0  0  0  0
   16.5367   -6.5100   22.6855 O   0  0  0  0  0  0  0  0  0  0  0  0
   17.9045   -6.3057   22.3563 C   0  0  0  0  0  0  0  0  0  0  0  0
   13.9368   -5.3403   23.2436 O   0  0  0  0  0  0  0  0  0  0  0  0
   14.0199   -5.9752   24.5114 C   0  0  0  0  0  0  0  0  0  0  0  0
   11.9966   -5.4054   21.3245 O   0  0  0  0  0  0  0  0  0  0  0  0
   11.0059   -5.1729   20.3323 C   0  0  0  0  0  0  0  0  0  0  0  0
   16.5187   -9.2355   16.7841 C   0  0  0  0  0  0  0  0  0  0  0  0
   17.2515  -10.6957   16.9075 S   0  0  0  0  0  0  0  0  0  0  0  0
   16.1886   -8.6580   15.5098 N   0  0  0  0  0  0  0  0  0  0  0  0
   15.6122   -7.8602   15.5331 H   0  0  0  0  0  0  0  0  0  0  0  0
   16.8226   -9.5956   11.8204 C   0  0  0  0  0  0  0  0  0  0  0  0
   17.8925  -10.0123   12.6197 C   0  0  0  0  0  0  0  0  0  0  0  0
   19.1033  -10.7094   12.1032 C   0  0  0  0  0  0  0  0  0  0  0  0
   17.7611   -9.7314   13.9435 N   0  0  0  0  0  0  0  0  0  0  0  0
   16.5962   -9.1018   14.2098 C   0  0  0  0  0  0  0  0  0  0  0  0
   15.6865   -8.8545   12.8211 S   0  0  0  0  0  0  0  0  0  0  0  0
   16.6751   -9.7526   10.3632 C   0  0  0  0  0  0  0  0  0  0  0  0
   15.6831  -10.3819    9.9039 O   0  0  0  0  0  0  0  0  0  0  0  0
   17.4446   -9.2103    8.0885 C   0  0  0  0  0  0  0  0  0  0  0  0
   17.6257   -9.2102    9.4965 O   0  0  0  0  0  0  0  0  0  0  0  0
 29 30  1  0  0  0
 30 27  1  0  0  0
 27 28  2  0  0  0
 27 21  1  0  0  0
 21 22  2  0  0  0
 22 23  1  0  0  0
 22 24  1  0  0  0
 24 25  2  0  0  0
 25 19  1  0  0  0
 25 26  1  0  0  0
 19 17  1  0  0  0
 17 18  2  0  0  0
 17  1  1  0  0  0
  1  2  1  0  0  0
  2  3  2  0  0  0
  2  5  1  0  0  0
  5  6  2  0  0  0
  6  7  1  0  0  0
  7 11  1  0  0  0
  7  8  2  0  0  0
 11 12  1  0  0  0
  8 13  1  0  0  0
  8  9  1  0  0  0
 13 14  1  0  0  0
  9 15  1  0  0  0
  9 10  2  0  0  0
 15 16  1  0  0  0
 10  5  1  0  0  0
 26 21  1  0  0  0
 19 20  1  0  0  0
  1  4  1  0  0  0
M  END
>  <minimizedAffinity>
-6.29133

>  <minimizedRMSD>
1.47989

$$$$
CHEMBL1416423 12140453 MCULE-9088535263 MolPort-003-084-600 PubChem-16188115 ZINC000012140453 ZINC12140453


 31 33  0  0  0  0  0  0  0  0999 V2000
   15.3257   -8.0311   18.0912 C   0  0  0  0  0  0  0  0  0  0  0  0
   16.3135   -8.9786   18.3841 C   0  0  0  0  0  0  0  0  0  0  0  0
   17.1078   -9.4812   17.3571 C   0  0  0  0  0  0  0  0  0  0  0  0
   16.9009   -9.0260   16.0573 C   0  0  0  0  0  0  0  0  0  0  0  0
   15.9293   -8.1081   15.8154 N   0  0  0  0  0  0  0  0  0  0  0  0
   15.1678   -7.6262   16.7999 N   0  0  0  0  0  0  0  0  0  0  0  0
   12.8055   -6.4029   21.1757 C   0  0  0  0  0  0  0  0  0  0  0  0
   12.4754   -6.2096   19.8112 C   0  0  0  0  0  0  0  0  0  0  0  0
   13.3127   -6.7501   18.8204 C   0  0  0  0  0  0  0  0  0  0  0  0
   14.4634   -7.4740   19.1552 C   0  0  0  0  0  0  0  0  0  0  0  0
   14.7777   -7.6575   20.5072 C   0  0  0  0  0  0  0  0  0  0  0  0
   13.9567   -7.1272   21.5024 C   0  0  0  0  0  0  0  0  0  0  0  0
   12.5384   -5.0802   23.2839 C   0  0  0  0  0  0  0  0  0  0  0  0
   12.0401   -5.9069   22.2419 O   0  0  0  0  0  0  0  0  0  0  0  0
   11.3311   -5.4901   19.4478 O   0  0  0  0  0  0  0  0  0  0  0  0
   11.3317   -4.4954   18.4321 C   0  0  0  0  0  0  0  0  0  0  0  0
   17.8976   -9.6533   14.7136 S   0  0  0  0  0  0  0  0  0  0  0  0
   16.5184   -9.5458   13.5350 C   0  0  0  0  0  0  0  0  0  0  0  0
   16.9990   -9.8367   12.1573 C   0  0  0  0  0  0  0  0  0  0  0  0
   17.6886  -10.8703   11.9530 O   0  0  0  0  0  0  0  0  0  0  0  0
   16.6844   -8.9293   11.0922 N   0  0  0  0  0  0  0  0  0  0  0  0
   16.1602   -8.1313   11.3324 H   0  0  0  0  0  0  0  0  0  0  0  0
   17.0545   -9.0644    9.7134 C   0  0  0  0  0  0  0  0  0  0  0  0
   16.6228  -10.1920    9.0082 C   0  0  0  0  0  0  0  0  0  0  0  0
   16.9652  -10.3591    7.6641 C   0  0  0  0  0  0  0  0  0  0  0  0
   17.7439   -9.3969    7.0166 C   0  0  0  0  0  0  0  0  0  0  0  0
   18.1866   -8.2598    7.7079 C   0  0  0  0  0  0  0  0  0  0  0  0
   17.8367   -8.1025    9.0569 C   0  0  0  0  0  0  0  0  0  0  0  0
   19.0098   -7.2386    7.0318 C   0  0  0  0  0  0  0  0  0  0  0  0
   20.0844   -7.6263    6.0728 C   0  0  0  0  0  0  0  0  0  0  0  0
   18.8135   -6.0147    7.2582 O   0  0  0  0  0  0  0  0  0  0  0  0
 13 14  1  0  0  0
 14  7  1  0  0  0
  7  8  2  0  0  0
  8 15  1  0  0  0
  8  9  1  0  0  0
 15 16  1  0  0  0
  9 10  2  0  0  0
 10 11  1  0  0  0
 10  1  1  0  0  0
 11 12  2  0  0  0
 12  7  1  0  0  0
  1  2  2  0  0  0
  2  3  1  0  0  0
  3  4  2  0  0  0
  4 17  1  0  0  0
  4  5  1  0  0  0
 17 18  1  0  0  0
 18 19  1  0  0  0
 19 20  2  0  0  0
 19 21  1  0  0  0
 21 23  1  0  0  0
 23 24  2  0  0  0
 24 25  1  0  0  0
 25 26  2  0  0  0
 26 27  1  0  0  0
 27 28  2  0  0  0
 27 29  1  0  0  0
 28 23  1  0  0  0
 29 30  1  0  0  0
 29 31  2  0  0  0
  5  6  2  0  0  0
  6  1  1  0  0  0
 21 22  1  0  0  0
M  END
>  <minimizedAffinity>
-6.28740

>  <minimizedRMSD>
1.76767

$$$$
CHEMBL4582556 PubChem-135335488


 34 37  0  0  0  0  0  0  0  0999 V2000
   17.1706   -9.5775   14.0296 C   0  0  0  0  0  0  0  0  0  0  0  0
   16.0855   -8.7836   14.4596 C   0  0  0  0  0  0  0  0  0  0  0  0
   15.9097   -8.6022   15.8283 C   0  0  0  0  0  0  0  0  0  0  0  0
   14.9348   -7.8819   16.4083 N   0  0  0  0  0  0  0  0  0  0  0  0
   15.1979   -8.0155   17.7339 C   0  0  0  0  0  0  0  0  0  0  0  0
   16.3238   -8.8125   17.9353 C   0  0  0  0  0  0  0  0  0  0  0  0
   16.7447   -9.1630   16.7128 N   0  0  0  0  0  0  0  0  0  0  0  0
   17.8018   -9.9329   16.3614 C   0  0  0  0  0  0  0  0  0  0  0  0
   18.0306  -10.1520   14.9959 C   0  0  0  0  0  0  0  0  0  0  0  0
   18.4461   -8.3293    7.8514 C   0  0  0  0  0  0  0  0  0  0  0  0
   17.2418   -8.8464    8.5641 C   0  0  0  0  0  0  0  0  0  0  0  0
   16.1171   -8.7420    8.0056 O   0  0  0  0  0  0  0  0  0  0  0  0
   17.3515   -9.4495    9.8626 N   0  0  0  0  0  0  0  0  0  0  0  0
   18.6621   -9.6024   10.4961 C   0  0  0  0  0  0  0  0  0  0  0  0
   18.5803   -9.2106   11.9707 C   0  0  0  0  0  0  0  0  0  0  0  0
   17.4022   -9.7972   12.6242 N   0  0  0  0  0  0  0  0  0  0  0  0
   16.4889  -10.6426   11.8509 C   0  0  0  0  0  0  0  0  0  0  0  0
   16.1490   -9.9688   10.5229 C   0  0  0  0  0  0  0  0  0  0  0  0
   14.3694   -7.3833   18.7882 C   0  0  0  0  0  0  0  0  0  0  0  0
   13.0182   -7.1368   18.5070 C   0  0  0  0  0  0  0  0  0  0  0  0
   12.1783   -6.5480   19.4530 C   0  0  0  0  0  0  0  0  0  0  0  0
   12.6796   -6.1903   20.7099 C   0  0  0  0  0  0  0  0  0  0  0  0
   14.0291   -6.4319   21.0008 C   0  0  0  0  0  0  0  0  0  0  0  0
   14.8821   -7.0266   20.0570 C   0  0  0  0  0  0  0  0  0  0  0  0
   10.4966   -6.2664   19.0402 Cl  0  0  0  0  0  0  0  0  0  0  0  0
   11.8288   -5.5996   21.6509 O   0  0  0  0  0  0  0  0  0  0  0  0
   12.2220   -5.3483   22.9931 C   0  0  0  0  0  0  0  0  0  0  0  0
   16.2289   -7.2561   20.3675 O   0  0  0  0  0  0  0  0  0  0  0  0
   16.9783   -6.4369   21.2586 C   0  0  0  0  0  0  0  0  0  0  0  0
   16.7585   -6.8832   22.6964 C   0  0  0  0  0  0  0  0  0  0  0  0
   16.7085   -5.6852   23.6531 C   0  0  0  0  0  0  0  0  0  0  0  0
   17.6461   -5.7786   24.7796 N   0  0  0  0  0  0  0  0  0  0  0  0
   17.6267   -7.1268   25.3279 C   0  0  0  0  0  0  0  0  0  0  0  0
   19.0013   -5.4887   24.3355 C   0  0  0  0  0  0  0  0  0  0  0  0
 10 11  1  0  0  0
 11 12  2  0  0  0
 11 13  1  0  0  0
 13 14  1  0  0  0
 14 15  1  0  0  0
 15 16  1  0  0  0
 16 17  1  0  0  0
 17 18  1  0  0  0
 16  1  1  0  0  0
  1  2  2  0  0  0
  2  3  1  0  0  0
  3  4  2  0  0  0
  4  5  1  0  0  0
  5  6  2  0  0  0
  6  7  1  0  0  0
  7  8  1  0  0  0
  8  9  2  0  0  0
  5 19  1  0  0  0
 19 20  2  0  0  0
 20 21  1  0  0  0
 21 22  2  0  0  0
 22 23  1  0  0  0
 23 24  2  0  0  0
 24 28  1  0  0  0
 28 29  1  0  0  0
 29 30  1  0  0  0
 30 31  1  0  0  0
 31 32  1  0  0  0
 32 33  1  0  0  0
 32 34  1  0  0  0
 22 26  1  0  0  0
 26 27  1  0  0  0
 21 25  1  0  0  0
 18 13  1  0  0  0
  9  1  1  0  0  0
  7  3  1  0  0  0
 24 19  1  0  0  0
M  END
>  <minimizedAffinity>
-6.28346

>  <minimizedRMSD>
1.82790

$$$$
CHEMBL4541402 PubChem-135281382


 29 32  0  0  0  0  0  0  0  0999 V2000
   17.1538   -9.7851   13.5734 C   0  0  0  0  0  0  0  0  0  0  0  0
   16.2467   -8.8509   14.1174 C   0  0  0  0  0  0  0  0  0  0  0  0
   16.1381   -8.7760   15.5030 C   0  0  0  0  0  0  0  0  0  0  0  0
   15.3288   -7.9484   16.1856 N   0  0  0  0  0  0  0  0  0  0  0  0
   15.5913   -8.2589   17.4804 C   0  0  0  0  0  0  0  0  0  0  0  0
   16.5520   -9.2662   17.5638 C   0  0  0  0  0  0  0  0  0  0  0  0
   16.8722   -9.5661   16.2978 N   0  0  0  0  0  0  0  0  0  0  0  0
   17.7583  -10.4795   15.8344 C   0  0  0  0  0  0  0  0  0  0  0  0
   17.9118  -10.6013   14.4464 C   0  0  0  0  0  0  0  0  0  0  0  0
   14.9401   -7.6099   18.6433 C   0  0  0  0  0  0  0  0  0  0  0  0
   15.6900   -7.4162   19.8130 C   0  0  0  0  0  0  0  0  0  0  0  0
   15.1296   -6.8108   20.9386 C   0  0  0  0  0  0  0  0  0  0  0  0
   13.7967   -6.3839   20.9151 C   0  0  0  0  0  0  0  0  0  0  0  0
   13.0392   -6.5730   19.7508 C   0  0  0  0  0  0  0  0  0  0  0  0
   13.5938   -7.1812   18.6128 C   0  0  0  0  0  0  0  0  0  0  0  0
   16.1192   -6.5968   22.3715 Cl  0  0  0  0  0  0  0  0  0  0  0  0
   12.8204   -7.3610   17.4593 O   0  0  0  0  0  0  0  0  0  0  0  0
   11.4020   -7.4490   17.4851 C   0  0  0  0  0  0  0  0  0  0  0  0
   13.2446   -5.7780   22.0492 O   0  0  0  0  0  0  0  0  0  0  0  0
   11.9946   -5.1021   22.0289 C   0  0  0  0  0  0  0  0  0  0  0  0
   17.6925   -9.1640    9.4056 N   0  0  0  0  0  0  0  0  0  0  0  0
   18.5326  -10.2074   10.0294 C   0  0  0  0  0  0  0  0  0  0  0  0
   18.6380  -10.0362   11.5480 C   0  0  0  0  0  0  0  0  0  0  0  0
   17.3092   -9.9039   12.1465 N   0  0  0  0  0  0  0  0  0  0  0  0
   16.1431   -9.9274   11.2676 C   0  0  0  0  0  0  0  0  0  0  0  0
   16.3823   -8.9926   10.0786 C   0  0  0  0  0  0  0  0  0  0  0  0
   18.3662   -7.2374    8.0080 C   0  0  0  0  0  0  0  0  0  0  0  0
   18.4083   -7.8750    9.3909 C   0  0  0  0  0  0  0  0  0  0  0  0
   19.8760   -8.0548    9.7573 C   0  0  0  0  0  0  0  0  0  0  0  0
 27 28  1  0  0  0
 28 29  1  0  0  0
 28 21  1  0  0  0
 21 22  1  0  0  0
 22 23  1  0  0  0
 23 24  1  0  0  0
 24 25  1  0  0  0
 25 26  1  0  0  0
 24  1  1  0  0  0
  1  2  2  0  0  0
  2  3  1  0  0  0
  3  4  2  0  0  0
  4  5  1  0  0  0
  5  6  2  0  0  0
  6  7  1  0  0  0
  7  8  1  0  0  0
  8  9  2  0  0  0
  5 10  1  0  0  0
 10 11  2  0  0  0
 11 12  1  0  0  0
 12 13  2  0  0  0
 13 14  1  0  0  0
 14 15  2  0  0  0
 15 17  1  0  0  0
 17 18  1  0  0  0
 13 19  1  0  0  0
 19 20  1  0  0  0
 12 16  1  0  0  0
 26 21  1  0  0  0
  9  1  1  0  0  0
  7  3  1  0  0  0
 15 10  1  0  0  0
M  END
>  <minimizedAffinity>
-6.28013

>  <minimizedRMSD>
1.06577

$$$$
CHEMBL4526749 PubChem-90154939


 33 36  0  0  0  0  0  0  0  0999 V2000
   13.2789   -6.6986   19.6391 C   0  0  0  0  0  0  0  0  0  0  0  0
   14.1133   -7.1283   20.7014 C   0  0  0  0  0  0  0  0  0  0  0  0
   15.3086   -7.7925   20.3950 C   0  0  0  0  0  0  0  0  0  0  0  0
   15.6677   -8.0495   19.0716 C   0  0  0  0  0  0  0  0  0  0  0  0
   14.8334   -7.6570   18.0195 C   0  0  0  0  0  0  0  0  0  0  0  0
   13.6493   -6.9712   18.3157 C   0  0  0  0  0  0  0  0  0  0  0  0
   15.2067   -7.9043   16.6072 C   0  0  0  0  0  0  0  0  0  0  0  0
   14.4177   -7.5282   15.6966 O   0  0  0  0  0  0  0  0  0  0  0  0
   16.4425   -8.5463   16.2421 N   0  0  0  0  0  0  0  0  0  0  0  0
   17.0774   -9.5356   17.1099 C   0  0  0  0  0  0  0  0  0  0  0  0
   16.9473  -10.9198   16.4807 C   0  0  0  0  0  0  0  0  0  0  0  0
   17.5193  -10.9053   15.0643 C   0  0  0  0  0  0  0  0  0  0  0  0
   16.8121   -9.8483   14.2112 C   0  0  0  0  0  0  0  0  0  0  0  0
   16.9223   -8.4697   14.8651 C   0  0  0  0  0  0  0  0  0  0  0  0
   17.3578   -9.8265   12.8190 C   0  0  0  0  0  0  0  0  0  0  0  0
   16.4740   -9.6873   11.7435 C   0  0  0  0  0  0  0  0  0  0  0  0
   16.9520   -9.6628   10.4289 C   0  0  0  0  0  0  0  0  0  0  0  0
   18.3319   -9.7793   10.1944 C   0  0  0  0  0  0  0  0  0  0  0  0
   19.2194   -9.9185   11.2647 C   0  0  0  0  0  0  0  0  0  0  0  0
   18.7348   -9.9422   12.5747 C   0  0  0  0  0  0  0  0  0  0  0  0
   16.0392   -9.5222    9.3801 O   0  0  0  0  0  0  0  0  0  0  0  0
   16.4191   -9.0715    8.0871 C   0  0  0  0  0  0  0  0  0  0  0  0
   10.4730   -7.5477   18.7817 C   0  0  0  0  0  0  0  0  0  0  0  0
   10.8335   -6.2783   19.4752 C   0  0  0  0  0  0  0  0  0  0  0  0
    9.9310   -5.2857   19.8077 C   0  0  0  0  0  0  0  0  0  0  0  0
   10.6713   -4.2867   20.4285 C   0  0  0  0  0  0  0  0  0  0  0  0
   11.9793   -4.7331   20.4403 C   0  0  0  0  0  0  0  0  0  0  0  0
   12.0764   -5.9495   19.8717 N   0  0  0  0  0  0  0  0  0  0  0  0
   13.1304   -3.9544   20.9802 C   0  0  0  0  0  0  0  0  0  0  0  0
   13.7718   -6.9420   22.1298 C   0  0  0  0  0  0  0  0  0  0  0  0
   12.6396   -7.2627   22.5776 O   0  0  0  0  0  0  0  0  0  0  0  0
   14.7233   -6.4383   23.0095 O   0  0  0  0  0  0  0  0  0  0  0  0
   15.5710   -6.1946   22.6934 H   0  0  0  0  0  0  0  0  0  0  0  0
 23 24  1  0  0  0
 24 25  2  0  0  0
 25 26  1  0  0  0
 26 27  2  0  0  0
 27 28  1  0  0  0
 27 29  1  0  0  0
 28  1  1  0  0  0
 28 24  1  0  0  0
  1  2  2  0  0  0
  2  3  1  0  0  0
  2 30  1  0  0  0
  3  4  2  0  0  0
  4  5  1  0  0  0
  5  6  2  0  0  0
  5  7  1  0  0  0
  6  1  1  0  0  0
  7  8  2  0  0  0
  7  9  1  0  0  0
  9 10  1  0  0  0
 10 11  1  0  0  0
 11 12  1  0  0  0
 12 13  1  0  0  0
 13 14  1  0  0  0
 13 15  1  0  0  0
 14  9  1  0  0  0
 15 16  2  0  0  0
 16 17  1  0  0  0
 17 18  2  0  0  0
 17 21  1  0  0  0
 18 19  1  0  0  0
 19 20  2  0  0  0
 20 15  1  0  0  0
 21 22  1  0  0  0
 30 31  2  0  0  0
 30 32  1  0  0  0
 32 33  1  0  0  0
M  END
>  <minimizedAffinity>
-6.27191

>  <minimizedRMSD>
1.50599

$$$$
CHEMBL4558032 PubChem-135334894


 30 33  0  0  0  0  0  0  0  0999 V2000
   14.3739   -7.2151   19.3690 C   0  0  0  0  0  0  0  0  0  0  0  0
   15.4067   -8.1219   19.6038 C   0  0  0  0  0  0  0  0  0  0  0  0
   15.8551   -8.4805   18.3932 N   0  0  0  0  0  0  0  0  0  0  0  0
   16.8501   -9.3411   18.0713 C   0  0  0  0  0  0  0  0  0  0  0  0
   17.1274   -9.5472   16.7127 C   0  0  0  0  0  0  0  0  0  0  0  0
   16.3793   -8.8652   15.7240 C   0  0  0  0  0  0  0  0  0  0  0  0
   15.3526   -7.9829   16.1222 C   0  0  0  0  0  0  0  0  0  0  0  0
   15.1243   -7.8194   17.4855 C   0  0  0  0  0  0  0  0  0  0  0  0
   14.1936   -7.0228   18.0376 N   0  0  0  0  0  0  0  0  0  0  0  0
   12.3191   -5.9563   20.1613 C   0  0  0  0  0  0  0  0  0  0  0  0
   11.6154   -5.3397   21.2088 C   0  0  0  0  0  0  0  0  0  0  0  0
   12.1367   -5.3002   22.5095 C   0  0  0  0  0  0  0  0  0  0  0  0
   13.3817   -5.8874   22.7636 C   0  0  0  0  0  0  0  0  0  0  0  0
   14.0888   -6.5026   21.7296 C   0  0  0  0  0  0  0  0  0  0  0  0
   13.5756   -6.5473   20.4247 C   0  0  0  0  0  0  0  0  0  0  0  0
   14.0770   -5.8644   24.3741 Cl  0  0  0  0  0  0  0  0  0  0  0  0
   11.3359   -4.8184   18.1899 C   0  0  0  0  0  0  0  0  0  0  0  0
   11.7811   -5.9852   18.8689 O   0  0  0  0  0  0  0  0  0  0  0  0
   11.4360   -4.6860   23.5534 O   0  0  0  0  0  0  0  0  0  0  0  0
   10.4841   -3.6529   23.3379 C   0  0  0  0  0  0  0  0  0  0  0  0
   16.6543   -9.0786   14.3271 N   0  0  0  0  0  0  0  0  0  0  0  0
   15.7168   -8.6401   13.2990 C   0  0  0  0  0  0  0  0  0  0  0  0
   15.5893   -9.7245   12.2252 C   0  0  0  0  0  0  0  0  0  0  0  0
   16.8939  -10.1582   11.7053 N   0  0  0  0  0  0  0  0  0  0  0  0
   17.7733  -10.6145   12.7927 C   0  0  0  0  0  0  0  0  0  0  0  0
   17.9593   -9.5528   13.8801 C   0  0  0  0  0  0  0  0  0  0  0  0
   17.5236   -9.0671   10.9632 C   0  0  0  0  0  0  0  0  0  0  0  0
   18.2595   -9.6058    9.7464 C   0  0  0  0  0  0  0  0  0  0  0  0
   17.3417   -9.7323    8.6106 C   0  0  0  0  0  0  0  0  0  0  0  0
   16.6173   -9.8327    7.7138 N   0  0  0  0  0  0  0  0  0  0  0  0
 17 18  1  0  0  0
 18 10  1  0  0  0
 10 11  2  0  0  0
 11 12  1  0  0  0
 12 13  2  0  0  0
 13 14  1  0  0  0
 14 15  2  0  0  0
 15  1  1  0  0  0
  1  2  2  0  0  0
  2  3  1  0  0  0
  3  4  1  0  0  0
  4  5  2  0  0  0
  5  6  1  0  0  0
  6  7  2  0  0  0
  7  8  1  0  0  0
  8  9  2  0  0  0
  6 21  1  0  0  0
 21 22  1  0  0  0
 22 23  1  0  0  0
 23 24  1  0  0  0
 24 25  1  0  0  0
 25 26  1  0  0  0
 24 27  1  0  0  0
 27 28  1  0  0  0
 28 29  1  0  0  0
 29 30  3  0  0  0
 13 16  1  0  0  0
 12 19  1  0  0  0
 19 20  1  0  0  0
 15 10  1  0  0  0
  9  1  1  0  0  0
  8  3  1  0  0  0
 26 21  1  0  0  0
M  END
>  <minimizedAffinity>
-6.27136

>  <minimizedRMSD>
1.88854

$$$$
CHEMBL274603


 40 42  0  0  0  0  0  0  0  0999 V2000
   15.8256   -8.2360   17.8936 C   0  0  0  0  0  0  0  0  0  0  0  0
   16.3986   -9.3183   18.1935 O   0  0  0  0  0  0  0  0  0  0  0  0
   15.8077   -7.7844   16.5307 N   0  0  0  0  0  0  0  0  0  0  0  0
   15.3355   -6.9387   16.3546 H   0  0  0  0  0  0  0  0  0  0  0  0
   11.9966   -4.8787   21.9654 C   0  0  0  0  0  0  0  0  0  0  0  0
   13.3707   -5.1679   21.9926 C   0  0  0  0  0  0  0  0  0  0  0  0
   13.9567   -5.9233   20.9754 C   0  0  0  0  0  0  0  0  0  0  0  0
   15.2845   -6.1946   21.0125 N   0  0  0  0  0  0  0  0  0  0  0  0
   15.8994   -6.9263   20.0464 C   0  0  0  0  0  0  0  0  0  0  0  0
   17.2618   -7.1767   20.1661 O   0  0  0  0  0  0  0  0  0  0  0  0
   15.1595   -7.4336   18.9538 C   0  0  0  0  0  0  0  0  0  0  0  0
   13.7748   -7.1560   18.8966 C   0  0  0  0  0  0  0  0  0  0  0  0
   13.0015   -7.6065   17.8290 O   0  0  0  0  0  0  0  0  0  0  0  0
   13.1701   -6.4023   19.9120 C   0  0  0  0  0  0  0  0  0  0  0  0
   11.8007   -6.1130   19.8837 C   0  0  0  0  0  0  0  0  0  0  0  0
   11.2077   -5.3534   20.9057 C   0  0  0  0  0  0  0  0  0  0  0  0
   17.7388   -6.8337   20.8960 H   0  0  0  0  0  0  0  0  0  0  0  0
   13.3959   -8.1111   17.1450 H   0  0  0  0  0  0  0  0  0  0  0  0
   11.5056   -4.4567   24.3553 C   0  0  0  0  0  0  0  0  0  0  0  0
   11.3957   -4.1231   22.9782 O   0  0  0  0  0  0  0  0  0  0  0  0
    9.8399   -5.0591   20.8878 O   0  0  0  0  0  0  0  0  0  0  0  0
    8.9163   -5.7444   20.0528 C   0  0  0  0  0  0  0  0  0  0  0  0
   16.4032   -8.4319   15.3981 C   0  0  0  0  0  0  0  0  0  0  0  0
   17.6999   -8.9651   15.4426 C   0  0  0  0  0  0  0  0  0  0  0  0
   18.2478   -9.5880   14.3178 C   0  0  0  0  0  0  0  0  0  0  0  0
   17.5088   -9.6852   13.1352 C   0  0  0  0  0  0  0  0  0  0  0  0
   16.2103   -9.1535   13.0896 C   0  0  0  0  0  0  0  0  0  0  0  0
   15.6638   -8.5308   14.2152 C   0  0  0  0  0  0  0  0  0  0  0  0
   18.0845  -10.3158   12.0268 O   0  0  0  0  0  0  0  0  0  0  0  0
   17.5890  -10.1689   10.6987 C   0  0  0  0  0  0  0  0  0  0  0  0
   17.7264   -8.7291   10.2306 C   0  0  0  0  0  0  0  0  0  0  0  0
   19.1357   -8.4747    9.7244 C   0  0  0  0  0  0  0  0  0  0  0  0
   19.1011   -7.6223    8.4653 C   0  0  0  0  0  0  0  0  0  0  0  0
   18.1219   -8.1840    7.4415 C   0  0  0  0  0  0  0  0  0  0  0  0
   18.7509   -8.2608    6.0551 C   0  0  0  0  0  0  0  0  0  0  0  0
   20.0807   -7.5200    6.0058 C   0  0  0  0  0  0  0  0  0  0  0  0
   20.2398   -6.7930    4.7135 C   0  0  0  0  0  0  0  0  0  0  0  0
   20.8023   -5.6679    4.6927 O   0  0  0  0  0  0  0  0  0  0  0  0
   19.7803   -7.3592    3.5313 O   0  0  0  0  0  0  0  0  0  0  0  0
   19.3611   -8.1971    3.5451 H   0  0  0  0  0  0  0  0  0  0  0  0
 19 20  1  0  0  0
 20  5  1  0  0  0
  5  6  2  0  0  0
  6  7  1  0  0  0
  7  8  2  0  0  0
  8  9  1  0  0  0
  9 10  1  0  0  0
  9 11  2  0  0  0
 11  1  1  0  0  0
 11 12  1  0  0  0
  1  2  2  0  0  0
  1  3  1  0  0  0
  3 23  1  0  0  0
 23 24  2  0  0  0
 24 25  1  0  0  0
 25 26  2  0  0  0
 26 29  1  0  0  0
 26 27  1  0  0  0
 29 30  1  0  0  0
 30 31  1  0  0  0
 31 32  1  0  0  0
 32 33  1  0  0  0
 33 34  1  0  0  0
 34 35  1  0  0  0
 35 36  1  0  0  0
 36 37  1  0  0  0
 37 38  2  0  0  0
 37 39  1  0  0  0
 27 28  2  0  0  0
 28 23  1  0  0  0
 12 13  1  0  0  0
 12 14  2  0  0  0
 14 15  1  0  0  0
 14  7  1  0  0  0
 15 16  2  0  0  0
 16 21  1  0  0  0
 16  5  1  0  0  0
 21 22  1  0  0  0
 10 17  1  0  0  0
  3  4  1  0  0  0
 39 40  1  0  0  0
 13 18  1  0  0  0
M  END
>  <minimizedAffinity>
-6.26970

>  <minimizedRMSD>
1.83788

$$$$
CHEMBL3629276 PubChem-122194166


 32 35  0  0  0  0  0  0  0  0999 V2000
   15.1898   -7.4097   20.3226 C   0  0  0  0  0  0  0  0  0  0  0  0
   14.7419   -6.0975   20.1095 C   0  0  0  0  0  0  0  0  0  0  0  0
   13.9554   -5.4532   21.0672 C   0  0  0  0  0  0  0  0  0  0  0  0
   13.5921   -6.1156   22.2463 C   0  0  0  0  0  0  0  0  0  0  0  0
   14.0604   -7.4159   22.4720 C   0  0  0  0  0  0  0  0  0  0  0  0
   14.8468   -8.0633   21.5146 C   0  0  0  0  0  0  0  0  0  0  0  0
   15.2786   -9.3266   21.7521 F   0  0  0  0  0  0  0  0  0  0  0  0
   12.8124   -5.4296   23.2918 C   0  0  0  0  0  0  0  0  0  0  0  0
   13.1532   -5.6178   24.6021 N   0  0  0  0  0  0  0  0  0  0  0  0
   12.4978   -4.9783   25.6185 C   0  0  0  0  0  0  0  0  0  0  0  0
   11.4679   -4.1261   25.3487 N   0  0  0  0  0  0  0  0  0  0  0  0
   11.1076   -3.9320   24.0578 C   0  0  0  0  0  0  0  0  0  0  0  0
   11.7405   -4.5628   23.0250 C   0  0  0  0  0  0  0  0  0  0  0  0
   11.0545   -4.1848   21.8869 C   0  0  0  0  0  0  0  0  0  0  0  0
   10.0434   -3.3263   22.3016 C   0  0  0  0  0  0  0  0  0  0  0  0
   10.0806   -3.1686   23.6472 N   0  0  0  0  0  0  0  0  0  0  0  0
   11.2395   -4.6634   20.4899 C   0  0  0  0  0  0  0  0  0  0  0  0
    9.4852   -2.6154   24.2028 H   0  0  0  0  0  0  0  0  0  0  0  0
   16.7078   -8.9031   17.1363 N   0  0  0  0  0  0  0  0  0  0  0  0
   15.7799   -8.1643   17.9408 C   0  0  0  0  0  0  0  0  0  0  0  0
   14.7914   -7.5857   17.4146 O   0  0  0  0  0  0  0  0  0  0  0  0
   15.9981   -8.0976   19.3557 N   0  0  0  0  0  0  0  0  0  0  0  0
   17.4573   -9.3312   17.6098 H   0  0  0  0  0  0  0  0  0  0  0  0
   16.7867   -8.5747   19.7018 H   0  0  0  0  0  0  0  0  0  0  0  0
   16.6601   -9.0850   15.7143 C   0  0  0  0  0  0  0  0  0  0  0  0
   16.0058   -8.1758   14.8697 C   0  0  0  0  0  0  0  0  0  0  0  0
   15.9800   -8.3858   13.4882 C   0  0  0  0  0  0  0  0  0  0  0  0
   16.6067   -9.5055   12.9330 C   0  0  0  0  0  0  0  0  0  0  0  0
   17.2620  -10.4163   13.7768 C   0  0  0  0  0  0  0  0  0  0  0  0
   17.2868  -10.2048   15.1582 C   0  0  0  0  0  0  0  0  0  0  0  0
   16.5638   -9.6882   11.5482 O   0  0  0  0  0  0  0  0  0  0  0  0
   17.6594   -9.3767   10.6984 C   0  0  0  0  0  0  0  0  0  0  0  0
 19 20  1  0  0  0
 20 21  2  0  0  0
 20 22  1  0  0  0
 22  1  1  0  0  0
  1  2  2  0  0  0
  2  3  1  0  0  0
  3  4  2  0  0  0
  4  5  1  0  0  0
  5  6  2  0  0  0
  6  7  1  0  0  0
  4  8  1  0  0  0
  8  9  2  0  0  0
  9 10  1  0  0  0
 10 11  2  0  0  0
 11 12  1  0  0  0
 12 13  2  0  0  0
 13 14  1  0  0  0
 14 15  2  0  0  0
 15 16  1  0  0  0
 14 17  1  0  0  0
 19 25  1  0  0  0
 25 26  2  0  0  0
 26 27  1  0  0  0
 27 28  2  0  0  0
 28 29  1  0  0  0
 29 30  2  0  0  0
 28 31  1  0  0  0
 31 32  1  0  0  0
  6  1  1  0  0  0
 13  8  1  0  0  0
 30 25  1  0  0  0
 16 12  1  0  0  0
 19 23  1  0  0  0
 22 24  1  0  0  0
 16 18  1  0  0  0
M  END
>  <minimizedAffinity>
-6.25946

>  <minimizedRMSD>
1.88743

$$$$
CHEMBL563907 PubChem-45271683


 28 31  0  0  0  0  0  0  0  0999 V2000
   16.5435   -9.1976   14.1474 N   0  0  0  0  0  0  0  0  0  0  0  0
   16.4849   -7.8256   14.6568 C   0  0  0  0  0  0  0  0  0  0  0  0
   16.8595   -7.7787   16.1425 C   0  0  0  0  0  0  0  0  0  0  0  0
   16.0870   -8.7244   16.9674 N   0  0  0  0  0  0  0  0  0  0  0  0
   15.7928  -10.0135   16.3121 C   0  0  0  0  0  0  0  0  0  0  0  0
   16.6795  -10.2957   15.1015 C   0  0  0  0  0  0  0  0  0  0  0  0
   16.3855   -9.9692    9.9609 C   0  0  0  0  0  0  0  0  0  0  0  0
   17.6137   -9.7063   10.5867 C   0  0  0  0  0  0  0  0  0  0  0  0
   17.6648   -9.4528   11.9599 C   0  0  0  0  0  0  0  0  0  0  0  0
   16.4913   -9.4572   12.7316 C   0  0  0  0  0  0  0  0  0  0  0  0
   15.2661   -9.7217   12.0977 C   0  0  0  0  0  0  0  0  0  0  0  0
   15.2149   -9.9751   10.7243 C   0  0  0  0  0  0  0  0  0  0  0  0
   17.1340   -9.5830    7.6353 C   0  0  0  0  0  0  0  0  0  0  0  0
   16.3009  -10.2263    8.5899 O   0  0  0  0  0  0  0  0  0  0  0  0
   14.8155   -8.0908   17.2917 C   0  0  0  0  0  0  0  0  0  0  0  0
   14.8130   -7.6187   18.7110 C   0  0  0  0  0  0  0  0  0  0  0  0
   15.8753   -7.7353   19.5934 C   0  0  0  0  0  0  0  0  0  0  0  0
   15.5130   -7.1927   20.7827 N   0  0  0  0  0  0  0  0  0  0  0  0
   14.2490   -6.7702   20.5855 C   0  0  0  0  0  0  0  0  0  0  0  0
   13.4469   -6.1448   21.5333 C   0  0  0  0  0  0  0  0  0  0  0  0
   12.1497   -5.7901   21.1340 C   0  0  0  0  0  0  0  0  0  0  0  0
   11.7211   -6.0671   19.8629 N   0  0  0  0  0  0  0  0  0  0  0  0
   12.5356   -6.6845   18.9580 C   0  0  0  0  0  0  0  0  0  0  0  0
   13.7951   -7.0146   19.3487 N   0  0  0  0  0  0  0  0  0  0  0  0
   11.3080   -5.1571   22.0490 O   0  0  0  0  0  0  0  0  0  0  0  0
   11.2772   -3.7449   22.1909 C   0  0  0  0  0  0  0  0  0  0  0  0
   12.0851   -6.9764   17.6693 O   0  0  0  0  0  0  0  0  0  0  0  0
   10.8218   -7.5784   17.4321 C   0  0  0  0  0  0  0  0  0  0  0  0
 13 14  1  0  0  0
 14  7  1  0  0  0
  7  8  2  0  0  0
  8  9  1  0  0  0
  9 10  2  0  0  0
 10  1  1  0  0  0
 10 11  1  0  0  0
  1  2  1  0  0  0
  2  3  1  0  0  0
  3  4  1  0  0  0
  4 15  1  0  0  0
  4  5  1  0  0  0
 15 16  1  0  0  0
 16 17  2  0  0  0
 17 18  1  0  0  0
 18 19  2  0  0  0
 19 20  1  0  0  0
 20 21  2  0  0  0
 21 25  1  0  0  0
 21 22  1  0  0  0
 25 26  1  0  0  0
 22 23  2  0  0  0
 23 27  1  0  0  0
 23 24  1  0  0  0
 27 28  1  0  0  0
 24 16  1  0  0  0
 24 19  1  0  0  0
  5  6  1  0  0  0
  6  1  1  0  0  0
 11 12  2  0  0  0
 12  7  1  0  0  0
M  END
>  <minimizedAffinity>
-6.25834

>  <minimizedRMSD>
1.94475

$$$$
CHEMBL2234241 PubChem-76326018


 26 28  0  0  0  0  0  0  0  0999 V2000
   14.6968   -7.4239   18.4897 C   0  0  0  0  0  0  0  0  0  0  0  0
   14.2455   -7.1578   17.3138 N   0  0  0  0  0  0  0  0  0  0  0  0
   15.1236   -7.6182   16.3701 O   0  0  0  0  0  0  0  0  0  0  0  0
   16.2604   -8.2479   16.9387 C   0  0  0  0  0  0  0  0  0  0  0  0
   16.0102   -8.1369   18.4414 C   0  0  0  0  0  0  0  0  0  0  0  0
   12.7319   -6.4463   22.1897 C   0  0  0  0  0  0  0  0  0  0  0  0
   13.8877   -7.2263   22.1691 C   0  0  0  0  0  0  0  0  0  0  0  0
   14.5092   -7.5315   20.9575 C   0  0  0  0  0  0  0  0  0  0  0  0
   13.9896   -7.0642   19.7412 C   0  0  0  0  0  0  0  0  0  0  0  0
   12.8169   -6.2722   19.7541 C   0  0  0  0  0  0  0  0  0  0  0  0
   12.2019   -5.9729   20.9817 C   0  0  0  0  0  0  0  0  0  0  0  0
   11.2029   -5.0948   23.5872 C   0  0  0  0  0  0  0  0  0  0  0  0
   12.1315   -6.1571   23.4180 O   0  0  0  0  0  0  0  0  0  0  0  0
   12.2742   -5.7913   18.5561 O   0  0  0  0  0  0  0  0  0  0  0  0
   11.5012   -4.6010   18.4798 C   0  0  0  0  0  0  0  0  0  0  0  0
   16.2970   -9.7153   16.5375 C   0  0  0  0  0  0  0  0  0  0  0  0
   16.8239   -9.8812   15.1515 C   0  0  0  0  0  0  0  0  0  0  0  0
   18.1591  -10.2364   14.9360 C   0  0  0  0  0  0  0  0  0  0  0  0
   18.6370  -10.4006   13.6344 C   0  0  0  0  0  0  0  0  0  0  0  0
   17.7839  -10.2150   12.5337 C   0  0  0  0  0  0  0  0  0  0  0  0
   16.4414   -9.8647   12.7487 C   0  0  0  0  0  0  0  0  0  0  0  0
   15.9689   -9.7020   14.0616 C   0  0  0  0  0  0  0  0  0  0  0  0
   18.2470  -10.3742   11.2230 O   0  0  0  0  0  0  0  0  0  0  0  0
   18.4140   -9.2830   10.3280 C   0  0  0  0  0  0  0  0  0  0  0  0
   15.5974   -9.6843   11.6474 O   0  0  0  0  0  0  0  0  0  0  0  0
   14.2919  -10.2416   11.5793 C   0  0  0  0  0  0  0  0  0  0  0  0
 12 13  1  0  0  0
 13  6  1  0  0  0
  6  7  2  0  0  0
  7  8  1  0  0  0
  8  9  2  0  0  0
  9  1  1  0  0  0
  9 10  1  0  0  0
  1  2  2  0  0  0
  2  3  1  0  0  0
  3  4  1  0  0  0
  4 16  1  0  0  0
  4  5  1  0  0  0
 16 17  1  0  0  0
 17 18  2  0  0  0
 18 19  1  0  0  0
 19 20  2  0  0  0
 20 23  1  0  0  0
 20 21  1  0  0  0
 23 24  1  0  0  0
 21 25  1  0  0  0
 21 22  2  0  0  0
 25 26  1  0  0  0
 22 17  1  0  0  0
  5  1  1  0  0  0
 10 14  1  0  0  0
 10 11  2  0  0  0
 14 15  1  0  0  0
 11  6  1  0  0  0
M  END
>  <minimizedAffinity>
-6.25393

>  <minimizedRMSD>
1.43040

$$$$
CHEMBL1326924 1223061 CSC046484548 MCULE-8244690153 MolPort-000-047-837 PubChem-1373928 ZINC000001223061 ZINC01223061


 32 34  0  0  0  0  0  0  0  0999 V2000
   17.3356   -9.3634   13.1122 N   0  0  0  0  0  0  0  0  0  0  0  0
   16.2196   -9.1381   13.9758 C   0  0  0  0  0  0  0  0  0  0  0  0
   15.3659  -10.0434   14.1737 O   0  0  0  0  0  0  0  0  0  0  0  0
   18.0058   -8.6488   13.0154 H   0  0  0  0  0  0  0  0  0  0  0  0
   17.5279  -10.6024   12.3677 C   0  0  0  0  0  0  0  0  0  0  0  0
   16.5150  -10.7207   11.2343 C   0  0  0  0  0  0  0  0  0  0  0  0
   17.8031   -8.4904    7.7860 C   0  0  0  0  0  0  0  0  0  0  0  0
   16.6763   -9.3283    7.7193 C   0  0  0  0  0  0  0  0  0  0  0  0
   16.2536  -10.0474    8.8375 C   0  0  0  0  0  0  0  0  0  0  0  0
   16.9492   -9.9357   10.0418 C   0  0  0  0  0  0  0  0  0  0  0  0
   18.0714   -9.1076   10.1217 C   0  0  0  0  0  0  0  0  0  0  0  0
   18.5105   -8.3789    9.0104 C   0  0  0  0  0  0  0  0  0  0  0  0
   19.0153   -8.3588    5.6267 C   0  0  0  0  0  0  0  0  0  0  0  0
   18.2193   -7.7810    6.6535 O   0  0  0  0  0  0  0  0  0  0  0  0
   19.6456   -7.5727    9.1857 O   0  0  0  0  0  0  0  0  0  0  0  0
   20.7968   -7.9415    9.9317 C   0  0  0  0  0  0  0  0  0  0  0  0
   16.0892   -7.8335   14.6808 C   0  0  0  0  0  0  0  0  0  0  0  0
   15.8969   -8.0548   16.1036 N   0  0  0  0  0  0  0  0  0  0  0  0
   16.5181   -8.9868   16.8036 N   0  0  0  0  0  0  0  0  0  0  0  0
   16.0848   -8.9407   18.0529 N   0  0  0  0  0  0  0  0  0  0  0  0
   15.1733   -7.9449   18.0689 C   0  0  0  0  0  0  0  0  0  0  0  0
   15.0407   -7.3820   16.8513 N   0  0  0  0  0  0  0  0  0  0  0  0
   14.4233   -7.5259   19.2619 C   0  0  0  0  0  0  0  0  0  0  0  0
   13.2119   -6.8372   19.1278 C   0  0  0  0  0  0  0  0  0  0  0  0
   12.4899   -6.4261   20.2602 C   0  0  0  0  0  0  0  0  0  0  0  0
   12.9895   -6.7101   21.5405 C   0  0  0  0  0  0  0  0  0  0  0  0
   14.2041   -7.4036   21.6727 C   0  0  0  0  0  0  0  0  0  0  0  0
   14.9151   -7.8075   20.5411 C   0  0  0  0  0  0  0  0  0  0  0  0
   11.2794   -5.7344   20.1362 O   0  0  0  0  0  0  0  0  0  0  0  0
   11.1271   -4.5936   19.3021 C   0  0  0  0  0  0  0  0  0  0  0  0
   12.2656   -6.2965   22.6644 O   0  0  0  0  0  0  0  0  0  0  0  0
   12.5856   -5.1208   23.3956 C   0  0  0  0  0  0  0  0  0  0  0  0
 13 14  1  0  0  0
 14  7  1  0  0  0
  7  8  2  0  0  0
  8  9  1  0  0  0
  9 10  2  0  0  0
 10  6  1  0  0  0
 10 11  1  0  0  0
  6  5  1  0  0  0
  5  1  1  0  0  0
  1  2  1  0  0  0
  2  3  2  0  0  0
  2 17  1  0  0  0
 17 18  1  0  0  0
 18 19  1  0  0  0
 19 20  2  0  0  0
 20 21  1  0  0  0
 21 22  2  0  0  0
 21 23  1  0  0  0
 22 18  1  0  0  0
 23 24  2  0  0  0
 24 25  1  0  0  0
 25 29  1  0  0  0
 25 26  2  0  0  0
 29 30  1  0  0  0
 26 31  1  0  0  0
 26 27  1  0  0  0
 31 32  1  0  0  0
 27 28  2  0  0  0
 28 23  1  0  0  0
 11 12  2  0  0  0
 12 15  1  0  0  0
 12  7  1  0  0  0
 15 16  1  0  0  0
  1  4  1  0  0  0
M  END
>  <minimizedAffinity>
-6.25176

>  <minimizedRMSD>
1.94418

$$$$
CHEMBL1603441 ChemDiv-2743-0401 LN00587170 MCULE-2310831713 MolPort-001-487-143 PubChem-2866536


 33 35  0  0  0  0  0  0  0  0999 V2000
   16.0131   -9.1945   16.3540 C   0  0  0  0  0  0  0  0  0  0  0  0
   15.4767   -8.0929   15.4227 C   0  0  0  0  0  0  0  0  0  0  0  0
   16.1121   -8.3930   14.1067 C   0  0  0  0  0  0  0  0  0  0  0  0
   15.8978   -7.7291   13.0586 O   0  0  0  0  0  0  0  0  0  0  0  0
   16.9740   -9.5129   14.1484 N   0  0  0  0  0  0  0  0  0  0  0  0
   16.8975  -10.0125   15.4688 C   0  0  0  0  0  0  0  0  0  0  0  0
   17.4986  -11.0539   15.8447 O   0  0  0  0  0  0  0  0  0  0  0  0
   16.7989   -8.5889   17.4187 N   0  0  0  0  0  0  0  0  0  0  0  0
   17.6122   -9.1696   17.6232 H   0  0  0  0  0  0  0  0  0  0  0  0
   15.9497   -8.4921   18.5984 C   0  0  0  0  0  0  0  0  0  0  0  0
   14.6761   -7.7139   18.2854 C   0  0  0  0  0  0  0  0  0  0  0  0
   13.0985   -5.8356   21.8232 C   0  0  0  0  0  0  0  0  0  0  0  0
   14.0698   -6.8398   21.9174 C   0  0  0  0  0  0  0  0  0  0  0  0
   14.5798   -7.4552   20.7732 C   0  0  0  0  0  0  0  0  0  0  0  0
   14.1194   -7.0746   19.5128 C   0  0  0  0  0  0  0  0  0  0  0  0
   13.1551   -6.0715   19.4003 C   0  0  0  0  0  0  0  0  0  0  0  0
   12.6320   -5.4420   20.5429 C   0  0  0  0  0  0  0  0  0  0  0  0
   11.2940   -5.2928   23.4710 C   0  0  0  0  0  0  0  0  0  0  0  0
   12.6425   -5.2744   23.0257 O   0  0  0  0  0  0  0  0  0  0  0  0
   11.6645   -4.4391   20.4112 O   0  0  0  0  0  0  0  0  0  0  0  0
   10.7928   -4.3468   19.2919 C   0  0  0  0  0  0  0  0  0  0  0  0
   17.5227  -10.2156   12.9976 C   0  0  0  0  0  0  0  0  0  0  0  0
   16.4362  -10.4374   11.9571 C   0  0  0  0  0  0  0  0  0  0  0  0
   16.8476   -9.8720   10.6414 C   0  0  0  0  0  0  0  0  0  0  0  0
   16.1014  -10.1666    9.4987 C   0  0  0  0  0  0  0  0  0  0  0  0
   16.4903   -9.6554    8.2585 C   0  0  0  0  0  0  0  0  0  0  0  0
   17.6347   -8.8476    8.1479 C   0  0  0  0  0  0  0  0  0  0  0  0
   18.3906   -8.5554    9.2944 C   0  0  0  0  0  0  0  0  0  0  0  0
   17.9919   -9.0736   10.5376 C   0  0  0  0  0  0  0  0  0  0  0  0
   18.0387   -8.3284    6.9131 O   0  0  0  0  0  0  0  0  0  0  0  0
   18.6884   -7.0714    6.7823 C   0  0  0  0  0  0  0  0  0  0  0  0
   19.5309   -7.7532    9.1763 O   0  0  0  0  0  0  0  0  0  0  0  0
   20.7490   -8.0443    9.8480 C   0  0  0  0  0  0  0  0  0  0  0  0
 18 19  1  0  0  0
 19 12  1  0  0  0
 12 13  2  0  0  0
 13 14  1  0  0  0
 14 15  2  0  0  0
 15 11  1  0  0  0
 15 16  1  0  0  0
 11 10  1  0  0  0
 10  8  1  0  0  0
  1  8  1  0  0  0
  1  2  1  0  0  0
  2  3  1  0  0  0
  3  4  2  0  0  0
  3  5  1  0  0  0
  5 22  1  0  0  0
  5  6  1  0  0  0
 22 23  1  0  0  0
 23 24  1  0  0  0
 24 25  2  0  0  0
 25 26  1  0  0  0
 26 27  2  0  0  0
 27 30  1  0  0  0
 27 28  1  0  0  0
 30 31  1  0  0  0
 28 32  1  0  0  0
 28 29  2  0  0  0
 32 33  1  0  0  0
 29 24  1  0  0  0
  6  7  2  0  0  0
  6  1  1  0  0  0
 16 17  2  0  0  0
 17 20  1  0  0  0
 17 12  1  0  0  0
 20 21  1  0  0  0
  8  9  1  0  0  0
M  END
>  <minimizedAffinity>
-6.23362

>  <minimizedRMSD>
1.76805

$$$$
CHEMBL4573508 PubChem-135281353


 35 39  0  0  0  0  0  0  0  0999 V2000
   14.3875   -7.3247   19.3114 C   0  0  0  0  0  0  0  0  0  0  0  0
   15.3469   -8.3282   19.4407 C   0  0  0  0  0  0  0  0  0  0  0  0
   15.7748   -8.5819   18.1967 N   0  0  0  0  0  0  0  0  0  0  0  0
   16.7038   -9.4740   17.7781 C   0  0  0  0  0  0  0  0  0  0  0  0
   16.9738   -9.5469   16.4045 C   0  0  0  0  0  0  0  0  0  0  0  0
   16.2860   -8.7035   15.5000 C   0  0  0  0  0  0  0  0  0  0  0  0
   15.3269   -7.7955   15.9970 C   0  0  0  0  0  0  0  0  0  0  0  0
   15.1026   -7.7692   17.3704 C   0  0  0  0  0  0  0  0  0  0  0  0
   14.2313   -6.9709   18.0103 N   0  0  0  0  0  0  0  0  0  0  0  0
   12.3310   -6.1993   20.2802 C   0  0  0  0  0  0  0  0  0  0  0  0
   11.6751   -5.6408   21.3895 C   0  0  0  0  0  0  0  0  0  0  0  0
   12.2906   -5.5916   22.6480 C   0  0  0  0  0  0  0  0  0  0  0  0
   13.5825   -6.1099   22.7965 C   0  0  0  0  0  0  0  0  0  0  0  0
   14.2426   -6.6668   21.7004 C   0  0  0  0  0  0  0  0  0  0  0  0
   13.6353   -6.7207   20.4371 C   0  0  0  0  0  0  0  0  0  0  0  0
   14.3955   -6.0719   24.3506 Cl  0  0  0  0  0  0  0  0  0  0  0  0
   10.7206   -7.2120   18.6901 C   0  0  0  0  0  0  0  0  0  0  0  0
   11.6989   -6.2390   19.0314 O   0  0  0  0  0  0  0  0  0  0  0  0
   11.6375   -5.0354   23.7536 O   0  0  0  0  0  0  0  0  0  0  0  0
   10.7132   -3.9618   23.6412 C   0  0  0  0  0  0  0  0  0  0  0  0
   16.5542   -8.7783   14.0873 N   0  0  0  0  0  0  0  0  0  0  0  0
   15.5854   -8.2773   13.1106 C   0  0  0  0  0  0  0  0  0  0  0  0
   15.4011   -9.3045   11.9985 C   0  0  0  0  0  0  0  0  0  0  0  0
   16.7105   -9.7217   11.5051 N   0  0  0  0  0  0  0  0  0  0  0  0
   17.6772  -10.2333   12.4727 C   0  0  0  0  0  0  0  0  0  0  0  0
   17.8617   -9.2131   13.5923 C   0  0  0  0  0  0  0  0  0  0  0  0
   17.0483   -9.6029   10.1161 C   0  0  0  0  0  0  0  0  0  0  0  0
   16.4312  -10.3885    9.1903 N   0  0  0  0  0  0  0  0  0  0  0  0
   16.7388  -10.2908    7.8708 C   0  0  0  0  0  0  0  0  0  0  0  0
   17.6997   -9.3759    7.4451 C   0  0  0  0  0  0  0  0  0  0  0  0
   18.3232   -8.5785    8.4027 C   0  0  0  0  0  0  0  0  0  0  0  0
   17.9893   -8.7044    9.7134 N   0  0  0  0  0  0  0  0  0  0  0  0
   19.3091   -7.6327    8.0079 N   0  0  0  0  0  0  0  0  0  0  0  0
   19.5512   -7.5414    7.0580 H   0  0  0  0  0  0  0  0  0  0  0  0
   19.7496   -7.0693    8.6845 H   0  0  0  0  0  0  0  0  0  0  0  0
 17 18  1  0  0  0
 18 10  1  0  0  0
 10 11  2  0  0  0
 11 12  1  0  0  0
 12 13  2  0  0  0
 13 14  1  0  0  0
 14 15  2  0  0  0
 15  1  1  0  0  0
  1  2  2  0  0  0
  2  3  1  0  0  0
  3  4  1  0  0  0
  4  5  2  0  0  0
  5  6  1  0  0  0
  6  7  2  0  0  0
  7  8  1  0  0  0
  8  9  2  0  0  0
  6 21  1  0  0  0
 21 22  1  0  0  0
 22 23  1  0  0  0
 23 24  1  0  0  0
 24 25  1  0  0  0
 25 26  1  0  0  0
 24 27  1  0  0  0
 27 28  2  0  0  0
 28 29  1  0  0  0
 29 30  2  0  0  0
 30 31  1  0  0  0
 31 32  2  0  0  0
 31 33  1  0  0  0
 13 16  1  0  0  0
 12 19  1  0  0  0
 19 20  1  0  0  0
 15 10  1  0  0  0
  9  1  1  0  0  0
  8  3  1  0  0  0
 26 21  1  0  0  0
 32 27  1  0  0  0
 33 34  1  0  0  0
 33 35  1  0  0  0
M  END
>  <minimizedAffinity>
-6.23318

>  <minimizedRMSD>
1.98833

$$$$
CHEMBL3393193 PubChem-137007095


 34 38  0  0  0  0  0  0  0  0999 V2000
   15.5959   -7.9893   18.0553 C   0  0  0  0  0  0  0  0  0  0  0  0
   14.9433   -7.5667   16.8886 C   0  0  0  0  0  0  0  0  0  0  0  0
   15.2457   -8.1215   15.6847 N   0  0  0  0  0  0  0  0  0  0  0  0
   16.1879   -9.0969   15.5546 C   0  0  0  0  0  0  0  0  0  0  0  0
   16.8752   -9.5392   16.6922 C   0  0  0  0  0  0  0  0  0  0  0  0
   16.5785   -8.9821   17.9356 C   0  0  0  0  0  0  0  0  0  0  0  0
   14.9395   -6.2551   21.8883 N   0  0  0  0  0  0  0  0  0  0  0  0
   16.1373   -6.7161   21.5301 N   0  0  0  0  0  0  0  0  0  0  0  0
   16.3483   -7.2750   20.3112 C   0  0  0  0  0  0  0  0  0  0  0  0
   15.3033   -7.3806   19.3836 C   0  0  0  0  0  0  0  0  0  0  0  0
   14.0286   -6.9011   19.7694 C   0  0  0  0  0  0  0  0  0  0  0  0
   12.9031   -6.9962   18.9369 C   0  0  0  0  0  0  0  0  0  0  0  0
   11.6506   -6.5180   19.3525 C   0  0  0  0  0  0  0  0  0  0  0  0
   11.5227   -5.9413   20.6229 C   0  0  0  0  0  0  0  0  0  0  0  0
   12.6308   -5.8508   21.4681 C   0  0  0  0  0  0  0  0  0  0  0  0
   13.8750   -6.3291   21.0515 C   0  0  0  0  0  0  0  0  0  0  0  0
   10.2928   -5.4587   21.0525 O   0  0  0  0  0  0  0  0  0  0  0  0
    9.5450   -5.5160   20.4909 H   0  0  0  0  0  0  0  0  0  0  0  0
   10.5278   -6.6059   18.5227 O   0  0  0  0  0  0  0  0  0  0  0  0
   10.2645   -7.7370   17.7035 C   0  0  0  0  0  0  0  0  0  0  0  0
   16.4772   -9.6503   14.2602 N   0  0  0  0  0  0  0  0  0  0  0  0
   15.4002   -9.9096   13.3097 C   0  0  0  0  0  0  0  0  0  0  0  0
   15.7892   -9.3776   11.9317 C   0  0  0  0  0  0  0  0  0  0  0  0
   17.1577   -9.9208   11.4778 C   0  0  0  0  0  0  0  0  0  0  0  0
   18.2147   -9.5878   12.5417 C   0  0  0  0  0  0  0  0  0  0  0  0
   17.8177  -10.1195   13.9176 C   0  0  0  0  0  0  0  0  0  0  0  0
   17.0666  -11.3089   11.3311 O   0  0  0  0  0  0  0  0  0  0  0  0
   16.7894  -11.7054   12.1718 H   0  0  0  0  0  0  0  0  0  0  0  0
   17.5912   -9.3210   10.1562 C   0  0  0  0  0  0  0  0  0  0  0  0
   18.7442   -8.5222   10.0993 C   0  0  0  0  0  0  0  0  0  0  0  0
   19.1496   -7.9751    8.9220 N   0  0  0  0  0  0  0  0  0  0  0  0
   18.4616   -8.1785    7.7673 C   0  0  0  0  0  0  0  0  0  0  0  0
   17.3093   -8.9647    7.7689 C   0  0  0  0  0  0  0  0  0  0  0  0
   16.8764   -9.5351    8.9663 C   0  0  0  0  0  0  0  0  0  0  0  0
  7  8  2  0  0  0
  8  9  1  0  0  0
  9 10  2  0  0  0
 10 11  1  0  0  0
 11 12  2  0  0  0
 12 13  1  0  0  0
 13 14  2  0  0  0
 14 15  1  0  0  0
 15 16  2  0  0  0
 14 17  1  0  0  0
 13 19  1  0  0  0
 19 20  1  0  0  0
 10  1  1  0  0  0
  1  2  2  0  0  0
  2  3  1  0  0  0
  3  4  2  0  0  0
  4  5  1  0  0  0
  5  6  2  0  0  0
  4 21  1  0  0  0
 21 22  1  0  0  0
 22 23  1  0  0  0
 23 24  1  0  0  0
 24 25  1  0  0  0
 25 26  1  0  0  0
 24 29  1  0  0  0
 29 30  2  0  0  0
 30 31  1  0  0  0
 31 32  2  0  0  0
 32 33  1  0  0  0
 33 34  2  0  0  0
 24 27  1  0  0  0
 16  7  1  0  0  0
  6  1  1  0  0  0
 26 21  1  0  0  0
 34 29  1  0  0  0
 16 11  1  0  0  0
 17 18  1  0  0  0
 27 28  1  0  0  0
M  END
>  <minimizedAffinity>
-6.23051

>  <minimizedRMSD>
1.89090

$$$$
CHEMBL2361980 1481956 LN01285876 MCULE-1053671417 MCULE-6800381379 MolPort-019-991-977 PubChem-122515886 PubChem-124159914 PubChem-124159946 PubChem-124160055 PubChem-135388797 PubChem-136389392 PubChem-137314589 PubChem-139434023 PubChem-66874648 PubChem-66911278 PubChem-67035790 PubChem-67035823 PubChem-67035967 PubChem-67114790 PubChem-67176851 PubChem-67286012 PubChem-67286200 PubChem-67286449 PubChem-67286628 PubChem-67286712 PubChem-67308108 PubChem-67323118 PubChem-68502011 PubChem-68555641 PubChem-68812021 PubChem-68909198 PubChem-68909213 PubChem-69081931 PubChem-70060394 PubChem-70977019 PubChem-71140905 PubChem-87339354 PubChem-9802545 ZINC000001481956


 32 36  0  0  0  0  0  0  0  0999 V2000
   15.9240   -8.3764   18.1790 C   0  0  0  0  0  0  0  0  0  0  0  0
   15.7635   -8.5628   16.7397 N   0  0  0  0  0  0  0  0  0  0  0  0
   16.8820   -7.9491   16.0098 C   0  0  0  0  0  0  0  0  0  0  0  0
   18.2260   -8.6210   16.3107 C   0  0  0  0  0  0  0  0  0  0  0  0
   18.1668  -10.1311   16.0905 C   0  0  0  0  0  0  0  0  0  0  0  0
   16.9412  -10.7683   16.7419 C   0  0  0  0  0  0  0  0  0  0  0  0
   15.6576   -9.9929   16.4239 C   0  0  0  0  0  0  0  0  0  0  0  0
   18.3819  -10.5464   14.6633 C   0  0  0  0  0  0  0  0  0  0  0  0
   19.3615  -11.4034   14.2885 N   0  0  0  0  0  0  0  0  0  0  0  0
   19.2827  -11.5584   12.9931 O   0  0  0  0  0  0  0  0  0  0  0  0
   18.2986  -10.8423   12.5110 C   0  0  0  0  0  0  0  0  0  0  0  0
   17.8807  -10.7268   11.1884 C   0  0  0  0  0  0  0  0  0  0  0  0
   16.7847   -9.8826   10.9283 C   0  0  0  0  0  0  0  0  0  0  0  0
   16.3372   -9.7343    9.6586 F   0  0  0  0  0  0  0  0  0  0  0  0
   16.1477   -9.1887   11.9820 C   0  0  0  0  0  0  0  0  0  0  0  0
   16.5972   -9.3290   13.3080 C   0  0  0  0  0  0  0  0  0  0  0  0
   17.6838  -10.1719   13.5303 C   0  0  0  0  0  0  0  0  0  0  0  0
   14.9392   -7.3340   18.6798 C   0  0  0  0  0  0  0  0  0  0  0  0
   12.5708   -8.0277   20.3025 C   0  0  0  0  0  0  0  0  0  0  0  0
   13.8541   -7.6161   20.9422 C   0  0  0  0  0  0  0  0  0  0  0  0
   13.9244   -7.5678   22.2942 N   0  0  0  0  0  0  0  0  0  0  0  0
   15.0640   -7.2070   22.9382 C   0  0  0  0  0  0  0  0  0  0  0  0
   16.1821   -6.8603   22.2167 N   0  0  0  0  0  0  0  0  0  0  0  0
   16.1505   -6.9004   20.8485 C   0  0  0  0  0  0  0  0  0  0  0  0
   17.1812   -6.6046   20.1803 O   0  0  0  0  0  0  0  0  0  0  0  0
   14.9753   -7.2720   20.1775 C   0  0  0  0  0  0  0  0  0  0  0  0
   17.4598   -6.5542   22.8796 C   0  0  0  0  0  0  0  0  0  0  0  0
   17.2692   -6.0441   24.3000 C   0  0  0  0  0  0  0  0  0  0  0  0
   16.4160   -7.0437   25.0568 C   0  0  0  0  0  0  0  0  0  0  0  0
   15.0244   -7.1065   24.4403 C   0  0  0  0  0  0  0  0  0  0  0  0
   14.2913   -5.9797   24.8165 O   0  0  0  0  0  0  0  0  0  0  0  0
   14.7278   -5.1822   24.4782 H   0  0  0  0  0  0  0  0  0  0  0  0
 19 20  1  0  0  0
 20 21  1  0  0  0
 21 22  2  0  0  0
 22 23  1  0  0  0
 23 24  1  0  0  0
 24 25  2  0  0  0
 24 26  1  0  0  0
 26 18  1  0  0  0
 18  1  1  0  0  0
  1  2  1  0  0  0
  2  3  1  0  0  0
  3  4  1  0  0  0
  4  5  1  0  0  0
  5  8  1  0  0  0
  8  9  2  0  0  0
  9 10  1  0  0  0
 10 11  1  0  0  0
 11 12  2  0  0  0
 12 13  1  0  0  0
 13 14  1  0  0  0
 13 15  2  0  0  0
 15 16  1  0  0  0
 16 17  2  0  0  0
  5  6  1  0  0  0
  6  7  1  0  0  0
 23 27  1  0  0  0
 27 28  1  0  0  0
 28 29  1  0  0  0
 29 30  1  0  0  0
 30 31  1  0  0  0
 26 20  2  0  0  0
  7  2  1  0  0  0
 30 22  1  0  0  0
 17  8  1  0  0  0
 17 11  1  0  0  0
 31 32  1  0  0  0
M  END
>  <minimizedAffinity>
-6.22677

>  <minimizedRMSD>
1.95380

$$$$
CHEMBL3943535 PubChem-118970899


 32 35  0  0  0  0  0  0  0  0999 V2000
   17.1038   -9.5994   10.5540 C   0  0  0  0  0  0  0  0  0  0  0  0
   16.0283   -9.9396    9.9900 O   0  0  0  0  0  0  0  0  0  0  0  0
   17.2725   -9.8562   11.9600 N   0  0  0  0  0  0  0  0  0  0  0  0
   18.5878   -9.8420   12.5911 C   0  0  0  0  0  0  0  0  0  0  0  0
   18.5526   -8.9859   13.8553 C   0  0  0  0  0  0  0  0  0  0  0  0
   17.3128   -9.2128   14.6755 C   0  0  0  0  0  0  0  0  0  0  0  0
   17.2754   -8.7465   15.9511 N   0  0  0  0  0  0  0  0  0  0  0  0
   16.1714   -8.8988   16.7291 C   0  0  0  0  0  0  0  0  0  0  0  0
   15.0742   -9.5263   16.2247 N   0  0  0  0  0  0  0  0  0  0  0  0
   15.0587  -10.0002   14.9526 C   0  0  0  0  0  0  0  0  0  0  0  0
   16.1775   -9.8459   14.1379 C   0  0  0  0  0  0  0  0  0  0  0  0
   16.1590  -10.3903   12.7404 C   0  0  0  0  0  0  0  0  0  0  0  0
   16.9218   -8.7119    7.5022 C   0  0  0  0  0  0  0  0  0  0  0  0
   18.0698   -8.5312    8.4341 C   0  0  0  0  0  0  0  0  0  0  0  0
   18.1517   -8.9225    9.7553 C   0  0  0  0  0  0  0  0  0  0  0  0
   19.3297   -8.5833   10.2182 O   0  0  0  0  0  0  0  0  0  0  0  0
   20.0233   -7.9933    9.2686 C   0  0  0  0  0  0  0  0  0  0  0  0
   19.2681   -7.9333    8.1073 C   0  0  0  0  0  0  0  0  0  0  0  0
   16.1890   -8.3929   18.0709 N   0  0  0  0  0  0  0  0  0  0  0  0
   17.0378   -8.4854   18.5610 H   0  0  0  0  0  0  0  0  0  0  0  0
   15.1103   -7.7675   18.7803 C   0  0  0  0  0  0  0  0  0  0  0  0
   15.2664   -7.5023   20.1391 C   0  0  0  0  0  0  0  0  0  0  0  0
   14.2421   -6.8912   20.8770 C   0  0  0  0  0  0  0  0  0  0  0  0
   13.0367   -6.5362   20.2475 C   0  0  0  0  0  0  0  0  0  0  0  0
   12.8698   -6.8022   18.8647 C   0  0  0  0  0  0  0  0  0  0  0  0
   13.9125   -7.4150   18.1526 C   0  0  0  0  0  0  0  0  0  0  0  0
   11.6814   -6.4608   18.2087 O   0  0  0  0  0  0  0  0  0  0  0  0
   10.7445   -7.4265   17.7495 C   0  0  0  0  0  0  0  0  0  0  0  0
   12.0497   -5.9272   21.0412 O   0  0  0  0  0  0  0  0  0  0  0  0
   11.8172   -4.5285   21.1237 C   0  0  0  0  0  0  0  0  0  0  0  0
   14.4001   -6.6258   22.2421 O   0  0  0  0  0  0  0  0  0  0  0  0
   15.0180   -7.5392   23.1387 C   0  0  0  0  0  0  0  0  0  0  0  0
 13 14  1  0  0  0
 14 15  2  0  0  0
 15 16  1  0  0  0
 16 17  1  0  0  0
 17 18  2  0  0  0
 15  1  1  0  0  0
  1  2  2  0  0  0
  1  3  1  0  0  0
  3  4  1  0  0  0
  4  5  1  0  0  0
  5  6  1  0  0  0
  6  7  2  0  0  0
  7  8  1  0  0  0
  8  9  2  0  0  0
  9 10  1  0  0  0
 10 11  2  0  0  0
 11 12  1  0  0  0
  8 19  1  0  0  0
 19 21  1  0  0  0
 21 22  2  0  0  0
 22 23  1  0  0  0
 23 24  2  0  0  0
 24 25  1  0  0  0
 25 26  2  0  0  0
 25 27  1  0  0  0
 27 28  1  0  0  0
 24 29  1  0  0  0
 29 30  1  0  0  0
 23 31  1  0  0  0
 31 32  1  0  0  0
 18 14  1  0  0  0
 12  3  1  0  0  0
 11  6  1  0  0  0
 26 21  1  0  0  0
 19 20  1  0  0  0
M  END
>  <minimizedAffinity>
-6.21426

>  <minimizedRMSD>
1.50421

$$$$
CHEMBL3344434 PubChem-118717792


 34 37  0  0  0  0  0  0  0  0999 V2000
   16.0114   -8.2999   16.9379 C   0  0  0  0  0  0  0  0  0  0  0  0
   16.3637   -8.9845   18.0423 N   0  0  0  0  0  0  0  0  0  0  0  0
   15.5594   -8.5514   18.9642 O   0  0  0  0  0  0  0  0  0  0  0  0
   14.7496   -7.6473   18.4656 C   0  0  0  0  0  0  0  0  0  0  0  0
   14.9943   -7.4411   17.1548 N   0  0  0  0  0  0  0  0  0  0  0  0
   17.3240   -9.9308   11.8502 C   0  0  0  0  0  0  0  0  0  0  0  0
   18.1408  -10.8810   11.6923 O   0  0  0  0  0  0  0  0  0  0  0  0
   16.8709   -9.5916   13.1692 N   0  0  0  0  0  0  0  0  0  0  0  0
   15.8474   -8.5657   13.3696 C   0  0  0  0  0  0  0  0  0  0  0  0
   16.2547   -7.6528   14.5213 C   0  0  0  0  0  0  0  0  0  0  0  0
   16.6475   -8.4676   15.6664 N   0  0  0  0  0  0  0  0  0  0  0  0
   17.6804   -9.4806   15.4746 C   0  0  0  0  0  0  0  0  0  0  0  0
   17.2844  -10.3954   14.3191 C   0  0  0  0  0  0  0  0  0  0  0  0
   18.5908  -10.6105    8.3551 C   0  0  0  0  0  0  0  0  0  0  0  0
   17.5612   -9.5462    8.6822 C   0  0  0  0  0  0  0  0  0  0  0  0
   17.0872   -8.7771    7.4643 C   0  0  0  0  0  0  0  0  0  0  0  0
   17.9954   -8.6376    9.8148 C   0  0  0  0  0  0  0  0  0  0  0  0
   16.8374   -9.1533   10.6571 C   0  0  0  0  0  0  0  0  0  0  0  0
   16.4159  -10.0752    9.5218 C   0  0  0  0  0  0  0  0  0  0  0  0
   13.6978   -6.9346   19.2243 C   0  0  0  0  0  0  0  0  0  0  0  0
   13.5860   -6.9923   20.6338 C   0  0  0  0  0  0  0  0  0  0  0  0
   14.6826   -7.9168   21.6502 Cl  0  0  0  0  0  0  0  0  0  0  0  0
   12.5634   -6.2896   21.2780 C   0  0  0  0  0  0  0  0  0  0  0  0
   11.6431   -5.5242   20.5482 C   0  0  0  0  0  0  0  0  0  0  0  0
   11.7525   -5.4691   19.1559 C   0  0  0  0  0  0  0  0  0  0  0  0
   12.7704   -6.1674   18.5044 C   0  0  0  0  0  0  0  0  0  0  0  0
   10.8731   -4.7364   18.4296 F   0  0  0  0  0  0  0  0  0  0  0  0
   10.6145   -4.8169   21.1827 O   0  0  0  0  0  0  0  0  0  0  0  0
    9.7866   -5.3799   22.1968 C   0  0  0  0  0  0  0  0  0  0  0  0
   10.4894   -5.3449   23.5469 C   0  0  0  0  0  0  0  0  0  0  0  0
   11.0602   -3.9939   23.8111 C   0  0  0  0  0  0  0  0  0  0  0  0
   12.2569   -3.8813   24.1826 O   0  0  0  0  0  0  0  0  0  0  0  0
   10.2728   -2.8597   23.6593 O   0  0  0  0  0  0  0  0  0  0  0  0
    9.3814   -2.9418   23.3827 H   0  0  0  0  0  0  0  0  0  0  0  0
 14 15  1  0  0  0
 15 16  1  0  0  0
 15 17  1  0  0  0
 17 18  1  0  0  0
 18  6  1  0  0  0
  6  7  2  0  0  0
  6  8  1  0  0  0
  8  9  1  0  0  0
  9 10  1  0  0  0
 10 11  1  0  0  0
 11  1  1  0  0  0
  1  2  2  0  0  0
  2  3  1  0  0  0
  3  4  1  0  0  0
  4 20  1  0  0  0
 20 21  2  0  0  0
 21 22  1  0  0  0
 21 23  1  0  0  0
 23 24  2  0  0  0
 24 28  1  0  0  0
 28 29  1  0  0  0
 29 30  1  0  0  0
 30 31  1  0  0  0
 31 32  2  0  0  0
 31 33  1  0  0  0
 24 25  1  0  0  0
 25 26  2  0  0  0
 25 27  1  0  0  0
  4  5  2  0  0  0
 11 12  1  0  0  0
 12 13  1  0  0  0
 18 19  1  0  0  0
 19 15  1  0  0  0
 13  8  1  0  0  0
  5  1  1  0  0  0
 26 20  1  0  0  0
 33 34  1  0  0  0
M  END
>  <minimizedAffinity>
-6.19602

>  <minimizedRMSD>
1.69749

$$$$
CHEMBL3618341 PubChem-45279871


 33 37  0  0  0  0  0  0  0  0999 V2000
   15.8999   -8.6563   17.0157 N   0  0  0  0  0  0  0  0  0  0  0  0
   16.7204   -9.7535   17.1187 C   0  0  0  0  0  0  0  0  0  0  0  0
   17.2599  -10.3247   16.0058 N   0  0  0  0  0  0  0  0  0  0  0  0
   16.9731   -9.8068   14.8165 N   0  0  0  0  0  0  0  0  0  0  0  0
   17.4076  -10.2275   13.6229 C   0  0  0  0  0  0  0  0  0  0  0  0
   16.8470   -9.3760   12.6758 C   0  0  0  0  0  0  0  0  0  0  0  0
   16.0594   -8.4165   13.3180 C   0  0  0  0  0  0  0  0  0  0  0  0
   16.1813   -8.7450   14.6548 C   0  0  0  0  0  0  0  0  0  0  0  0
   15.6285   -8.1245   15.7730 C   0  0  0  0  0  0  0  0  0  0  0  0
   14.9209   -7.0870   15.6387 O   0  0  0  0  0  0  0  0  0  0  0  0
   17.0515   -9.4882   11.2221 C   0  0  0  0  0  0  0  0  0  0  0  0
   18.2098   -9.0327   10.6641 N   0  0  0  0  0  0  0  0  0  0  0  0
   18.4452   -9.1186    9.3279 C   0  0  0  0  0  0  0  0  0  0  0  0
   17.4844   -9.6837    8.4856 C   0  0  0  0  0  0  0  0  0  0  0  0
   16.2904  -10.1592    9.0289 C   0  0  0  0  0  0  0  0  0  0  0  0
   16.0691  -10.0636   10.4029 C   0  0  0  0  0  0  0  0  0  0  0  0
   17.7899   -9.8215    6.7675 Cl  0  0  0  0  0  0  0  0  0  0  0  0
   13.3942   -7.5084   19.5921 C   0  0  0  0  0  0  0  0  0  0  0  0
   14.2558   -7.1347   20.6524 C   0  0  0  0  0  0  0  0  0  0  0  0
   15.6383   -7.2565   20.4861 C   0  0  0  0  0  0  0  0  0  0  0  0
   16.1758   -7.7400   19.2931 C   0  0  0  0  0  0  0  0  0  0  0  0
   15.3385   -8.1096   18.2306 C   0  0  0  0  0  0  0  0  0  0  0  0
   13.9506   -7.9912   18.3953 C   0  0  0  0  0  0  0  0  0  0  0  0
   11.1168   -7.3152   18.6307 C   0  0  0  0  0  0  0  0  0  0  0  0
   12.0058   -7.4121   19.7366 O   0  0  0  0  0  0  0  0  0  0  0  0
   13.8030   -6.6552   21.8928 O   0  0  0  0  0  0  0  0  0  0  0  0
   12.4397   -6.5998   22.3009 C   0  0  0  0  0  0  0  0  0  0  0  0
   11.9065   -5.1800   22.1653 C   0  0  0  0  0  0  0  0  0  0  0  0
   12.9655   -4.2740   22.3329 O   0  0  0  0  0  0  0  0  0  0  0  0
   13.3651   -4.4020   23.2074 H   0  0  0  0  0  0  0  0  0  0  0  0
   10.7904   -4.9760   23.1954 C   0  0  0  0  0  0  0  0  0  0  0  0
   10.4454   -3.4941   23.2666 C   0  0  0  0  0  0  0  0  0  0  0  0
   11.2116   -4.1448   24.4021 C   0  0  0  0  0  0  0  0  0  0  0  0
 24 25  1  0  0  0
 25 18  1  0  0  0
 18 19  2  0  0  0
 19 20  1  0  0  0
 19 26  1  0  0  0
 20 21  2  0  0  0
 21 22  1  0  0  0
 22 23  2  0  0  0
 22  1  1  0  0  0
 23 18  1  0  0  0
  1  2  1  0  0  0
  2  3  2  0  0  0
  3  4  1  0  0  0
  4  5  1  0  0  0
  5  6  2  0  0  0
  6  7  1  0  0  0
  6 11  1  0  0  0
  7  8  2  0  0  0
  8  9  1  0  0  0
  8  4  1  0  0  0
  9 10  2  0  0  0
  9  1  1  0  0  0
 11 12  2  0  0  0
 12 13  1  0  0  0
 13 14  2  0  0  0
 14 15  1  0  0  0
 14 17  1  0  0  0
 15 16  2  0  0  0
 16 11  1  0  0  0
 26 27  1  0  0  0
 28 27  1  0  0  0
 28 31  1  0  0  0
 28 29  1  0  0  0
 31 32  1  0  0  0
 32 33  1  0  0  0
 33 31  1  0  0  0
 29 30  1  0  0  0
M  END
>  <minimizedAffinity>
-6.18445

>  <minimizedRMSD>
1.44425

$$$$
CHEMBL182522


 37 40  0  0  0  0  0  0  0  0999 V2000
   16.1015   -8.7984   15.9326 C   0  0  0  0  0  0  0  0  0  0  0  0
   15.1858   -9.2853   14.9878 C   0  0  0  0  0  0  0  0  0  0  0  0
   15.5935   -9.5429   13.6756 C   0  0  0  0  0  0  0  0  0  0  0  0
   16.9246   -9.3154   13.2954 C   0  0  0  0  0  0  0  0  0  0  0  0
   17.8383   -8.8283   14.2431 C   0  0  0  0  0  0  0  0  0  0  0  0
   17.4273   -8.5719   15.5538 C   0  0  0  0  0  0  0  0  0  0  0  0
   14.6710  -10.0246   12.7549 O   0  0  0  0  0  0  0  0  0  0  0  0
   13.7835  -10.1744   13.0154 H   0  0  0  0  0  0  0  0  0  0  0  0
   14.9869   -7.5206   17.5748 N   0  0  0  0  0  0  0  0  0  0  0  0
   15.7044   -8.5288   17.2790 N   0  0  0  0  0  0  0  0  0  0  0  0
   14.5685   -7.2178   18.9177 C   0  0  0  0  0  0  0  0  0  0  0  0
   13.2058   -6.9508   19.1620 C   0  0  0  0  0  0  0  0  0  0  0  0
   12.7623   -6.6493   20.4744 C   0  0  0  0  0  0  0  0  0  0  0  0
   13.6821   -6.6170   21.5308 C   0  0  0  0  0  0  0  0  0  0  0  0
   15.0289   -6.8813   21.2871 C   0  0  0  0  0  0  0  0  0  0  0  0
   15.4791   -7.1795   19.9995 C   0  0  0  0  0  0  0  0  0  0  0  0
   16.8330   -7.4343   19.8172 O   0  0  0  0  0  0  0  0  0  0  0  0
   13.2704   -6.3236   22.8265 O   0  0  0  0  0  0  0  0  0  0  0  0
   11.4050   -6.3856   20.7055 C   0  0  0  0  0  0  0  0  0  0  0  0
   10.4898   -6.4183   19.6512 C   0  0  0  0  0  0  0  0  0  0  0  0
   10.9227   -6.7148   18.3574 C   0  0  0  0  0  0  0  0  0  0  0  0
   12.2724   -6.9795   18.1139 C   0  0  0  0  0  0  0  0  0  0  0  0
   17.4182   -7.4034   20.5484 H   0  0  0  0  0  0  0  0  0  0  0  0
   12.3676   -6.1444   23.0019 H   0  0  0  0  0  0  0  0  0  0  0  0
   17.3332   -9.5819   11.9498 N   0  0  0  0  0  0  0  0  0  0  0  0
   16.9438   -8.8605   10.9761 N   0  0  0  0  0  0  0  0  0  0  0  0
   17.3528   -9.1279    9.6327 C   0  0  0  0  0  0  0  0  0  0  0  0
   18.0565   -8.1477    8.9254 C   0  0  0  0  0  0  0  0  0  0  0  0
   18.4691   -8.3829    7.6086 C   0  0  0  0  0  0  0  0  0  0  0  0
   18.1749   -9.6071    6.9974 C   0  0  0  0  0  0  0  0  0  0  0  0
   17.4721  -10.5909    7.6984 C   0  0  0  0  0  0  0  0  0  0  0  0
   17.0615  -10.3531    9.0129 C   0  0  0  0  0  0  0  0  0  0  0  0
   19.2560   -7.2815    6.8237 B   0  0  0  0  0  0  0  0  0  0  0  0
   20.5114   -7.6114    6.1532 O   0  0  0  0  0  0  0  0  0  0  0  0
   18.7404   -5.9163    6.7563 O   0  0  0  0  0  0  0  0  0  0  0  0
   20.7148   -8.5497    6.2911 H   0  0  0  0  0  0  0  0  0  0  0  0
   17.9060   -5.8613    7.2478 H   0  0  0  0  0  0  0  0  0  0  0  0
 11  9  1  0  0  0
  9 10  2  0  0  0
 10  1  1  0  0  0
  1  2  2  0  0  0
  2  3  1  0  0  0
  3  4  2  0  0  0
  4 25  1  0  0  0
 25 26  2  0  0  0
 26 27  1  0  0  0
 27 28  2  0  0  0
 28 29  1  0  0  0
 29 33  1  0  0  0
 33 34  1  0  0  0
 33 35  1  0  0  0
 29 30  2  0  0  0
 30 31  1  0  0  0
 31 32  2  0  0  0
  4  5  1  0  0  0
  5  6  2  0  0  0
  3  7  1  0  0  0
 11 12  2  0  0  0
 12 13  1  0  0  0
 13 14  2  0  0  0
 14 15  1  0  0  0
 15 16  2  0  0  0
 16 17  1  0  0  0
 14 18  1  0  0  0
 13 19  1  0  0  0
 19 20  2  0  0  0
 20 21  1  0  0  0
 21 22  2  0  0  0
 16 11  1  0  0  0
  6  1  1  0  0  0
 22 12  1  0  0  0
 32 27  1  0  0  0
 34 36  1  0  0  0
 35 37  1  0  0  0
  7  8  1  0  0  0
 17 23  1  0  0  0
 18 24  1  0  0  0
M  END
>  <minimizedAffinity>
-6.17672

>  <minimizedRMSD>
1.88744

$$$$
CHEMBL5197653 PubChem-71478212 XLSINZVEUBWURX-UHFFFAOYSA-N


 25 27  0  0  0  0  0  0  0  0999 V2000
   16.5203   -9.1444   15.2011 C   0  0  0  0  0  0  0  0  0  0  0  0
   17.3052   -9.6679   16.2344 C   0  0  0  0  0  0  0  0  0  0  0  0
   16.6128   -9.1470   17.6782 S   0  0  0  0  0  0  0  0  0  0  0  0
   15.3664   -8.2997   16.9364 C   0  0  0  0  0  0  0  0  0  0  0  0
   15.4560   -8.3891   15.5955 N   0  0  0  0  0  0  0  0  0  0  0  0
   17.3605   -9.8328   11.0498 C   0  0  0  0  0  0  0  0  0  0  0  0
   18.3569  -10.0281   12.0108 C   0  0  0  0  0  0  0  0  0  0  0  0
   18.0865   -9.8048   13.3637 C   0  0  0  0  0  0  0  0  0  0  0  0
   16.8131   -9.3821   13.7742 C   0  0  0  0  0  0  0  0  0  0  0  0
   15.8151   -9.1868   12.8093 C   0  0  0  0  0  0  0  0  0  0  0  0
   16.0852   -9.4100   11.4565 C   0  0  0  0  0  0  0  0  0  0  0  0
   16.8739   -9.5488    8.6414 C   0  0  0  0  0  0  0  0  0  0  0  0
   17.6624  -10.0646    9.7051 O   0  0  0  0  0  0  0  0  0  0  0  0
   14.3376   -7.5379   17.5839 N   0  0  0  0  0  0  0  0  0  0  0  0
   13.6278   -7.1905   16.9969 H   0  0  0  0  0  0  0  0  0  0  0  0
   14.2092   -7.2165   18.9781 C   0  0  0  0  0  0  0  0  0  0  0  0
   13.1527   -6.3869   19.3903 C   0  0  0  0  0  0  0  0  0  0  0  0
   13.0074   -6.0719   20.7515 C   0  0  0  0  0  0  0  0  0  0  0  0
   13.9031   -6.5787   21.7042 C   0  0  0  0  0  0  0  0  0  0  0  0
   14.9474   -7.4061   21.2880 C   0  0  0  0  0  0  0  0  0  0  0  0
   15.0979   -7.7233   19.9368 C   0  0  0  0  0  0  0  0  0  0  0  0
   13.7774   -6.2775   23.0631 O   0  0  0  0  0  0  0  0  0  0  0  0
   12.9349   -5.2393   23.5444 C   0  0  0  0  0  0  0  0  0  0  0  0
   12.2609   -5.8863   18.4346 O   0  0  0  0  0  0  0  0  0  0  0  0
   11.5765   -4.6509   18.5927 C   0  0  0  0  0  0  0  0  0  0  0  0
 12 13  1  0  0  0
 13  6  1  0  0  0
  6  7  2  0  0  0
  7  8  1  0  0  0
  8  9  2  0  0  0
  9 10  1  0  0  0
  9  1  1  0  0  0
 10 11  2  0  0  0
 11  6  1  0  0  0
  1  2  2  0  0  0
  2  3  1  0  0  0
  3  4  1  0  0  0
  4  5  2  0  0  0
  4 14  1  0  0  0
  5  1  1  0  0  0
 14 16  1  0  0  0
 16 17  2  0  0  0
 17 18  1  0  0  0
 17 24  1  0  0  0
 18 19  2  0  0  0
 19 20  1  0  0  0
 19 22  1  0  0  0
 20 21  2  0  0  0
 21 16  1  0  0  0
 22 23  1  0  0  0
 24 25  1  0  0  0
 14 15  1  0  0  0
M  END
>  <minimizedAffinity>
-6.17528

>  <minimizedRMSD>
1.54509

$$$$
CHEMBL1861804 PubChem-56683220


 33 36  0  0  0  0  0  0  0  0999 V2000
   15.7852   -8.6997   17.1088 C   0  0  0  0  0  0  0  0  0  0  0  0
   15.2235   -9.1272   15.9604 N   0  0  0  0  0  0  0  0  0  0  0  0
   16.2519   -9.7335   15.3408 C   0  0  0  0  0  0  0  0  0  0  0  0
   17.3982   -9.6533   16.1020 C   0  0  0  0  0  0  0  0  0  0  0  0
   17.0605   -9.0074   17.1929 O   0  0  0  0  0  0  0  0  0  0  0  0
   14.9006   -7.1557   20.4389 C   0  0  0  0  0  0  0  0  0  0  0  0
   15.5878   -7.8523   19.4345 C   0  0  0  0  0  0  0  0  0  0  0  0
   15.0530   -7.9666   18.1514 C   0  0  0  0  0  0  0  0  0  0  0  0
   13.8187   -7.3781   17.8700 C   0  0  0  0  0  0  0  0  0  0  0  0
   13.1088   -6.6749   18.8561 C   0  0  0  0  0  0  0  0  0  0  0  0
   13.6574   -6.5619   20.1595 C   0  0  0  0  0  0  0  0  0  0  0  0
   16.7184   -6.4841   21.9822 C   0  0  0  0  0  0  0  0  0  0  0  0
   15.4352   -7.0397   21.7273 O   0  0  0  0  0  0  0  0  0  0  0  0
   11.8730   -6.0941   18.5481 O   0  0  0  0  0  0  0  0  0  0  0  0
   10.6385   -6.7890   18.6677 C   0  0  0  0  0  0  0  0  0  0  0  0
   13.0197   -5.8781   21.2087 O   0  0  0  0  0  0  0  0  0  0  0  0
   13.0712   -4.4743   21.4184 C   0  0  0  0  0  0  0  0  0  0  0  0
   16.1586  -10.3480   13.9868 C   0  0  0  0  0  0  0  0  0  0  0  0
   15.5437   -9.4092   13.0514 N   0  0  0  0  0  0  0  0  0  0  0  0
   16.4333   -8.2593   12.8191 C   0  0  0  0  0  0  0  0  0  0  0  0
   17.7119   -8.6538   12.0758 C   0  0  0  0  0  0  0  0  0  0  0  0
   17.3531   -9.3774   10.8627 N   0  0  0  0  0  0  0  0  0  0  0  0
   16.4695  -10.5263   11.0184 C   0  0  0  0  0  0  0  0  0  0  0  0
   15.2190  -10.0985   11.7931 C   0  0  0  0  0  0  0  0  0  0  0  0
   17.8195   -8.9557    9.5681 C   0  0  0  0  0  0  0  0  0  0  0  0
   17.2779   -9.5117    8.3982 C   0  0  0  0  0  0  0  0  0  0  0  0
   17.7302   -9.1021    7.1412 C   0  0  0  0  0  0  0  0  0  0  0  0
   18.7322   -8.1292    7.0308 C   0  0  0  0  0  0  0  0  0  0  0  0
   19.2760   -7.5716    8.1968 C   0  0  0  0  0  0  0  0  0  0  0  0
   18.8235   -7.9814    9.4536 C   0  0  0  0  0  0  0  0  0  0  0  0
   19.1934   -7.7117    5.7388 N   0  0  0  0  0  0  0  0  0  0  0  0
   19.9633   -6.7353    5.6249 O   0  0  0  0  0  0  0  0  0  0  0  0
   18.7917   -8.3839    4.6073 O   0  0  0  0  0  0  0  0  0  0  0  0
 12 13  1  0  0  0
 13  6  1  0  0  0
  6  7  2  0  0  0
  7  8  1  0  0  0
  8  1  1  0  0  0
  8  9  2  0  0  0
  1  2  2  0  0  0
  2  3  1  0  0  0
  3 18  1  0  0  0
  3  4  2  0  0  0
 18 19  1  0  0  0
 19 20  1  0  0  0
 20 21  1  0  0  0
 21 22  1  0  0  0
 22 25  1  0  0  0
 22 23  1  0  0  0
 25 26  2  0  0  0
 26 27  1  0  0  0
 27 28  2  0  0  0
 28 31  1  0  0  0
 28 29  1  0  0  0
 31 32  2  0  0  0
 31 33  1  0  0  0
 29 30  2  0  0  0
 30 25  1  0  0  0
 23 24  1  0  0  0
 24 19  1  0  0  0
  4  5  1  0  0  0
  5  1  1  0  0  0
  9 10  1  0  0  0
 10 14  1  0  0  0
 10 11  2  0  0  0
 14 15  1  0  0  0
 11 16  1  0  0  0
 11  6  1  0  0  0
 16 17  1  0  0  0
M  CHG 1  31   1
M  CHG 1  33  -1
M  END
>  <minimizedAffinity>
-6.16829

>  <minimizedRMSD>
1.40700

$$$$
CHEMBL4583711 PubChem-135335446


 29 32  0  0  0  0  0  0  0  0999 V2000
   15.4769   -8.2309   17.6686 C   0  0  0  0  0  0  0  0  0  0  0  0
   16.3294   -9.3273   17.5431 C   0  0  0  0  0  0  0  0  0  0  0  0
   16.5462   -9.4680   16.2284 N   0  0  0  0  0  0  0  0  0  0  0  0
   17.3028  -10.3859   15.5811 C   0  0  0  0  0  0  0  0  0  0  0  0
   17.3657  -10.3179   14.1823 C   0  0  0  0  0  0  0  0  0  0  0  0
   16.6539   -9.3114   13.4875 C   0  0  0  0  0  0  0  0  0  0  0  0
   15.8798   -8.3851   14.2184 C   0  0  0  0  0  0  0  0  0  0  0  0
   15.8567   -8.5033   15.6051 C   0  0  0  0  0  0  0  0  0  0  0  0
   15.1776   -7.7104   16.4514 N   0  0  0  0  0  0  0  0  0  0  0  0
   13.5837   -7.4992   19.1898 C   0  0  0  0  0  0  0  0  0  0  0  0
   13.1648   -6.9922   20.4308 C   0  0  0  0  0  0  0  0  0  0  0  0
   14.0892   -6.6818   21.4379 C   0  0  0  0  0  0  0  0  0  0  0  0
   15.4534   -6.8826   21.1972 C   0  0  0  0  0  0  0  0  0  0  0  0
   15.8798   -7.3859   19.9674 C   0  0  0  0  0  0  0  0  0  0  0  0
   14.9627   -7.6995   18.9533 C   0  0  0  0  0  0  0  0  0  0  0  0
   16.6496   -6.5097   22.4252 Cl  0  0  0  0  0  0  0  0  0  0  0  0
   11.3012   -8.1655   18.4874 C   0  0  0  0  0  0  0  0  0  0  0  0
   12.6444   -7.8031   18.1967 O   0  0  0  0  0  0  0  0  0  0  0  0
   13.6723   -6.1767   22.6745 O   0  0  0  0  0  0  0  0  0  0  0  0
   12.4330   -5.5043   22.8527 C   0  0  0  0  0  0  0  0  0  0  0  0
   16.7079   -9.2414   12.0501 N   0  0  0  0  0  0  0  0  0  0  0  0
   17.8353   -8.5976   11.3749 C   0  0  0  0  0  0  0  0  0  0  0  0
   18.1797   -9.3729   10.1058 C   0  0  0  0  0  0  0  0  0  0  0  0
   16.9896   -9.5056    9.2654 N   0  0  0  0  0  0  0  0  0  0  0  0
   16.0189  -10.3343    9.9774 C   0  0  0  0  0  0  0  0  0  0  0  0
   15.5484   -9.6151   11.2391 C   0  0  0  0  0  0  0  0  0  0  0  0
   17.3845  -10.2502    8.0821 C   0  0  0  0  0  0  0  0  0  0  0  0
   17.8462   -9.2918    7.0013 C   0  0  0  0  0  0  0  0  0  0  0  0
   17.2797   -8.0502    7.2148 F   0  0  0  0  0  0  0  0  0  0  0  0
 17 18  1  0  0  0
 18 10  1  0  0  0
 10 11  2  0  0  0
 11 12  1  0  0  0
 12 13  2  0  0  0
 13 14  1  0  0  0
 14 15  2  0  0  0
 15  1  1  0  0  0
  1  2  2  0  0  0
  2  3  1  0  0  0
  3  4  1  0  0  0
  4  5  2  0  0  0
  5  6  1  0  0  0
  6  7  2  0  0  0
  7  8  1  0  0  0
  8  9  2  0  0  0
  6 21  1  0  0  0
 21 22  1  0  0  0
 22 23  1  0  0  0
 23 24  1  0  0  0
 24 25  1  0  0  0
 25 26  1  0  0  0
 24 27  1  0  0  0
 27 28  1  0  0  0
 28 29  1  0  0  0
 13 16  1  0  0  0
 12 19  1  0  0  0
 19 20  1  0  0  0
 15 10  1  0  0  0
  9  1  1  0  0  0
  8  3  1  0  0  0
 26 21  1  0  0  0
M  END
>  <minimizedAffinity>
-6.15554

>  <minimizedRMSD>
1.93357

$$$$
CHEMBL1721261 PubChem-44246642


 33 36  0  0  0  0  0  0  0  0999 V2000
   16.5767   -9.5410   12.7518 C   0  0  0  0  0  0  0  0  0  0  0  0
   16.0040   -8.3177   12.5266 N   0  0  0  0  0  0  0  0  0  0  0  0
   15.7512   -7.4461   13.5563 C   0  0  0  0  0  0  0  0  0  0  0  0
   16.0678   -7.7819   14.8438 N   0  0  0  0  0  0  0  0  0  0  0  0
   16.6344   -8.9942   15.0580 C   0  0  0  0  0  0  0  0  0  0  0  0
   17.0122   -9.5288   16.2225 N   0  0  0  0  0  0  0  0  0  0  0  0
   17.4937  -10.7550   15.8969 C   0  0  0  0  0  0  0  0  0  0  0  0
   17.4360  -10.9975   14.5558 N   0  0  0  0  0  0  0  0  0  0  0  0
   16.8900   -9.8697   14.0627 C   0  0  0  0  0  0  0  0  0  0  0  0
   16.8361  -10.4324   11.7076 O   0  0  0  0  0  0  0  0  0  0  0  0
   16.3186  -10.2430   10.3956 C   0  0  0  0  0  0  0  0  0  0  0  0
   17.2519   -9.4104    9.5826 C   0  0  0  0  0  0  0  0  0  0  0  0
   16.9353   -9.0950    8.2569 C   0  0  0  0  0  0  0  0  0  0  0  0
   17.7979   -8.2943    7.5023 C   0  0  0  0  0  0  0  0  0  0  0  0
   18.9760   -7.8041    8.0743 C   0  0  0  0  0  0  0  0  0  0  0  0
   19.2910   -8.1132    9.4016 C   0  0  0  0  0  0  0  0  0  0  0  0
   18.4286   -8.9145   10.1564 C   0  0  0  0  0  0  0  0  0  0  0  0
   16.8795   -8.9620   17.5562 C   0  0  0  0  0  0  0  0  0  0  0  0
   15.4801   -8.4819   17.7746 C   0  0  0  0  0  0  0  0  0  0  0  0
   14.5690   -8.9082   17.0158 O   0  0  0  0  0  0  0  0  0  0  0  0
   15.1640   -7.5836   18.8515 N   0  0  0  0  0  0  0  0  0  0  0  0
   16.1742   -7.2039   19.8270 C   0  0  0  0  0  0  0  0  0  0  0  0
   13.7983   -7.1216   19.0705 C   0  0  0  0  0  0  0  0  0  0  0  0
   13.6209   -6.6526   20.4769 C   0  0  0  0  0  0  0  0  0  0  0  0
   13.0058   -5.4240   20.7342 C   0  0  0  0  0  0  0  0  0  0  0  0
   12.8519   -4.9637   22.0524 C   0  0  0  0  0  0  0  0  0  0  0  0
   13.3171   -5.7504   23.1185 C   0  0  0  0  0  0  0  0  0  0  0  0
   13.9399   -6.9814   22.8527 C   0  0  0  0  0  0  0  0  0  0  0  0
   14.0938   -7.4281   21.5383 C   0  0  0  0  0  0  0  0  0  0  0  0
   12.2455   -3.7316   22.3241 O   0  0  0  0  0  0  0  0  0  0  0  0
   10.8630   -3.6061   22.6268 C   0  0  0  0  0  0  0  0  0  0  0  0
   13.1539   -5.2893   24.4294 O   0  0  0  0  0  0  0  0  0  0  0  0
   14.0848   -5.5746   25.4654 C   0  0  0  0  0  0  0  0  0  0  0  0
 10  1  1  0  0  0
  1  2  2  0  0  0
  2  3  1  0  0  0
  3  4  2  0  0  0
  4  5  1  0  0  0
  5  6  1  0  0  0
  6  7  1  0  0  0
  7  8  2  0  0  0
  8  9  1  0  0  0
  6 18  1  0  0  0
 18 19  1  0  0  0
 19 20  2  0  0  0
 19 21  1  0  0  0
 21 23  1  0  0  0
 23 24  1  0  0  0
 24 25  2  0  0  0
 25 26  1  0  0  0
 26 30  1  0  0  0
 30 31  1  0  0  0
 26 27  2  0  0  0
 27 32  1  0  0  0
 32 33  1  0  0  0
 27 28  1  0  0  0
 28 29  2  0  0  0
 21 22  1  0  0  0
 10 11  1  0  0  0
 11 12  1  0  0  0
 12 13  2  0  0  0
 13 14  1  0  0  0
 14 15  2  0  0  0
 15 16  1  0  0  0
 16 17  2  0  0  0
  9  1  1  0  0  0
 29 24  1  0  0  0
 17 12  1  0  0  0
  9  5  2  0  0  0
M  END
>  <minimizedAffinity>
-6.15504

>  <minimizedRMSD>
1.88764

$$$$
CHEMBL1368784 CSC046956312 MCULE-3098152006 MolPort-002-901-329 PubChem-2812649 ZINC000001032943 ZINC01032943


 28 29  0  0  0  0  0  0  0  0999 V2000
   16.4726   -8.5487   16.4191 S   0  0  0  0  0  0  0  0  0  0  0  0
   17.8539   -8.7162   16.9890 O   0  0  0  0  0  0  0  0  0  0  0  0
   16.4985   -7.4962   15.3461 O   0  0  0  0  0  0  0  0  0  0  0  0
   15.3806   -8.0360   17.6914 C   0  0  0  0  0  0  0  0  0  0  0  0
   14.0997   -7.5804   17.3681 C   0  0  0  0  0  0  0  0  0  0  0  0
   13.2235   -7.1620   18.3740 C   0  0  0  0  0  0  0  0  0  0  0  0
   11.6238   -6.5995   17.9190 Cl  0  0  0  0  0  0  0  0  0  0  0  0
   13.6270   -7.1948   19.7205 C   0  0  0  0  0  0  0  0  0  0  0  0
   14.9166   -7.6507   20.0354 C   0  0  0  0  0  0  0  0  0  0  0  0
   15.7888   -8.0680   19.0274 C   0  0  0  0  0  0  0  0  0  0  0  0
   12.7155   -6.7617   20.7427 N   0  0  0  0  0  0  0  0  0  0  0  0
   12.8697   -5.6318   21.6107 C   0  0  0  0  0  0  0  0  0  0  0  0
   11.8146   -5.3374   22.6144 C   0  0  0  0  0  0  0  0  0  0  0  0
   13.8804   -4.8841   21.5403 O   0  0  0  0  0  0  0  0  0  0  0  0
   11.8982   -7.2980   20.8595 H   0  0  0  0  0  0  0  0  0  0  0  0
   15.9209  -10.0785   15.7877 N   0  0  0  0  0  0  0  0  0  0  0  0
   16.4150  -10.8287   16.2709 H   0  0  0  0  0  0  0  0  0  0  0  0
   17.7149   -9.6294   10.4580 C   0  0  0  0  0  0  0  0  0  0  0  0
   18.9366   -9.8492   10.2289 O   0  0  0  0  0  0  0  0  0  0  0  0
   17.2464   -9.5188   11.8076 N   0  0  0  0  0  0  0  0  0  0  0  0
   15.8300   -9.2348   12.0578 C   0  0  0  0  0  0  0  0  0  0  0  0
   15.5473   -9.0570   13.5483 C   0  0  0  0  0  0  0  0  0  0  0  0
   16.1575  -10.2122   14.3474 C   0  0  0  0  0  0  0  0  0  0  0  0
   17.6221  -10.5418   14.0063 C   0  0  0  0  0  0  0  0  0  0  0  0
   18.1903   -9.6293   12.9203 C   0  0  0  0  0  0  0  0  0  0  0  0
   16.8150   -9.4949    9.3972 O   0  0  0  0  0  0  0  0  0  0  0  0
   17.6823   -8.4231    7.4364 C   0  0  0  0  0  0  0  0  0  0  0  0
   17.2019   -9.7216    8.0501 C   0  0  0  0  0  0  0  0  0  0  0  0
 27 28  1  0  0  0
 28 26  1  0  0  0
 26 18  1  0  0  0
 18 19  2  0  0  0
 18 20  1  0  0  0
 20 21  1  0  0  0
 21 22  1  0  0  0
 22 23  1  0  0  0
 23 24  1  0  0  0
 23 16  1  0  0  0
 24 25  1  0  0  0
 25 20  1  0  0  0
 16  1  1  0  0  0
  1  2  2  0  0  0
  1  3  2  0  0  0
  1  4  1  0  0  0
  4  5  2  0  0  0
  5  6  1  0  0  0
  6  7  1  0  0  0
  6  8  2  0  0  0
  8 11  1  0  0  0
  8  9  1  0  0  0
 11 12  1  0  0  0
 12 13  1  0  0  0
 12 14  2  0  0  0
  9 10  2  0  0  0
 10  4  1  0  0  0
 16 17  1  0  0  0
 11 15  1  0  0  0
M  END
>  <minimizedAffinity>
-6.14429

>  <minimizedRMSD>
1.53063

$$$$
CHEMBL3126621 PubChem-76310994


 39 41  0  0  0  0  0  0  0  0999 V2000
   12.8999   -6.1087   19.4780 C   0  0  0  0  0  0  0  0  0  0  0  0
   13.6256   -6.7672   18.4805 C   0  0  0  0  0  0  0  0  0  0  0  0
   14.7197   -7.5753   18.8008 C   0  0  0  0  0  0  0  0  0  0  0  0
   15.0827   -7.7353   20.1402 C   0  0  0  0  0  0  0  0  0  0  0  0
   14.3750   -7.0829   21.1512 C   0  0  0  0  0  0  0  0  0  0  0  0
   14.8079   -7.2754   22.5640 C   0  0  0  0  0  0  0  0  0  0  0  0
   13.2915   -6.2418   20.8376 C   0  0  0  0  0  0  0  0  0  0  0  0
   15.4719   -8.2616   17.7391 C   0  0  0  0  0  0  0  0  0  0  0  0
   16.3439   -9.2644   17.9667 N   0  0  0  0  0  0  0  0  0  0  0  0
   16.7887   -9.5927   16.7925 O   0  0  0  0  0  0  0  0  0  0  0  0
   16.2267   -8.8377   15.8802 C   0  0  0  0  0  0  0  0  0  0  0  0
   15.3657   -7.9571   16.4278 N   0  0  0  0  0  0  0  0  0  0  0  0
   16.5001   -8.9390   14.4405 C   0  0  0  0  0  0  0  0  0  0  0  0
   15.8024   -8.1501   13.5235 C   0  0  0  0  0  0  0  0  0  0  0  0
   16.0630   -8.2540   12.1937 N   0  0  0  0  0  0  0  0  0  0  0  0
   16.9935   -9.1159   11.6983 C   0  0  0  0  0  0  0  0  0  0  0  0
   17.7260   -9.9268   12.5977 C   0  0  0  0  0  0  0  0  0  0  0  0
   18.7654  -10.8987   12.1528 C   0  0  0  0  0  0  0  0  0  0  0  0
   17.4652   -9.8284   13.9653 C   0  0  0  0  0  0  0  0  0  0  0  0
   17.2045   -9.1177   10.2062 C   0  0  0  0  0  0  0  0  0  0  0  0
   18.1645   -8.0269    9.7221 C   0  0  0  0  0  0  0  0  0  0  0  0
   19.6220   -8.4502    9.7857 C   0  0  0  0  0  0  0  0  0  0  0  0
   17.4578  -10.4974    9.6048 C   0  0  0  0  0  0  0  0  0  0  0  0
   17.0445  -10.5247    8.1458 C   0  0  0  0  0  0  0  0  0  0  0  0
   10.4309   -6.0928   19.3255 C   0  0  0  0  0  0  0  0  0  0  0  0
   11.7073   -5.3230   19.0382 C   0  0  0  0  0  0  0  0  0  0  0  0
   12.6475   -5.5804   21.8969 O   0  0  0  0  0  0  0  0  0  0  0  0
   12.8142   -4.2038   22.2075 C   0  0  0  0  0  0  0  0  0  0  0  0
   12.9247   -4.0252   23.7081 C   0  0  0  0  0  0  0  0  0  0  0  0
   12.4879   -5.1847   24.3511 O   0  0  0  0  0  0  0  0  0  0  0  0
   13.0366   -5.9347   24.0733 H   0  0  0  0  0  0  0  0  0  0  0  0
   14.3714   -3.7518   24.0724 C   0  0  0  0  0  0  0  0  0  0  0  0
   14.4335   -2.8832   25.2373 N   0  0  0  0  0  0  0  0  0  0  0  0
   14.4256   -3.4019   26.5671 C   0  0  0  0  0  0  0  0  0  0  0  0
   14.3502   -4.6428   26.7720 O   0  0  0  0  0  0  0  0  0  0  0  0
   14.4825   -1.9089   25.1047 H   0  0  0  0  0  0  0  0  0  0  0  0
   14.4668   -2.4662   27.7218 C   0  0  0  0  0  0  0  0  0  0  0  0
   13.3612   -1.6177   27.6765 O   0  0  0  0  0  0  0  0  0  0  0  0
   13.3772   -1.1096   26.8504 H   0  0  0  0  0  0  0  0  0  0  0  0
 25 26  1  0  0  0
 26  1  1  0  0  0
  1  2  2  0  0  0
  2  3  1  0  0  0
  3  8  1  0  0  0
  3  4  2  0  0  0
  8  9  2  0  0  0
  9 10  1  0  0  0
 10 11  1  0  0  0
 11 13  1  0  0  0
 11 12  2  0  0  0
 13 14  2  0  0  0
 14 15  1  0  0  0
 15 16  2  0  0  0
 16 20  1  0  0  0
 16 17  1  0  0  0
 20 21  1  0  0  0
 20 23  1  0  0  0
 21 22  1  0  0  0
 23 24  1  0  0  0
 17 18  1  0  0  0
 17 19  2  0  0  0
 19 13  1  0  0  0
 12  8  1  0  0  0
  4  5  1  0  0  0
  5  6  1  0  0  0
  5  7  2  0  0  0
  7 27  1  0  0  0
  7  1  1  0  0  0
 27 28  1  0  0  0
 29 28  1  0  0  0
 29 30  1  0  0  0
 29 32  1  0  0  0
 32 33  1  0  0  0
 33 34  1  0  0  0
 34 35  2  0  0  0
 34 37  1  0  0  0
 37 38  1  0  0  0
 30 31  1  0  0  0
 33 36  1  0  0  0
 38 39  1  0  0  0
M  END
>  <minimizedAffinity>
-6.14021

>  <minimizedRMSD>
1.97554

$$$$
CHEMBL2311758 CHEMBL2365384 PubChem-71508617 PubChem-71508618


 35 39  0  0  0  0  0  0  0  0999 V2000
   17.1452   -9.2727   17.4223 C   0  0  0  0  0  0  0  0  0  0  0  0
   18.2914   -8.5909   17.0092 O   0  0  0  0  0  0  0  0  0  0  0  0
   18.0777   -8.0319   16.2459 H   0  0  0  0  0  0  0  0  0  0  0  0
   16.6304  -10.1400   16.2868 C   0  0  0  0  0  0  0  0  0  0  0  0
   17.0597   -9.5668   12.1974 N   0  0  0  0  0  0  0  0  0  0  0  0
   16.2635   -8.5906   12.9402 C   0  0  0  0  0  0  0  0  0  0  0  0
   15.8770   -9.1718   14.2974 C   0  0  0  0  0  0  0  0  0  0  0  0
   17.0756   -9.6115   15.0079 N   0  0  0  0  0  0  0  0  0  0  0  0
   17.6620  -10.7259   14.2644 C   0  0  0  0  0  0  0  0  0  0  0  0
   18.1498  -10.2427   12.9005 C   0  0  0  0  0  0  0  0  0  0  0  0
   16.1591  -10.1493    9.9473 C   0  0  0  0  0  0  0  0  0  0  0  0
   16.3376  -10.1553    8.5590 C   0  0  0  0  0  0  0  0  0  0  0  0
   17.4134   -9.4866    7.9729 C   0  0  0  0  0  0  0  0  0  0  0  0
   18.3297   -8.8054    8.7730 C   0  0  0  0  0  0  0  0  0  0  0  0
   18.1825   -8.8117   10.1606 C   0  0  0  0  0  0  0  0  0  0  0  0
   17.1123   -9.4892   10.7665 C   0  0  0  0  0  0  0  0  0  0  0  0
   13.8053  -10.1249   10.7473 C   0  0  0  0  0  0  0  0  0  0  0  0
   15.0228  -10.7942   10.4517 O   0  0  0  0  0  0  0  0  0  0  0  0
   16.0716   -8.2750   17.8097 C   0  0  0  0  0  0  0  0  0  0  0  0
   15.5739   -8.5755   19.1072 O   0  0  0  0  0  0  0  0  0  0  0  0
   15.4133   -7.6357   20.1368 C   0  0  0  0  0  0  0  0  0  0  0  0
   16.5258   -7.3755   20.9441 C   0  0  0  0  0  0  0  0  0  0  0  0
   16.4554   -6.4560   21.9909 C   0  0  0  0  0  0  0  0  0  0  0  0
   15.2652   -5.7772   22.2458 C   0  0  0  0  0  0  0  0  0  0  0  0
   14.1352   -6.0117   21.4525 C   0  0  0  0  0  0  0  0  0  0  0  0
   14.2018   -6.9447   20.3871 C   0  0  0  0  0  0  0  0  0  0  0  0
   13.1283   -7.1571   19.6290 O   0  0  0  0  0  0  0  0  0  0  0  0
   11.9718   -6.5331   19.8198 C   0  0  0  0  0  0  0  0  0  0  0  0
   10.8894   -6.8103   18.9797 C   0  0  0  0  0  0  0  0  0  0  0  0
    9.6673   -6.1595   19.1717 C   0  0  0  0  0  0  0  0  0  0  0  0
    9.5223   -5.2287   20.2044 C   0  0  0  0  0  0  0  0  0  0  0  0
   10.5992   -4.9448   21.0492 C   0  0  0  0  0  0  0  0  0  0  0  0
   11.8291   -5.5932   20.8639 C   0  0  0  0  0  0  0  0  0  0  0  0
   12.9305   -5.3328   21.6889 C   0  0  0  0  0  0  0  0  0  0  0  0
   12.8399   -4.4969   22.6314 O   0  0  0  0  0  0  0  0  0  0  0  0
 17 18  1  0  0  0
 18 11  1  0  0  0
 11 12  2  0  0  0
 12 13  1  0  0  0
 13 14  2  0  0  0
 14 15  1  0  0  0
 15 16  2  0  0  0
 16  5  1  0  0  0
 16 11  1  0  0  0
  5  6  1  0  0  0
  6  7  1  0  0  0
  7  8  1  0  0  0
  8  4  1  0  0  0
  8  9  1  0  0  0
  1  4  1  0  0  0
  1  2  1  0  0  0
  1 19  1  0  0  0
 19 20  1  0  0  0
 20 21  1  0  0  0
 21 22  2  0  0  0
 22 23  1  0  0  0
 23 24  2  0  0  0
 24 25  1  0  0  0
 25 26  2  0  0  0
 26 27  1  0  0  0
 26 21  1  0  0  0
 27 28  1  0  0  0
 28 29  2  0  0  0
 29 30  1  0  0  0
 30 31  2  0  0  0
 31 32  1  0  0  0
 32 33  2  0  0  0
 33 34  1  0  0  0
 33 28  1  0  0  0
 34 35  2  0  0  0
 34 25  1  0  0  0
  9 10  1  0  0  0
 10  5  1  0  0  0
  2  3  1  0  0  0
M  END
>  <minimizedAffinity>
-6.11821

>  <minimizedRMSD>
1.64508

$$$$
CHEMBL1523976 9130450 LN00730335 MCULE-4596926637 MolPort-002-662-750 PubChem-17582120 ZINC000009130450


 37 40  0  0  0  0  0  0  0  0999 V2000
   16.5061   -9.5764   15.8723 C   0  0  0  0  0  0  0  0  0  0  0  0
   17.6502   -9.7879   11.5717 C   0  0  0  0  0  0  0  0  0  0  0  0
   18.7577   -9.3027   10.9506 N   0  0  0  0  0  0  0  0  0  0  0  0
   18.3151   -9.1664    9.6790 C   0  0  0  0  0  0  0  0  0  0  0  0
   16.9848   -9.4905    9.5916 C   0  0  0  0  0  0  0  0  0  0  0  0
   16.2299   -9.2648    8.4444 C   0  0  0  0  0  0  0  0  0  0  0  0
   16.9059   -8.7308    7.3319 C   0  0  0  0  0  0  0  0  0  0  0  0
   18.2820   -8.4152    7.4072 C   0  0  0  0  0  0  0  0  0  0  0  0
   19.0019   -8.6169    8.6006 C   0  0  0  0  0  0  0  0  0  0  0  0
   16.5901   -9.9243   10.7900 N   0  0  0  0  0  0  0  0  0  0  0  0
   15.3594   -9.7887   11.5391 C   0  0  0  0  0  0  0  0  0  0  0  0
   15.8517   -9.6431   13.0036 C   0  0  0  0  0  0  0  0  0  0  0  0
   17.3200   -9.6380   12.9384 N   0  0  0  0  0  0  0  0  0  0  0  0
   18.2316   -9.2871   13.9954 C   0  0  0  0  0  0  0  0  0  0  0  0
   19.4411   -9.0639   13.7244 O   0  0  0  0  0  0  0  0  0  0  0  0
   17.8083   -9.1709   15.3602 N   0  0  0  0  0  0  0  0  0  0  0  0
   18.4482   -8.7867   16.0021 H   0  0  0  0  0  0  0  0  0  0  0  0
   15.8938   -8.4787   16.6797 C   0  0  0  0  0  0  0  0  0  0  0  0
   15.9746   -8.4964   18.1089 N   0  0  0  0  0  0  0  0  0  0  0  0
   15.3263   -7.5243   16.0846 O   0  0  0  0  0  0  0  0  0  0  0  0
   16.4129   -9.2607   18.5482 H   0  0  0  0  0  0  0  0  0  0  0  0
   15.4346   -7.4295   18.9383 C   0  0  0  0  0  0  0  0  0  0  0  0
   14.3249   -7.9659   19.8286 C   0  0  0  0  0  0  0  0  0  0  0  0
   14.1171   -7.0656   20.9973 C   0  0  0  0  0  0  0  0  0  0  0  0
   14.5775   -7.4267   22.2640 C   0  0  0  0  0  0  0  0  0  0  0  0
   14.3765   -6.5714   23.3476 C   0  0  0  0  0  0  0  0  0  0  0  0
   13.7127   -5.3486   23.1890 C   0  0  0  0  0  0  0  0  0  0  0  0
   13.2313   -4.9845   21.9066 C   0  0  0  0  0  0  0  0  0  0  0  0
   13.4417   -5.8559   20.8241 C   0  0  0  0  0  0  0  0  0  0  0  0
   12.5508   -3.7762   21.7157 O   0  0  0  0  0  0  0  0  0  0  0  0
   11.1368   -3.6633   21.8011 C   0  0  0  0  0  0  0  0  0  0  0  0
   13.5599   -4.5523   24.3346 O   0  0  0  0  0  0  0  0  0  0  0  0
   12.4080   -4.5373   25.1648 C   0  0  0  0  0  0  0  0  0  0  0  0
   16.5745  -10.9031   16.6381 C   0  0  0  0  0  0  0  0  0  0  0  0
   17.9709  -11.5110   16.6791 C   0  0  0  0  0  0  0  0  0  0  0  0
   18.0436  -12.7122   15.7580 C   0  0  0  0  0  0  0  0  0  0  0  0
   18.2772  -11.9552   18.0929 C   0  0  0  0  0  0  0  0  0  0  0  0
  2  3  2  0  0  0
  3  4  1  0  0  0
  4  5  2  0  0  0
  5  6  1  0  0  0
  6  7  2  0  0  0
  7  8  1  0  0  0
  8  9  2  0  0  0
  5 10  1  0  0  0
 10 11  1  0  0  0
 11 12  1  0  0  0
 12 13  1  0  0  0
 13 14  1  0  0  0
 14 15  2  0  0  0
 14 16  1  0  0  0
  1 16  1  0  0  0
  1 34  1  0  0  0
 34 35  1  0  0  0
 35 36  1  0  0  0
 35 37  1  0  0  0
  1 18  1  0  0  0
 18 19  1  0  0  0
 19 22  1  0  0  0
 22 23  1  0  0  0
 23 24  1  0  0  0
 24 25  2  0  0  0
 25 26  1  0  0  0
 26 27  2  0  0  0
 27 28  1  0  0  0
 28 30  1  0  0  0
 30 31  1  0  0  0
 28 29  2  0  0  0
 27 32  1  0  0  0
 32 33  1  0  0  0
 18 20  2  0  0  0
 10  2  1  0  0  0
 29 24  1  0  0  0
 13  2  1  0  0  0
  9  4  1  0  0  0
 16 17  1  0  0  0
 19 21  1  0  0  0
M  END
>  <minimizedAffinity>
-6.08482

>  <minimizedRMSD>
1.61243

$$$$
CHEMBL4573507 PubChem-135335145


 32 35  0  0  0  0  0  0  0  0999 V2000
   16.6784   -9.1589   14.5254 C   0  0  0  0  0  0  0  0  0  0  0  0
   15.6945   -8.3553   15.0343 N   0  0  0  0  0  0  0  0  0  0  0  0
   15.5452   -8.2614   16.3780 C   0  0  0  0  0  0  0  0  0  0  0  0
   14.6227   -7.5114   17.0025 N   0  0  0  0  0  0  0  0  0  0  0  0
   14.8790   -7.7529   18.3143 C   0  0  0  0  0  0  0  0  0  0  0  0
   15.9471   -8.6406   18.4594 C   0  0  0  0  0  0  0  0  0  0  0  0
   16.3391   -8.9374   17.2136 N   0  0  0  0  0  0  0  0  0  0  0  0
   17.3323   -9.7506   16.7876 C   0  0  0  0  0  0  0  0  0  0  0  0
   17.5216   -9.8767   15.4058 C   0  0  0  0  0  0  0  0  0  0  0  0
   14.1210   -7.1502   19.4368 C   0  0  0  0  0  0  0  0  0  0  0  0
   14.7212   -7.0997   20.7038 C   0  0  0  0  0  0  0  0  0  0  0  0
   14.0555   -6.5442   21.7973 C   0  0  0  0  0  0  0  0  0  0  0  0
   12.7653   -6.0237   21.6425 C   0  0  0  0  0  0  0  0  0  0  0  0
   12.1570   -6.0695   20.3804 C   0  0  0  0  0  0  0  0  0  0  0  0
   12.8185   -6.6265   19.2737 C   0  0  0  0  0  0  0  0  0  0  0  0
   14.8597   -6.5106   23.3561 Cl  0  0  0  0  0  0  0  0  0  0  0  0
   12.1935   -6.6626   18.0212 O   0  0  0  0  0  0  0  0  0  0  0  0
   10.9872   -7.3746   17.7787 C   0  0  0  0  0  0  0  0  0  0  0  0
   12.1066   -5.4689   22.7454 O   0  0  0  0  0  0  0  0  0  0  0  0
   10.9128   -4.7072   22.6256 C   0  0  0  0  0  0  0  0  0  0  0  0
   16.6087  -10.6120   10.6234 N   0  0  0  0  0  0  0  0  0  0  0  0
   17.6533  -10.9926   11.5882 C   0  0  0  0  0  0  0  0  0  0  0  0
   18.0493   -9.8429   12.5136 C   0  0  0  0  0  0  0  0  0  0  0  0
   16.8480   -9.2689   13.1032 N   0  0  0  0  0  0  0  0  0  0  0  0
   15.8046   -8.8330   12.1873 C   0  0  0  0  0  0  0  0  0  0  0  0
   15.4350   -9.9891   11.2571 C   0  0  0  0  0  0  0  0  0  0  0  0
   17.2473   -9.6253    9.3356 S   0  0  0  0  0  0  0  0  0  0  0  0
   16.1794   -8.6723    8.8757 O   0  0  0  0  0  0  0  0  0  0  0  0
   17.6310  -10.5142    8.1856 O   0  0  0  0  0  0  0  0  0  0  0  0
   18.6776   -8.6865    9.8565 C   0  0  0  0  0  0  0  0  0  0  0  0
   19.3597   -7.6317    7.7036 C   0  0  0  0  0  0  0  0  0  0  0  0
   18.7891   -7.3821    9.0860 C   0  0  0  0  0  0  0  0  0  0  0  0
 31 32  1  0  0  0
 32 30  1  0  0  0
 30 27  1  0  0  0
 27 28  2  0  0  0
 27 29  2  0  0  0
 27 21  1  0  0  0
 21 22  1  0  0  0
 22 23  1  0  0  0
 23 24  1  0  0  0
 24 25  1  0  0  0
 25 26  1  0  0  0
 24  1  1  0  0  0
  1  2  2  0  0  0
  2  3  1  0  0  0
  3  4  2  0  0  0
  4  5  1  0  0  0
  5  6  2  0  0  0
  6  7  1  0  0  0
  7  8  1  0  0  0
  8  9  2  0  0  0
  5 10  1  0  0  0
 10 11  2  0  0  0
 11 12  1  0  0  0
 12 13  2  0  0  0
 13 14  1  0  0  0
 14 15  2  0  0  0
 15 17  1  0  0  0
 17 18  1  0  0  0
 13 19  1  0  0  0
 19 20  1  0  0  0
 12 16  1  0  0  0
 26 21  1  0  0  0
  9  1  1  0  0  0
  7  3  1  0  0  0
 15 10  1  0  0  0
M  END
>  <minimizedAffinity>
-6.07911

>  <minimizedRMSD>
0.80906

$$$$
CHEMBL3806235 PubChem-118540215


 36 40  0  0  0  0  0  0  0  0999 V2000
   16.3064   -8.7868   16.4370 N   0  0  0  0  0  0  0  0  0  0  0  0
   15.3530   -7.9907   17.1510 C   0  0  0  0  0  0  0  0  0  0  0  0
   14.5219   -7.2732   16.5320 O   0  0  0  0  0  0  0  0  0  0  0  0
   15.3639   -8.0267   18.5836 N   0  0  0  0  0  0  0  0  0  0  0  0
   16.9259   -9.3237   16.9821 H   0  0  0  0  0  0  0  0  0  0  0  0
   16.0398   -8.6053   19.0051 H   0  0  0  0  0  0  0  0  0  0  0  0
   17.4337   -9.7454   14.4564 C   0  0  0  0  0  0  0  0  0  0  0  0
   16.4564   -8.8866   15.0115 C   0  0  0  0  0  0  0  0  0  0  0  0
   15.6472   -8.1384   14.1281 C   0  0  0  0  0  0  0  0  0  0  0  0
   15.8032   -8.2387   12.7775 N   0  0  0  0  0  0  0  0  0  0  0  0
   16.7531   -9.0714   12.2915 C   0  0  0  0  0  0  0  0  0  0  0  0
   17.0609   -9.3060   10.9685 C   0  0  0  0  0  0  0  0  0  0  0  0
   18.0971  -10.2336   11.0932 C   0  0  0  0  0  0  0  0  0  0  0  0
   18.3715  -10.5172   12.3870 N   0  0  0  0  0  0  0  0  0  0  0  0
   17.5340   -9.7917   13.1025 N   0  0  0  0  0  0  0  0  0  0  0  0
   18.9525  -10.9560    9.7478 Cl  0  0  0  0  0  0  0  0  0  0  0  0
   18.2416  -12.7108   16.3434 C   0  0  0  0  0  0  0  0  0  0  0  0
   18.2038  -12.0573   14.9954 C   0  0  0  0  0  0  0  0  0  0  0  0
   18.3508  -10.5831   15.3043 C   0  0  0  0  0  0  0  0  0  0  0  0
   18.1026  -10.3727   16.6693 O   0  0  0  0  0  0  0  0  0  0  0  0
   18.4870  -11.5657   17.2980 C   0  0  0  0  0  0  0  0  0  0  0  0
   14.4927   -7.3077   19.4670 C   0  0  0  0  0  0  0  0  0  0  0  0
   14.8694   -7.1312   20.7944 C   0  0  0  0  0  0  0  0  0  0  0  0
   14.0658   -6.4476   21.6489 N   0  0  0  0  0  0  0  0  0  0  0  0
   12.8745   -5.9061   21.2670 C   0  0  0  0  0  0  0  0  0  0  0  0
   12.4312   -6.0894   19.9283 C   0  0  0  0  0  0  0  0  0  0  0  0
   13.2685   -6.7849   19.0455 C   0  0  0  0  0  0  0  0  0  0  0  0
   12.1167   -5.1808   22.2515 N   0  0  0  0  0  0  0  0  0  0  0  0
   11.7192   -5.7179   23.3917 N   0  0  0  0  0  0  0  0  0  0  0  0
   11.1115   -4.7417   24.0919 C   0  0  0  0  0  0  0  0  0  0  0  0
   11.1737   -3.5875   23.3296 C   0  0  0  0  0  0  0  0  0  0  0  0
   11.8176   -3.8953   22.1882 N   0  0  0  0  0  0  0  0  0  0  0  0
   11.1021   -5.5923   19.4097 C   0  0  0  0  0  0  0  0  0  0  0  0
   10.7193   -6.2950   18.2785 F   0  0  0  0  0  0  0  0  0  0  0  0
   11.2013   -4.2547   19.0741 F   0  0  0  0  0  0  0  0  0  0  0  0
   10.1199   -5.7641   20.3688 F   0  0  0  0  0  0  0  0  0  0  0  0
 17 18  1  0  0  0
 18 19  1  0  0  0
 19 20  1  0  0  0
 20 21  1  0  0  0
 19  7  1  0  0  0
  7  8  2  0  0  0
  8  9  1  0  0  0
  9 10  2  0  0  0
 10 11  1  0  0  0
 11 12  2  0  0  0
 12 13  1  0  0  0
 13 14  2  0  0  0
 14 15  1  0  0  0
 13 16  1  0  0  0
  8  1  1  0  0  0
  1  2  1  0  0  0
  2  3  2  0  0  0
  2  4  1  0  0  0
  4 22  1  0  0  0
 22 23  2  0  0  0
 23 24  1  0  0  0
 24 25  2  0  0  0
 25 26  1  0  0  0
 26 27  2  0  0  0
 26 33  1  0  0  0
 33 34  1  0  0  0
 33 35  1  0  0  0
 33 36  1  0  0  0
 25 28  1  0  0  0
 28 29  1  0  0  0
 29 30  2  0  0  0
 30 31  1  0  0  0
 31 32  2  0  0  0
 21 17  1  0  0  0
 15  7  1  0  0  0
 15 11  1  0  0  0
 27 22  1  0  0  0
 32 28  1  0  0  0
  1  5  1  0  0  0
  4  6  1  0  0  0
M  END
>  <minimizedAffinity>
-6.07836

>  <minimizedRMSD>
1.79742

$$$$
CHEMBL4919960 514797526 PubChem-164633406


 27 29  0  0  0  0  0  0  0  0999 V2000
   15.8430   -8.0411   16.6549 N   0  0  0  0  0  0  0  0  0  0  0  0
   17.2294   -8.4743   16.5908 C   0  0  0  0  0  0  0  0  0  0  0  0
   17.6153   -8.5541   15.1307 C   0  0  0  0  0  0  0  0  0  0  0  0
   16.3073   -8.6338   14.3743 C   0  0  0  0  0  0  0  0  0  0  0  0
   16.1968   -7.5523   13.4987 O   0  0  0  0  0  0  0  0  0  0  0  0
   15.2279   -8.5353   15.4306 C   0  0  0  0  0  0  0  0  0  0  0  0
   16.8878   -7.6133   12.8206 H   0  0  0  0  0  0  0  0  0  0  0  0
   15.2281   -8.7502   17.7660 C   0  0  0  0  0  0  0  0  0  0  0  0
   13.2745   -5.9285   20.3677 C   0  0  0  0  0  0  0  0  0  0  0  0
   14.3309   -6.7273   20.8324 C   0  0  0  0  0  0  0  0  0  0  0  0
   14.9617   -7.6471   19.9934 C   0  0  0  0  0  0  0  0  0  0  0  0
   14.5405   -7.7866   18.6712 C   0  0  0  0  0  0  0  0  0  0  0  0
   13.4969   -6.9959   18.1876 C   0  0  0  0  0  0  0  0  0  0  0  0
   12.8568   -6.0705   19.0190 C   0  0  0  0  0  0  0  0  0  0  0  0
   11.5548   -5.1321   18.2999 Cl  0  0  0  0  0  0  0  0  0  0  0  0
   11.7008   -5.3170   22.0661 O   0  0  0  0  0  0  0  0  0  0  0  0
   12.6605   -4.9784   21.3260 C   0  0  0  0  0  0  0  0  0  0  0  0
   13.1489   -3.6797   21.4194 O   0  0  0  0  0  0  0  0  0  0  0  0
   13.8629   -3.4075   20.8771 H   0  0  0  0  0  0  0  0  0  0  0  0
   16.1630   -9.9606   13.6254 C   0  0  0  0  0  0  0  0  0  0  0  0
   16.4517   -9.8564   12.1594 C   0  0  0  0  0  0  0  0  0  0  0  0
   17.7615   -9.6125   11.7318 C   0  0  0  0  0  0  0  0  0  0  0  0
   18.0507   -9.5328   10.3662 C   0  0  0  0  0  0  0  0  0  0  0  0
   17.0313   -9.7031    9.4246 C   0  0  0  0  0  0  0  0  0  0  0  0
   17.3116   -9.6254    8.1017 F   0  0  0  0  0  0  0  0  0  0  0  0
   15.7236   -9.9581    9.8481 C   0  0  0  0  0  0  0  0  0  0  0  0
   15.4344  -10.0378   11.2136 C   0  0  0  0  0  0  0  0  0  0  0  0
 16 17  2  0  0  0
 17 18  1  0  0  0
 17  9  1  0  0  0
  9 10  2  0  0  0
 10 11  1  0  0  0
 11 12  2  0  0  0
 12  8  1  0  0  0
  8  1  1  0  0  0
  1  2  1  0  0  0
  2  3  1  0  0  0
  3  4  1  0  0  0
  4  5  1  0  0  0
  4 20  1  0  0  0
 20 21  1  0  0  0
 21 22  2  0  0  0
 22 23  1  0  0  0
 23 24  2  0  0  0
 24 25  1  0  0  0
 24 26  1  0  0  0
 26 27  2  0  0  0
  4  6  1  0  0  0
 12 13  1  0  0  0
 13 14  2  0  0  0
 14 15  1  0  0  0
 14  9  1  0  0  0
  6  1  1  0  0  0
 27 21  1  0  0  0
 18 19  1  0  0  0
  5  7  1  0  0  0
M  END
>  <minimizedAffinity>
-6.07170

>  <minimizedRMSD>
1.59392

$$$$
CHEMBL3706591 PubChem-10071301


 34 37  0  0  0  0  0  0  0  0999 V2000
   16.4053   -8.3502   17.8317 N   0  0  0  0  0  0  0  0  0  0  0  0
   15.3077   -7.5899   18.3624 C   0  0  0  0  0  0  0  0  0  0  0  0
   14.3103   -7.3282   17.6371 O   0  0  0  0  0  0  0  0  0  0  0  0
   17.1407   -8.5535   18.4538 H   0  0  0  0  0  0  0  0  0  0  0  0
   15.3593   -7.1241   19.7717 C   0  0  0  0  0  0  0  0  0  0  0  0
   16.5774   -7.2329   20.4592 C   0  0  0  0  0  0  0  0  0  0  0  0
   16.6991   -6.8146   21.7836 C   0  0  0  0  0  0  0  0  0  0  0  0
   15.5997   -6.2777   22.4496 C   0  0  0  0  0  0  0  0  0  0  0  0
   14.3668   -6.1548   21.7966 C   0  0  0  0  0  0  0  0  0  0  0  0
   14.2392   -6.5789   20.4490 C   0  0  0  0  0  0  0  0  0  0  0  0
   13.0347   -6.4586   19.8244 N   0  0  0  0  0  0  0  0  0  0  0  0
   11.9424   -5.9440   20.4448 C   0  0  0  0  0  0  0  0  0  0  0  0
   10.7319   -5.8456   19.7529 C   0  0  0  0  0  0  0  0  0  0  0  0
    9.6034   -5.3170   20.3860 C   0  0  0  0  0  0  0  0  0  0  0  0
    9.6813   -4.8848   21.7129 C   0  0  0  0  0  0  0  0  0  0  0  0
   10.8884   -4.9798   22.4115 C   0  0  0  0  0  0  0  0  0  0  0  0
   12.0273   -5.5090   21.7855 C   0  0  0  0  0  0  0  0  0  0  0  0
   13.2515   -5.6171   22.4629 C   0  0  0  0  0  0  0  0  0  0  0  0
   13.3498   -5.2343   23.6628 O   0  0  0  0  0  0  0  0  0  0  0  0
   12.9534   -6.7555   18.8892 H   0  0  0  0  0  0  0  0  0  0  0  0
   16.8563   -9.8824   13.8969 C   0  0  0  0  0  0  0  0  0  0  0  0
   16.3052   -8.6054   14.0871 C   0  0  0  0  0  0  0  0  0  0  0  0
   16.1512   -8.0908   15.3770 C   0  0  0  0  0  0  0  0  0  0  0  0
   16.5444   -8.8446   16.4926 C   0  0  0  0  0  0  0  0  0  0  0  0
   17.0957  -10.1152   16.2991 C   0  0  0  0  0  0  0  0  0  0  0  0
   17.2498  -10.6320   15.0094 C   0  0  0  0  0  0  0  0  0  0  0  0
   17.0188  -10.4280   12.6205 O   0  0  0  0  0  0  0  0  0  0  0  0
   17.3034   -9.6329   11.4780 C   0  0  0  0  0  0  0  0  0  0  0  0
   17.3640  -10.5234   10.2392 C   0  0  0  0  0  0  0  0  0  0  0  0
   16.2353  -10.3305    9.3164 N   0  0  0  0  0  0  0  0  0  0  0  0
   14.1531  -10.2301   10.5858 C   0  0  0  0  0  0  0  0  0  0  0  0
   15.2152   -9.4307    9.8555 C   0  0  0  0  0  0  0  0  0  0  0  0
   16.6854   -9.9129    7.9819 C   0  0  0  0  0  0  0  0  0  0  0  0
   17.5406   -8.6478    7.9893 C   0  0  0  0  0  0  0  0  0  0  0  0
 31 32  1  0  0  0
 32 30  1  0  0  0
 30 33  1  0  0  0
 30 29  1  0  0  0
 33 34  1  0  0  0
 29 28  1  0  0  0
 28 27  1  0  0  0
 27 21  1  0  0  0
 21 22  2  0  0  0
 22 23  1  0  0  0
 23 24  2  0  0  0
 24 25  1  0  0  0
 24  1  1  0  0  0
 25 26  2  0  0  0
 26 21  1  0  0  0
  1  2  1  0  0  0
  2  3  2  0  0  0
  2  5  1  0  0  0
  5  6  2  0  0  0
  6  7  1  0  0  0
  7  8  2  0  0  0
  8  9  1  0  0  0
  9 10  2  0  0  0
 10 11  1  0  0  0
 10  5  1  0  0  0
 11 12  1  0  0  0
 12 13  2  0  0  0
 13 14  1  0  0  0
 14 15  2  0  0  0
 15 16  1  0  0  0
 16 17  2  0  0  0
 17 18  1  0  0  0
 17 12  1  0  0  0
 18 19  2  0  0  0
 18  9  1  0  0  0
  1  4  1  0  0  0
 11 20  1  0  0  0
M  END
>  <minimizedAffinity>
-6.06870

>  <minimizedRMSD>
1.67896

$$$$
CHEMBL4097359 PubChem-117852221


 33 37  0  0  0  0  0  0  0  0999 V2000
   16.7166   -9.3480   13.5587 C   0  0  0  0  0  0  0  0  0  0  0  0
   15.3504   -9.7577   13.0093 C   0  0  0  0  0  0  0  0  0  0  0  0
   15.4057   -9.5790   11.5042 C   0  0  0  0  0  0  0  0  0  0  0  0
   16.7973   -9.3301   11.1871 N   0  0  0  0  0  0  0  0  0  0  0  0
   17.6432   -9.2413   12.3614 C   0  0  0  0  0  0  0  0  0  0  0  0
   17.2439  -10.4294   14.5123 C   0  0  0  0  0  0  0  0  0  0  0  0
   16.8915  -10.1626   15.9792 C   0  0  0  0  0  0  0  0  0  0  0  0
   15.6618   -9.3817   16.0729 N   0  0  0  0  0  0  0  0  0  0  0  0
   15.9503   -8.0179   15.6254 C   0  0  0  0  0  0  0  0  0  0  0  0
   16.6180   -7.9749   14.2376 C   0  0  0  0  0  0  0  0  0  0  0  0
   17.2863   -9.1656    9.8467 C   0  0  0  0  0  0  0  0  0  0  0  0
   18.3911   -8.3453    9.5825 C   0  0  0  0  0  0  0  0  0  0  0  0
   18.8574   -8.1936    8.2760 C   0  0  0  0  0  0  0  0  0  0  0  0
   18.2106   -8.8680    7.2389 C   0  0  0  0  0  0  0  0  0  0  0  0
   17.1393   -9.6620    7.5063 N   0  0  0  0  0  0  0  0  0  0  0  0
   16.6695   -9.8230    8.7727 C   0  0  0  0  0  0  0  0  0  0  0  0
   18.6766   -8.7234    5.8891 C   0  0  0  0  0  0  0  0  0  0  0  0
   19.0522   -8.6071    4.8007 N   0  0  0  0  0  0  0  0  0  0  0  0
   15.3154   -9.2939   17.4816 C   0  0  0  0  0  0  0  0  0  0  0  0
   15.7799   -7.9618   18.0552 C   0  0  0  0  0  0  0  0  0  0  0  0
   17.0450   -8.0904   18.6325 O   0  0  0  0  0  0  0  0  0  0  0  0
   17.0027   -8.7235   19.3662 H   0  0  0  0  0  0  0  0  0  0  0  0
   14.7971   -7.4276   19.0548 C   0  0  0  0  0  0  0  0  0  0  0  0
   13.4978   -6.9777   18.6945 C   0  0  0  0  0  0  0  0  0  0  0  0
   12.6602   -6.4997   19.7080 C   0  0  0  0  0  0  0  0  0  0  0  0
   13.0810   -6.4685   21.0153 C   0  0  0  0  0  0  0  0  0  0  0  0
   14.3435   -6.9037   21.4038 C   0  0  0  0  0  0  0  0  0  0  0  0
   15.2022   -7.3867   20.4054 C   0  0  0  0  0  0  0  0  0  0  0  0
   11.9958   -5.9317   21.7903 C   0  0  0  0  0  0  0  0  0  0  0  0
   11.9948   -5.7463   23.0353 O   0  0  0  0  0  0  0  0  0  0  0  0
   10.9272   -5.6414   20.9543 O   0  0  0  0  0  0  0  0  0  0  0  0
   11.2564   -5.9713   19.6000 C   0  0  0  0  0  0  0  0  0  0  0  0
   13.0121   -7.0070   17.2812 C   0  0  0  0  0  0  0  0  0  0  0  0
  1  2  1  0  0  0
  2  3  1  0  0  0
  3  4  1  0  0  0
  4  5  1  0  0  0
  4 11  1  0  0  0
 11 12  2  0  0  0
 12 13  1  0  0  0
 13 14  2  0  0  0
 14 15  1  0  0  0
 15 16  2  0  0  0
 14 17  1  0  0  0
 17 18  3  0  0  0
  1  6  1  0  0  0
  6  7  1  0  0  0
  7  8  1  0  0  0
  8 19  1  0  0  0
 19 20  1  0  0  0
 20 23  1  0  0  0
 23 24  2  0  0  0
 24 25  1  0  0  0
 25 26  2  0  0  0
 26 27  1  0  0  0
 27 28  2  0  0  0
 26 29  1  0  0  0
 29 30  2  0  0  0
 29 31  1  0  0  0
 31 32  1  0  0  0
 24 33  1  0  0  0
 20 21  1  0  0  0
  8  9  1  0  0  0
  9 10  1  0  0  0
  5  1  1  0  0  0
 16 11  1  0  0  0
 28 23  1  0  0  0
 10  1  1  0  0  0
 32 25  1  0  0  0
 21 22  1  0  0  0
M  END
>  <minimizedAffinity>
-6.06707

>  <minimizedRMSD>
1.88109

$$$$
CHEMBL1360556 ChemDiv-C561-1486 MCULE-7894541643 MolPort-007-644-044 PubChem-16008624


 31 33  0  0  0  0  0  0  0  0999 V2000
   16.9762   -9.2773   13.7193 C   0  0  0  0  0  0  0  0  0  0  0  0
   15.9469   -8.5326   14.3336 C   0  0  0  0  0  0  0  0  0  0  0  0
   14.8999   -7.8275   13.5312 C   0  0  0  0  0  0  0  0  0  0  0  0
   15.9345   -8.4667   15.6890 N   0  0  0  0  0  0  0  0  0  0  0  0
   15.0714   -7.8251   16.4520 N   0  0  0  0  0  0  0  0  0  0  0  0
   15.4560   -8.0438   17.7334 C   0  0  0  0  0  0  0  0  0  0  0  0
   16.6011   -8.8515   17.7873 C   0  0  0  0  0  0  0  0  0  0  0  0
   16.8441   -9.0778   16.4504 C   0  0  0  0  0  0  0  0  0  0  0  0
   17.8437   -9.8127   15.9096 N   0  0  0  0  0  0  0  0  0  0  0  0
   17.9266   -9.9267   14.5524 C   0  0  0  0  0  0  0  0  0  0  0  0
   19.0232  -10.7561   13.9736 C   0  0  0  0  0  0  0  0  0  0  0  0
   14.7518   -7.4971   18.9179 C   0  0  0  0  0  0  0  0  0  0  0  0
   13.4016   -7.0791   18.8679 C   0  0  0  0  0  0  0  0  0  0  0  0
   12.7947   -6.5701   20.0285 C   0  0  0  0  0  0  0  0  0  0  0  0
   13.5063   -6.4709   21.2319 C   0  0  0  0  0  0  0  0  0  0  0  0
   14.8374   -6.8848   21.2740 C   0  0  0  0  0  0  0  0  0  0  0  0
   15.4528   -7.3924   20.1293 C   0  0  0  0  0  0  0  0  0  0  0  0
   12.6765   -7.1715   17.6735 O   0  0  0  0  0  0  0  0  0  0  0  0
   11.2673   -7.3533   17.6360 C   0  0  0  0  0  0  0  0  0  0  0  0
   12.9162   -5.9668   22.3941 O   0  0  0  0  0  0  0  0  0  0  0  0
   11.7771   -5.1175   22.3703 C   0  0  0  0  0  0  0  0  0  0  0  0
   17.0376   -9.3967   12.2246 C   0  0  0  0  0  0  0  0  0  0  0  0
   18.4429   -9.7598   11.7770 C   0  0  0  0  0  0  0  0  0  0  0  0
   17.7803   -9.3330    9.3809 N   0  0  0  0  0  0  0  0  0  0  0  0
   18.7196   -9.1543   10.4476 C   0  0  0  0  0  0  0  0  0  0  0  0
   19.7629   -8.4680   10.2810 O   0  0  0  0  0  0  0  0  0  0  0  0
   16.9774   -9.8725    9.5643 H   0  0  0  0  0  0  0  0  0  0  0  0
   17.9290   -8.7714    8.0395 C   0  0  0  0  0  0  0  0  0  0  0  0
   16.5847   -8.3258    7.4940 C   0  0  0  0  0  0  0  0  0  0  0  0
   19.5146   -7.4394    6.6501 C   0  0  0  0  0  0  0  0  0  0  0  0
   18.9120   -7.6103    8.0313 C   0  0  0  0  0  0  0  0  0  0  0  0
 30 31  1  0  0  0
 28 31  1  0  0  0
 28 29  1  0  0  0
 28 24  1  0  0  0
 24 25  1  0  0  0
 25 26  2  0  0  0
 25 23  1  0  0  0
 23 22  1  0  0  0
 22  1  1  0  0  0
  1  2  2  0  0  0
  2  3  1  0  0  0
  2  4  1  0  0  0
  4  5  1  0  0  0
  5  6  2  0  0  0
  6  7  1  0  0  0
  6 12  1  0  0  0
  7  8  2  0  0  0
  8  9  1  0  0  0
  8  4  1  0  0  0
  9 10  2  0  0  0
 10 11  1  0  0  0
 10  1  1  0  0  0
 12 13  2  0  0  0
 13 18  1  0  0  0
 13 14  1  0  0  0
 18 19  1  0  0  0
 14 15  2  0  0  0
 15 20  1  0  0  0
 15 16  1  0  0  0
 20 21  1  0  0  0
 16 17  2  0  0  0
 17 12  1  0  0  0
 24 27  1  0  0  0
M  END
>  <minimizedAffinity>
-6.06053

>  <minimizedRMSD>
1.69932

$$$$
CHEMBL1905398 MolPort-005-145-928 PubChem-23723221


 28 29  0  0  0  0  0  0  0  0999 V2000
   17.9814   -9.5670   11.8465 N   0  0  0  0  0  0  0  0  0  0  0  0
   17.9496  -10.5865   12.8492 C   0  0  0  0  0  0  0  0  0  0  0  0
   18.0923  -11.7962   12.5199 O   0  0  0  0  0  0  0  0  0  0  0  0
   17.7573  -10.2344   14.2259 N   0  0  0  0  0  0  0  0  0  0  0  0
   17.6844  -11.2836   15.2416 C   0  0  0  0  0  0  0  0  0  0  0  0
   18.5253  -10.9066   16.4608 C   0  0  0  0  0  0  0  0  0  0  0  0
   18.3757   -9.4354   16.8815 C   0  0  0  0  0  0  0  0  0  0  0  0
   17.2963   -8.6593   16.1029 C   0  0  0  0  0  0  0  0  0  0  0  0
   17.5523   -8.8300   14.5952 C   0  0  0  0  0  0  0  0  0  0  0  0
   17.8747   -8.6270   12.1191 H   0  0  0  0  0  0  0  0  0  0  0  0
   15.9383   -9.0916   16.4713 N   0  0  0  0  0  0  0  0  0  0  0  0
   15.1699   -9.2866   15.2492 C   0  0  0  0  0  0  0  0  0  0  0  0
   15.2723   -8.0007   17.1700 C   0  0  0  0  0  0  0  0  0  0  0  0
   15.5809   -8.0839   18.6551 C   0  0  0  0  0  0  0  0  0  0  0  0
   14.5206   -7.4006   19.4483 C   0  0  0  0  0  0  0  0  0  0  0  0
   14.8279   -6.8792   20.7065 C   0  0  0  0  0  0  0  0  0  0  0  0
   13.8375   -6.2500   21.4635 C   0  0  0  0  0  0  0  0  0  0  0  0
   12.5263   -6.1394   20.9710 C   0  0  0  0  0  0  0  0  0  0  0  0
   12.2131   -6.6690   19.7090 C   0  0  0  0  0  0  0  0  0  0  0  0
   13.2155   -7.3007   18.9543 C   0  0  0  0  0  0  0  0  0  0  0  0
   11.5228   -5.5109   21.7163 O   0  0  0  0  0  0  0  0  0  0  0  0
   11.3877   -4.0980   21.7874 C   0  0  0  0  0  0  0  0  0  0  0  0
   10.9046   -6.5576   19.2265 O   0  0  0  0  0  0  0  0  0  0  0  0
   10.3226   -7.5156   18.3530 C   0  0  0  0  0  0  0  0  0  0  0  0
   18.1664   -9.8748   10.4368 C   0  0  0  0  0  0  0  0  0  0  0  0
   17.8721   -8.6475    9.5933 C   0  0  0  0  0  0  0  0  0  0  0  0
   19.1364   -7.3929    7.8758 C   0  0  0  0  0  0  0  0  0  0  0  0
   19.1521   -7.8857    9.3072 C   0  0  0  0  0  0  0  0  0  0  0  0
 27 28  1  0  0  0
 28 26  1  0  0  0
 26 25  1  0  0  0
 25  1  1  0  0  0
  1  2  1  0  0  0
  2  3  2  0  0  0
  2  4  1  0  0  0
  4  5  1  0  0  0
  5  6  1  0  0  0
  6  7  1  0  0  0
  7  8  1  0  0  0
  8  9  1  0  0  0
  8 11  1  0  0  0
  9  4  1  0  0  0
 11 12  1  0  0  0
 11 13  1  0  0  0
 13 14  1  0  0  0
 14 15  1  0  0  0
 15 16  2  0  0  0
 16 17  1  0  0  0
 17 18  2  0  0  0
 18 21  1  0  0  0
 18 19  1  0  0  0
 21 22  1  0  0  0
 19 23  1  0  0  0
 19 20  2  0  0  0
 23 24  1  0  0  0
 20 15  1  0  0  0
  1 10  1  0  0  0
M  END
>  <minimizedAffinity>
-6.05651

>  <minimizedRMSD>
1.70075

$$$$
CHEMBL1528625 9540150 CSC026007754 MCULE-1027178179 MolPort-004-264-447 PubChem-3494721 Z18363794 ZINC000009540150 ZINC09540150


 34 35  0  0  0  0  0  0  0  0999 V2000
   17.1741   -9.3901   14.7639 N   0  0  0  0  0  0  0  0  0  0  0  0
   17.0288   -9.6294   16.1654 C   0  0  0  0  0  0  0  0  0  0  0  0
   16.9314  -10.8042   16.6101 O   0  0  0  0  0  0  0  0  0  0  0  0
   17.2116   -8.4586   14.4474 H   0  0  0  0  0  0  0  0  0  0  0  0
   17.2694  -10.4631   13.7821 C   0  0  0  0  0  0  0  0  0  0  0  0
   18.5231  -10.3109   12.9287 C   0  0  0  0  0  0  0  0  0  0  0  0
   17.5290   -8.9485    8.9748 C   0  0  0  0  0  0  0  0  0  0  0  0
   18.7708   -8.6273    9.5482 C   0  0  0  0  0  0  0  0  0  0  0  0
   19.0950   -9.0734   10.8308 C   0  0  0  0  0  0  0  0  0  0  0  0
   18.1830   -9.8470   11.5526 C   0  0  0  0  0  0  0  0  0  0  0  0
   16.9443  -10.1672   10.9901 C   0  0  0  0  0  0  0  0  0  0  0  0
   16.6094   -9.7212    9.7009 C   0  0  0  0  0  0  0  0  0  0  0  0
   17.1898   -8.5119    7.6891 O   0  0  0  0  0  0  0  0  0  0  0  0
   18.7347   -8.5113    5.8551 C   0  0  0  0  0  0  0  0  0  0  0  0
   18.0377   -7.6785    6.9104 C   0  0  0  0  0  0  0  0  0  0  0  0
   15.3737  -10.0372    9.1214 O   0  0  0  0  0  0  0  0  0  0  0  0
   14.1958  -10.2888    9.8796 C   0  0  0  0  0  0  0  0  0  0  0  0
   14.4349   -9.9599   11.3410 C   0  0  0  0  0  0  0  0  0  0  0  0
   16.9562   -8.4762   17.1058 C   0  0  0  0  0  0  0  0  0  0  0  0
   15.8589   -8.6353   17.9973 O   0  0  0  0  0  0  0  0  0  0  0  0
   14.7680   -7.7596   18.0120 C   0  0  0  0  0  0  0  0  0  0  0  0
   14.2708   -7.3447   16.9287 O   0  0  0  0  0  0  0  0  0  0  0  0
   14.2041   -7.3196   19.2980 C   0  0  0  0  0  0  0  0  0  0  0  0
   14.8220   -7.6841   20.4956 C   0  0  0  0  0  0  0  0  0  0  0  0
   14.3009   -7.2797   21.7351 C   0  0  0  0  0  0  0  0  0  0  0  0
   13.1245   -6.4879   21.7692 C   0  0  0  0  0  0  0  0  0  0  0  0
   12.5043   -6.1212   20.5622 C   0  0  0  0  0  0  0  0  0  0  0  0
   13.0472   -6.5385   19.3385 C   0  0  0  0  0  0  0  0  0  0  0  0
   14.9419   -7.6584   22.9206 O   0  0  0  0  0  0  0  0  0  0  0  0
   16.0669   -6.9671   23.4487 C   0  0  0  0  0  0  0  0  0  0  0  0
   12.5299   -6.0396   22.9611 O   0  0  0  0  0  0  0  0  0  0  0  0
   12.9344   -4.8923   23.6935 C   0  0  0  0  0  0  0  0  0  0  0  0
   11.3445   -5.3388   20.6042 O   0  0  0  0  0  0  0  0  0  0  0  0
   10.9223   -4.5272   19.5165 C   0  0  0  0  0  0  0  0  0  0  0  0
 14 15  1  0  0  0
 15 13  1  0  0  0
 13  7  1  0  0  0
  7  8  2  0  0  0
  8  9  1  0  0  0
  9 10  2  0  0  0
 10  6  1  0  0  0
 10 11  1  0  0  0
  6  5  1  0  0  0
  5  1  1  0  0  0
  1  2  1  0  0  0
  2  3  2  0  0  0
  2 19  1  0  0  0
 19 20  1  0  0  0
 20 21  1  0  0  0
 21 22  2  0  0  0
 21 23  1  0  0  0
 23 24  2  0  0  0
 24 25  1  0  0  0
 25 29  1  0  0  0
 25 26  2  0  0  0
 29 30  1  0  0  0
 26 31  1  0  0  0
 26 27  1  0  0  0
 31 32  1  0  0  0
 27 33  1  0  0  0
 27 28  2  0  0  0
 33 34  1  0  0  0
 28 23  1  0  0  0
 11 12  2  0  0  0
 12 16  1  0  0  0
 12  7  1  0  0  0
 16 17  1  0  0  0
 17 18  1  0  0  0
  1  4  1  0  0  0
M  END
>  <minimizedAffinity>
-6.04460

>  <minimizedRMSD>
1.40093

$$$$
CHEMBL425431 PubChem-16007090


 31 32  0  0  0  0  0  0  0  0999 V2000
   16.3715   -8.4203   14.4885 C   0  0  0  0  0  0  0  0  0  0  0  0
   16.3727   -9.9408   14.4614 C   0  0  0  0  0  0  0  0  0  0  0  0
   17.2653  -10.4160   13.4610 O   0  0  0  0  0  0  0  0  0  0  0  0
   16.1626   -9.8679   11.2871 C   0  0  0  0  0  0  0  0  0  0  0  0
   16.3346   -9.4680    9.9565 C   0  0  0  0  0  0  0  0  0  0  0  0
   17.6109   -9.1726    9.4704 C   0  0  0  0  0  0  0  0  0  0  0  0
   18.6824   -9.2661   10.3020 N   0  0  0  0  0  0  0  0  0  0  0  0
   18.5535   -9.6655   11.5940 C   0  0  0  0  0  0  0  0  0  0  0  0
   17.2995   -9.9785   12.1270 C   0  0  0  0  0  0  0  0  0  0  0  0
   17.7917   -8.6900    8.0630 C   0  0  0  0  0  0  0  0  0  0  0  0
   16.6063   -8.1393    7.6118 F   0  0  0  0  0  0  0  0  0  0  0  0
   18.1490   -9.7416    7.2367 F   0  0  0  0  0  0  0  0  0  0  0  0
   18.7861   -7.7285    8.0122 F   0  0  0  0  0  0  0  0  0  0  0  0
   14.7814  -10.2448   11.7365 C   0  0  0  0  0  0  0  0  0  0  0  0
   12.3959  -10.6428   11.0593 C   0  0  0  0  0  0  0  0  0  0  0  0
   13.7566  -10.1435   10.6111 C   0  0  0  0  0  0  0  0  0  0  0  0
   16.4842   -7.9016   15.9118 C   0  0  0  0  0  0  0  0  0  0  0  0
   15.5564   -8.5783   16.7512 O   0  0  0  0  0  0  0  0  0  0  0  0
   14.8449   -7.9309   17.7649 C   0  0  0  0  0  0  0  0  0  0  0  0
   15.3789   -7.9042   19.0558 C   0  0  0  0  0  0  0  0  0  0  0  0
   14.6886   -7.2688   20.0907 C   0  0  0  0  0  0  0  0  0  0  0  0
   13.4519   -6.6488   19.8477 C   0  0  0  0  0  0  0  0  0  0  0  0
   12.9147   -6.6762   18.5502 C   0  0  0  0  0  0  0  0  0  0  0  0
   11.6030   -6.0358   18.2524 C   0  0  0  0  0  0  0  0  0  0  0  0
   13.6089   -7.3135   17.5177 C   0  0  0  0  0  0  0  0  0  0  0  0
   12.7447   -6.0120   20.8767 O   0  0  0  0  0  0  0  0  0  0  0  0
   13.2463   -5.8725   22.2022 C   0  0  0  0  0  0  0  0  0  0  0  0
   13.8530   -4.5236   22.3853 C   0  0  0  0  0  0  0  0  0  0  0  0
   13.5207   -3.5758   21.6272 O   0  0  0  0  0  0  0  0  0  0  0  0
   14.8069   -4.3187   23.3735 O   0  0  0  0  0  0  0  0  0  0  0  0
   15.0550   -5.0238   23.9385 H   0  0  0  0  0  0  0  0  0  0  0  0
 15 16  1  0  0  0
 16 14  1  0  0  0
 14  4  1  0  0  0
  4  5  2  0  0  0
  5  6  1  0  0  0
  6 10  1  0  0  0
  6  7  2  0  0  0
 10 11  1  0  0  0
 10 12  1  0  0  0
 10 13  1  0  0  0
  7  8  1  0  0  0
  8  9  2  0  0  0
  9  3  1  0  0  0
  9  4  1  0  0  0
  3  2  1  0  0  0
  2  1  1  0  0  0
  1 17  1  0  0  0
 17 18  1  0  0  0
 18 19  1  0  0  0
 19 20  2  0  0  0
 20 21  1  0  0  0
 21 22  2  0  0  0
 22 26  1  0  0  0
 22 23  1  0  0  0
 26 27  1  0  0  0
 27 28  1  0  0  0
 28 29  2  0  0  0
 28 30  1  0  0  0
 23 24  1  0  0  0
 23 25  2  0  0  0
 25 19  1  0  0  0
 30 31  1  0  0  0
M  END
>  <minimizedAffinity>
-6.02885

>  <minimizedRMSD>
1.35437

$$$$
CHEMBL1386483 CSC026572600 MCULE-6122109219 MolPort-005-876-820 PubChem-4552556 Z48960646


 30 33  0  0  0  0  0  0  0  0999 V2000
   17.1330   -9.0865   15.1148 C   0  0  0  0  0  0  0  0  0  0  0  0
   16.5757   -7.9114   15.0709 N   0  0  0  0  0  0  0  0  0  0  0  0
   15.6983   -7.4371   16.0670 N   0  0  0  0  0  0  0  0  0  0  0  0
   15.0666   -8.2220   16.8930 C   0  0  0  0  0  0  0  0  0  0  0  0
   15.2088   -9.7076   16.7552 C   0  0  0  0  0  0  0  0  0  0  0  0
   16.9669  -10.1136   16.5783 S   0  0  0  0  0  0  0  0  0  0  0  0
   14.1630   -7.6330   17.9042 C   0  0  0  0  0  0  0  0  0  0  0  0
   14.3352   -7.5718   19.2822 C   0  0  0  0  0  0  0  0  0  0  0  0
   15.4947   -8.1004   20.0622 C   0  0  0  0  0  0  0  0  0  0  0  0
   13.2826   -6.9465   19.8398 N   0  0  0  0  0  0  0  0  0  0  0  0
   12.4499   -6.6107   18.8352 C   0  0  0  0  0  0  0  0  0  0  0  0
   11.1552   -5.8950   19.0162 C   0  0  0  0  0  0  0  0  0  0  0  0
   12.9528   -7.0152   17.6119 C   0  0  0  0  0  0  0  0  0  0  0  0
   13.0937   -6.6615   21.2593 C   0  0  0  0  0  0  0  0  0  0  0  0
   13.7641   -5.3489   21.6382 C   0  0  0  0  0  0  0  0  0  0  0  0
   14.6291   -5.5243   22.8665 C   0  0  0  0  0  0  0  0  0  0  0  0
   14.3808   -4.2798   23.6626 C   0  0  0  0  0  0  0  0  0  0  0  0
   13.3989   -3.4996   22.8216 C   0  0  0  0  0  0  0  0  0  0  0  0
   12.7884   -4.3826   21.9202 O   0  0  0  0  0  0  0  0  0  0  0  0
   17.9092   -9.5817   14.0152 N   0  0  0  0  0  0  0  0  0  0  0  0
   18.8124   -9.9078   14.2323 H   0  0  0  0  0  0  0  0  0  0  0  0
   16.8404   -9.7829    9.9084 C   0  0  0  0  0  0  0  0  0  0  0  0
   18.1772   -9.6068   10.2987 C   0  0  0  0  0  0  0  0  0  0  0  0
   18.5128   -9.5441   11.6540 C   0  0  0  0  0  0  0  0  0  0  0  0
   17.5227   -9.6573   12.6352 C   0  0  0  0  0  0  0  0  0  0  0  0
   16.1873   -9.8330   12.2429 C   0  0  0  0  0  0  0  0  0  0  0  0
   15.8496   -9.8955   10.8882 C   0  0  0  0  0  0  0  0  0  0  0  0
   16.4718   -9.8477    8.5621 O   0  0  0  0  0  0  0  0  0  0  0  0
   17.5424   -8.1326    7.2749 C   0  0  0  0  0  0  0  0  0  0  0  0
   17.3916   -9.6214    7.5028 C   0  0  0  0  0  0  0  0  0  0  0  0
 29 30  1  0  0  0
 30 28  1  0  0  0
 28 22  1  0  0  0
 22 23  2  0  0  0
 23 24  1  0  0  0
 24 25  2  0  0  0
 25 20  1  0  0  0
 25 26  1  0  0  0
 20  1  1  0  0  0
  1  2  2  0  0  0
  2  3  1  0  0  0
  3  4  2  0  0  0
  4  5  1  0  0  0
  4  7  1  0  0  0
  5  6  1  0  0  0
  6  1  1  0  0  0
  7  8  2  0  0  0
  8  9  1  0  0  0
  8 10  1  0  0  0
 10 14  1  0  0  0
 10 11  1  0  0  0
 15 14  1  0  0  0
 15 16  1  0  0  0
 16 17  1  0  0  0
 17 18  1  0  0  0
 18 19  1  0  0  0
 19 15  1  0  0  0
 11 12  1  0  0  0
 11 13  2  0  0  0
 13  7  1  0  0  0
 26 27  2  0  0  0
 27 22  1  0  0  0
 20 21  1  0  0  0
M  END
>  <minimizedAffinity>
-6.02224

>  <minimizedRMSD>
1.75140

$$$$
CHEMBL4522063 PubChem-135335508


 31 34  0  0  0  0  0  0  0  0999 V2000
   17.0803   -9.7506   13.5847 C   0  0  0  0  0  0  0  0  0  0  0  0
   16.2801   -8.7326   14.1461 C   0  0  0  0  0  0  0  0  0  0  0  0
   16.1001   -8.7290   15.5262 C   0  0  0  0  0  0  0  0  0  0  0  0
   15.3738   -7.8384   16.2228 N   0  0  0  0  0  0  0  0  0  0  0  0
   15.5127   -8.2627   17.5045 C   0  0  0  0  0  0  0  0  0  0  0  0
   16.3178   -9.3996   17.5661 C   0  0  0  0  0  0  0  0  0  0  0  0
   16.6687   -9.6630   16.3002 N   0  0  0  0  0  0  0  0  0  0  0  0
   17.4455  -10.6629   15.8195 C   0  0  0  0  0  0  0  0  0  0  0  0
   17.6636  -10.7192   14.4360 C   0  0  0  0  0  0  0  0  0  0  0  0
   14.8892   -7.6009   18.6754 C   0  0  0  0  0  0  0  0  0  0  0  0
   15.6538   -7.4324   19.8395 C   0  0  0  0  0  0  0  0  0  0  0  0
   15.1197   -6.8166   20.9721 C   0  0  0  0  0  0  0  0  0  0  0  0
   13.7987   -6.3537   20.9615 C   0  0  0  0  0  0  0  0  0  0  0  0
   13.0265   -6.5173   19.8030 C   0  0  0  0  0  0  0  0  0  0  0  0
   13.5548   -7.1358   18.6580 C   0  0  0  0  0  0  0  0  0  0  0  0
   16.1267   -6.6354   22.3973 Cl  0  0  0  0  0  0  0  0  0  0  0  0
   12.7671   -7.2898   17.5106 O   0  0  0  0  0  0  0  0  0  0  0  0
   11.3491   -7.3779   17.5519 C   0  0  0  0  0  0  0  0  0  0  0  0
   13.2728   -5.7376   22.1027 O   0  0  0  0  0  0  0  0  0  0  0  0
   11.9924   -5.1215   22.1234 C   0  0  0  0  0  0  0  0  0  0  0  0
   18.0499   -8.3738    9.9949 N   0  0  0  0  0  0  0  0  0  0  0  0
   19.1122   -9.2080   10.5789 C   0  0  0  0  0  0  0  0  0  0  0  0
   18.6014  -10.2125   11.6256 C   0  0  0  0  0  0  0  0  0  0  0  0
   17.3015   -9.8026   12.1623 N   0  0  0  0  0  0  0  0  0  0  0  0
   16.2367   -9.4219   11.2284 C   0  0  0  0  0  0  0  0  0  0  0  0
   16.8147   -9.1413    9.8454 C   0  0  0  0  0  0  0  0  0  0  0  0
   18.5763   -7.8693    8.4183 S   0  0  0  0  0  0  0  0  0  0  0  0
   18.1058   -6.4657    8.1531 O   0  0  0  0  0  0  0  0  0  0  0  0
   20.0783   -7.8896    8.3771 O   0  0  0  0  0  0  0  0  0  0  0  0
   18.6137   -8.6459    5.8089 C   0  0  0  0  0  0  0  0  0  0  0  0
   17.9618   -8.9578    7.1414 C   0  0  0  0  0  0  0  0  0  0  0  0
 30 31  1  0  0  0
 31 27  1  0  0  0
 27 28  2  0  0  0
 27 29  2  0  0  0
 27 21  1  0  0  0
 21 22  1  0  0  0
 22 23  1  0  0  0
 23 24  1  0  0  0
 24 25  1  0  0  0
 25 26  1  0  0  0
 24  1  1  0  0  0
  1  2  2  0  0  0
  2  3  1  0  0  0
  3  4  2  0  0  0
  4  5  1  0  0  0
  5  6  2  0  0  0
  6  7  1  0  0  0
  7  8  1  0  0  0
  8  9  2  0  0  0
  5 10  1  0  0  0
 10 11  2  0  0  0
 11 12  1  0  0  0
 12 13  2  0  0  0
 13 14  1  0  0  0
 14 15  2  0  0  0
 15 17  1  0  0  0
 17 18  1  0  0  0
 13 19  1  0  0  0
 19 20  1  0  0  0
 12 16  1  0  0  0
 26 21  1  0  0  0
  9  1  1  0  0  0
  7  3  1  0  0  0
 15 10  1  0  0  0
M  END
>  <minimizedAffinity>
-6.01909

>  <minimizedRMSD>
1.58659

$$$$
CHEMBL1917522 PubChem-56833453


 28 29  0  0  0  0  0  0  0  0999 V2000
   16.8579   -8.9191   16.8025 N   0  0  0  0  0  0  0  0  0  0  0  0
   17.9879   -8.6865   17.5560 O   0  0  0  0  0  0  0  0  0  0  0  0
   15.7138   -8.6064   17.2662 N   0  0  0  0  0  0  0  0  0  0  0  0
   17.1448   -9.5268   11.3588 C   0  0  0  0  0  0  0  0  0  0  0  0
   16.1252   -9.1850   10.6976 O   0  0  0  0  0  0  0  0  0  0  0  0
   17.0329   -9.7960   12.7617 N   0  0  0  0  0  0  0  0  0  0  0  0
   18.2134  -10.2291   13.5076 C   0  0  0  0  0  0  0  0  0  0  0  0
   18.2784   -9.5074   14.8526 C   0  0  0  0  0  0  0  0  0  0  0  0
   16.9737   -9.4960   15.5231 N   0  0  0  0  0  0  0  0  0  0  0  0
   15.8139  -10.1264   14.8879 C   0  0  0  0  0  0  0  0  0  0  0  0
   15.7267   -9.7061   13.4223 C   0  0  0  0  0  0  0  0  0  0  0  0
   18.3859   -9.6401   10.7267 O   0  0  0  0  0  0  0  0  0  0  0  0
   19.3821   -7.8540    9.4760 C   0  0  0  0  0  0  0  0  0  0  0  0
   18.6063   -9.1531    9.4114 C   0  0  0  0  0  0  0  0  0  0  0  0
   15.5862   -8.0405   18.5169 O   0  0  0  0  0  0  0  0  0  0  0  0
   14.4101   -7.3999   18.9148 C   0  0  0  0  0  0  0  0  0  0  0  0
   13.2572   -7.5050   18.1257 C   0  0  0  0  0  0  0  0  0  0  0  0
   12.0679   -6.8719   18.4897 C   0  0  0  0  0  0  0  0  0  0  0  0
   10.8887   -7.0657   17.5983 C   0  0  0  0  0  0  0  0  0  0  0  0
   12.0157   -6.1056   19.6777 C   0  0  0  0  0  0  0  0  0  0  0  0
   13.1703   -6.0129   20.4663 C   0  0  0  0  0  0  0  0  0  0  0  0
   14.3694   -6.6456   20.1064 C   0  0  0  0  0  0  0  0  0  0  0  0
   10.8262   -5.4194   20.1155 N   0  0  0  0  0  0  0  0  0  0  0  0
    9.6992   -5.9493   20.0337 O   0  0  0  0  0  0  0  0  0  0  0  0
   10.9109   -4.1166   20.5513 O   0  0  0  0  0  0  0  0  0  0  0  0
   15.5206   -6.5055   20.9619 N   0  0  0  0  0  0  0  0  0  0  0  0
   15.3914   -6.0365   22.1122 O   0  0  0  0  0  0  0  0  0  0  0  0
   16.7757   -6.8813   20.5427 O   0  0  0  0  0  0  0  0  0  0  0  0
 13 14  1  0  0  0
 14 12  1  0  0  0
 12  4  1  0  0  0
  4  5  2  0  0  0
  4  6  1  0  0  0
  6  7  1  0  0  0
  7  8  1  0  0  0
  8  9  1  0  0  0
  9  1  1  0  0  0
  9 10  1  0  0  0
  1  2  1  0  0  0
  1  3  2  0  0  0
  3 15  1  0  0  0
 15 16  1  0  0  0
 16 17  2  0  0  0
 17 18  1  0  0  0
 18 19  1  0  0  0
 18 20  2  0  0  0
 20 23  1  0  0  0
 20 21  1  0  0  0
 23 24  2  0  0  0
 23 25  1  0  0  0
 21 22  2  0  0  0
 22 26  1  0  0  0
 22 16  1  0  0  0
 26 27  2  0  0  0
 26 28  1  0  0  0
 10 11  1  0  0  0
 11  6  1  0  0  0
M  CHG 1   1   1
M  CHG 1   2  -1
M  CHG 1  23   1
M  CHG 1  25  -1
M  CHG 1  26   1
M  CHG 1  28  -1
M  END
>  <minimizedAffinity>
-6.01422

>  <minimizedRMSD>
1.80881

$$$$
CHEMBL3208566 MolPort-004-267-999 PubChem-6904200 ZINC03278891


 34 36  0  0  0  0  0  0  0  0999 V2000
   15.4045   -7.7610   16.3902 N   0  0  0  0  0  0  0  0  0  0  0  0
   16.1999   -8.9251   16.1087 C   0  0  0  0  0  0  0  0  0  0  0  0
   16.5090   -9.7309   17.0284 O   0  0  0  0  0  0  0  0  0  0  0  0
   15.1864   -7.1728   15.6315 H   0  0  0  0  0  0  0  0  0  0  0  0
   16.6585   -9.1795   14.7314 C   0  0  0  0  0  0  0  0  0  0  0  0
   17.8691   -9.8490   14.4979 C   0  0  0  0  0  0  0  0  0  0  0  0
   18.3042  -10.0881   13.1910 C   0  0  0  0  0  0  0  0  0  0  0  0
   17.5299   -9.6636   12.1070 C   0  0  0  0  0  0  0  0  0  0  0  0
   16.3254   -8.9900   12.3317 C   0  0  0  0  0  0  0  0  0  0  0  0
   15.8907   -8.7510   13.6386 C   0  0  0  0  0  0  0  0  0  0  0  0
   18.0041   -9.8979   10.7164 C   0  0  0  0  0  0  0  0  0  0  0  0
   19.5771   -9.0301   10.4420 S   0  0  0  0  0  0  0  0  0  0  0  0
   19.0352   -8.3938    8.8636 C   0  0  0  0  0  0  0  0  0  0  0  0
   19.9504   -8.0519    7.9187 N   0  0  0  0  0  0  0  0  0  0  0  0
   19.5572   -7.5634    6.7134 C   0  0  0  0  0  0  0  0  0  0  0  0
   20.5733   -7.1951    5.6938 C   0  0  0  0  0  0  0  0  0  0  0  0
   18.2003   -7.4062    6.4340 C   0  0  0  0  0  0  0  0  0  0  0  0
   17.2771   -7.7606    7.4167 C   0  0  0  0  0  0  0  0  0  0  0  0
   15.8217   -7.6048    7.1597 C   0  0  0  0  0  0  0  0  0  0  0  0
   17.7079   -8.2453    8.6107 N   0  0  0  0  0  0  0  0  0  0  0  0
   15.3879   -7.8378   18.7708 C   0  0  0  0  0  0  0  0  0  0  0  0
   14.9095   -7.3871   17.6545 N   0  0  0  0  0  0  0  0  0  0  0  0
   14.0031   -6.6131   22.6474 C   0  0  0  0  0  0  0  0  0  0  0  0
   13.0913   -7.1202   21.7179 C   0  0  0  0  0  0  0  0  0  0  0  0
   13.4953   -7.5332   20.4394 C   0  0  0  0  0  0  0  0  0  0  0  0
   14.8566   -7.4337   20.0842 C   0  0  0  0  0  0  0  0  0  0  0  0
   15.7707   -6.9268   21.0098 C   0  0  0  0  0  0  0  0  0  0  0  0
   15.3681   -6.5132   22.2892 C   0  0  0  0  0  0  0  0  0  0  0  0
   12.8119   -5.0117   24.1580 C   0  0  0  0  0  0  0  0  0  0  0  0
   13.4936   -6.2301   23.8973 O   0  0  0  0  0  0  0  0  0  0  0  0
   12.5596   -8.0374   19.5277 O   0  0  0  0  0  0  0  0  0  0  0  0
   11.5213   -7.2449   18.9672 C   0  0  0  0  0  0  0  0  0  0  0  0
   16.3097   -6.0089   23.1937 O   0  0  0  0  0  0  0  0  0  0  0  0
   17.7035   -6.2674   23.0856 C   0  0  0  0  0  0  0  0  0  0  0  0
 29 30  1  0  0  0
 30 23  1  0  0  0
 23 24  2  0  0  0
 24 25  1  0  0  0
 25 31  1  0  0  0
 25 26  2  0  0  0
 31 32  1  0  0  0
 26 21  1  0  0  0
 26 27  1  0  0  0
 21 22  2  0  0  0
 22  1  1  0  0  0
  1  2  1  0  0  0
  2  3  2  0  0  0
  2  5  1  0  0  0
  5  6  2  0  0  0
  6  7  1  0  0  0
  7  8  2  0  0  0
  8 11  1  0  0  0
  8  9  1  0  0  0
 11 12  1  0  0  0
 12 13  1  0  0  0
 13 14  2  0  0  0
 14 15  1  0  0  0
 15 16  1  0  0  0
 15 17  2  0  0  0
 17 18  1  0  0  0
 18 19  1  0  0  0
 18 20  2  0  0  0
 20 13  1  0  0  0
  9 10  2  0  0  0
 10  5  1  0  0  0
 27 28  2  0  0  0
 28 33  1  0  0  0
 28 23  1  0  0  0
 33 34  1  0  0  0
  1  4  1  0  0  0
M  END
>  <minimizedAffinity>
-6.00547

>  <minimizedRMSD>
1.97497

$$$$
CHEMBL1798015 71768127 CSC046199028 MCULE-7316123572 MolPort-019-939-467 PubChem-53329078 ZINC000071768127 ZINC71768127


 30 32  0  0  0  0  0  0  0  0999 V2000
   14.8942   -7.5559   18.6939 C   0  0  0  0  0  0  0  0  0  0  0  0
   14.2599   -7.1787   17.5652 N   0  0  0  0  0  0  0  0  0  0  0  0
   14.9108   -7.7628   16.6065 O   0  0  0  0  0  0  0  0  0  0  0  0
   15.8968   -8.4658   17.1082 C   0  0  0  0  0  0  0  0  0  0  0  0
   15.9407   -8.3743   18.4503 N   0  0  0  0  0  0  0  0  0  0  0  0
   16.8653   -9.2741   16.3025 C   0  0  0  0  0  0  0  0  0  0  0  0
   17.6401   -8.4122   15.2975 C   0  0  0  0  0  0  0  0  0  0  0  0
   16.7635   -8.0096   14.1127 C   0  0  0  0  0  0  0  0  0  0  0  0
   16.1339   -9.1970   13.5472 N   0  0  0  0  0  0  0  0  0  0  0  0
   15.3418  -10.0461   14.4305 C   0  0  0  0  0  0  0  0  0  0  0  0
   16.1923  -10.4753   15.6259 C   0  0  0  0  0  0  0  0  0  0  0  0
   16.3057   -9.5245   12.1639 C   0  0  0  0  0  0  0  0  0  0  0  0
   15.7580  -10.5579   11.6894 O   0  0  0  0  0  0  0  0  0  0  0  0
   17.0848   -8.6919   11.3454 O   0  0  0  0  0  0  0  0  0  0  0  0
   17.8173   -9.1332   10.2000 C   0  0  0  0  0  0  0  0  0  0  0  0
   16.8741   -9.6221    9.1144 C   0  0  0  0  0  0  0  0  0  0  0  0
   18.6116   -7.9658    9.6541 C   0  0  0  0  0  0  0  0  0  0  0  0
   18.7875  -10.2399   10.5761 C   0  0  0  0  0  0  0  0  0  0  0  0
   12.8962   -6.0088   21.5108 C   0  0  0  0  0  0  0  0  0  0  0  0
   13.2944   -6.4313   20.2324 C   0  0  0  0  0  0  0  0  0  0  0  0
   14.4924   -7.1224   20.0410 C   0  0  0  0  0  0  0  0  0  0  0  0
   15.3051   -7.3964   21.1418 C   0  0  0  0  0  0  0  0  0  0  0  0
   14.9321   -6.9865   22.4299 C   0  0  0  0  0  0  0  0  0  0  0  0
   13.7274   -6.2894   22.6256 C   0  0  0  0  0  0  0  0  0  0  0  0
   10.8439   -4.9659   20.5880 C   0  0  0  0  0  0  0  0  0  0  0  0
   11.6894   -5.3187   21.6750 O   0  0  0  0  0  0  0  0  0  0  0  0
   15.7460   -7.2615   23.5351 O   0  0  0  0  0  0  0  0  0  0  0  0
   17.0294   -6.6767   23.7117 C   0  0  0  0  0  0  0  0  0  0  0  0
   13.4117   -5.9049   23.9399 O   0  0  0  0  0  0  0  0  0  0  0  0
   13.6697   -4.6255   24.5005 C   0  0  0  0  0  0  0  0  0  0  0  0
 25 26  1  0  0  0
 26 19  1  0  0  0
 19 20  2  0  0  0
 20 21  1  0  0  0
 21 22  2  0  0  0
 21  1  1  0  0  0
 22 23  1  0  0  0
 23 27  1  0  0  0
 23 24  2  0  0  0
 27 28  1  0  0  0
 24 29  1  0  0  0
 24 19  1  0  0  0
 29 30  1  0  0  0
  1  2  2  0  0  0
  2  3  1  0  0  0
  3  4  1  0  0  0
  4  5  2  0  0  0
  4  6  1  0  0  0
  5  1  1  0  0  0
  6  7  1  0  0  0
  7  8  1  0  0  0
  8  9  1  0  0  0
  9 10  1  0  0  0
  9 12  1  0  0  0
 10 11  1  0  0  0
 11  6  1  0  0  0
 12 13  2  0  0  0
 12 14  1  0  0  0
 14 15  1  0  0  0
 15 16  1  0  0  0
 15 17  1  0  0  0
 15 18  1  0  0  0
M  END
>  <minimizedAffinity>
-5.99847

>  <minimizedRMSD>
1.57767

$$$$
CHEMBL4515153 PubChem-135335386


 32 35  0  0  0  0  0  0  0  0999 V2000
   15.1390   -7.9422   18.1148 C   0  0  0  0  0  0  0  0  0  0  0  0
   16.0190   -9.0063   18.3223 C   0  0  0  0  0  0  0  0  0  0  0  0
   16.4386   -9.3683   17.1029 N   0  0  0  0  0  0  0  0  0  0  0  0
   17.2997  -10.3449   16.7366 C   0  0  0  0  0  0  0  0  0  0  0  0
   17.5605  -10.5023   15.3696 C   0  0  0  0  0  0  0  0  0  0  0  0
   16.9212   -9.6469   14.4415 C   0  0  0  0  0  0  0  0  0  0  0  0
   16.0635   -8.6799   14.8918 N   0  0  0  0  0  0  0  0  0  0  0  0
   15.8385   -8.5615   16.2229 C   0  0  0  0  0  0  0  0  0  0  0  0
   15.0229   -7.6588   16.7914 N   0  0  0  0  0  0  0  0  0  0  0  0
   13.1106   -6.7182   19.0214 C   0  0  0  0  0  0  0  0  0  0  0  0
   12.4911   -6.0367   20.0819 C   0  0  0  0  0  0  0  0  0  0  0  0
   13.1512   -5.8399   21.3028 C   0  0  0  0  0  0  0  0  0  0  0  0
   14.4513   -6.3335   21.4627 C   0  0  0  0  0  0  0  0  0  0  0  0
   15.0756   -7.0119   20.4151 C   0  0  0  0  0  0  0  0  0  0  0  0
   14.4234   -7.2140   19.1897 C   0  0  0  0  0  0  0  0  0  0  0  0
   15.3197   -6.1129   22.9711 Cl  0  0  0  0  0  0  0  0  0  0  0  0
   11.0939   -7.3725   17.7359 C   0  0  0  0  0  0  0  0  0  0  0  0
   12.4340   -6.9045   17.8097 O   0  0  0  0  0  0  0  0  0  0  0  0
   12.5345   -5.1610   22.3597 O   0  0  0  0  0  0  0  0  0  0  0  0
   11.3035   -4.4661   22.2135 C   0  0  0  0  0  0  0  0  0  0  0  0
   17.1741   -9.7802   13.0330 N   0  0  0  0  0  0  0  0  0  0  0  0
   16.1206   -9.4846   12.0636 C   0  0  0  0  0  0  0  0  0  0  0  0
   16.6879   -8.6452   10.9232 C   0  0  0  0  0  0  0  0  0  0  0  0
   17.9109   -9.3362   10.3240 C   0  0  0  0  0  0  0  0  0  0  0  0
   18.9763   -9.5373   11.3977 C   0  0  0  0  0  0  0  0  0  0  0  0
   18.4145  -10.3786   12.5397 C   0  0  0  0  0  0  0  0  0  0  0  0
   18.4539   -8.5230    9.2485 N   0  0  0  0  0  0  0  0  0  0  0  0
   19.4379   -8.7503    9.1053 H   0  0  0  0  0  0  0  0  0  0  0  0
   17.5541   -8.8712    7.8097 S   0  0  0  0  0  0  0  0  0  0  0  0
   16.5669   -7.7691    7.5441 O   0  0  0  0  0  0  0  0  0  0  0  0
   18.5021   -8.9755    6.6491 O   0  0  0  0  0  0  0  0  0  0  0  0
   16.6866  -10.4137    7.9908 C   0  0  0  0  0  0  0  0  0  0  0  0
 17 18  1  0  0  0
 18 10  1  0  0  0
 10 11  2  0  0  0
 11 12  1  0  0  0
 12 13  2  0  0  0
 13 14  1  0  0  0
 14 15  2  0  0  0
 15  1  1  0  0  0
  1  2  2  0  0  0
  2  3  1  0  0  0
  3  4  1  0  0  0
  4  5  2  0  0  0
  5  6  1  0  0  0
  6  7  2  0  0  0
  7  8  1  0  0  0
  8  9  2  0  0  0
  6 21  1  0  0  0
 21 22  1  0  0  0
 22 23  1  0  0  0
 23 24  1  0  0  0
 24 25  1  0  0  0
 25 26  1  0  0  0
 24 27  1  0  0  0
 27 29  1  0  0  0
 29 30  2  0  0  0
 29 31  2  0  0  0
 29 32  1  0  0  0
 13 16  1  0  0  0
 12 19  1  0  0  0
 19 20  1  0  0  0
 15 10  1  0  0  0
  9  1  1  0  0  0
  8  3  1  0  0  0
 26 21  1  0  0  0
 27 28  1  0  0  0
M  END
>  <minimizedAffinity>
-5.98084

>  <minimizedRMSD>
1.74008

$$$$
CHEMBL5201797 MCULE-2317063631 MolPort-051-578-800


 36 39  0  0  0  0  0  0  0  0999 V2000
   15.3072   -8.7064   15.8860 C   0  0  0  0  0  0  0  0  0  0  0  0
   15.7822   -8.7550   17.2472 N   0  0  0  0  0  0  0  0  0  0  0  0
   17.0150   -9.4834   17.5310 C   0  0  0  0  0  0  0  0  0  0  0  0
   14.4504   -7.8478   15.5378 O   0  0  0  0  0  0  0  0  0  0  0  0
   15.0899   -8.1025   18.3342 C   0  0  0  0  0  0  0  0  0  0  0  0
   15.7124   -7.9530   19.5840 C   0  0  0  0  0  0  0  0  0  0  0  0
   15.0424   -7.3414   20.6456 C   0  0  0  0  0  0  0  0  0  0  0  0
   13.7349   -6.8760   20.4806 C   0  0  0  0  0  0  0  0  0  0  0  0
   13.0978   -7.0211   19.2347 C   0  0  0  0  0  0  0  0  0  0  0  0
   11.7042   -6.5401   19.0096 C   0  0  0  0  0  0  0  0  0  0  0  0
   13.7750   -7.6350   18.1772 C   0  0  0  0  0  0  0  0  0  0  0  0
   13.0572   -6.2080   21.6340 C   0  0  0  0  0  0  0  0  0  0  0  0
   13.3585   -4.7786   21.6367 N   0  0  0  0  0  0  0  0  0  0  0  0
   14.2758   -4.4620   22.7419 C   0  0  0  0  0  0  0  0  0  0  0  0
   13.5909   -4.5751   24.1080 C   0  0  0  0  0  0  0  0  0  0  0  0
   12.4321   -3.6905   24.1539 N   0  0  0  0  0  0  0  0  0  0  0  0
   11.4819   -4.1408   23.1434 C   0  0  0  0  0  0  0  0  0  0  0  0
   10.2311   -3.2909   23.2116 C   0  0  0  0  0  0  0  0  0  0  0  0
   12.1076   -4.0163   21.7499 C   0  0  0  0  0  0  0  0  0  0  0  0
   12.7200   -2.7322   23.9559 H   0  0  0  0  0  0  0  0  0  0  0  0
   15.8401   -9.6603   14.8591 C   0  0  0  0  0  0  0  0  0  0  0  0
   17.2078  -10.2079   15.2934 C   0  0  0  0  0  0  0  0  0  0  0  0
   17.9963  -10.7158   14.0911 C   0  0  0  0  0  0  0  0  0  0  0  0
   18.2872   -9.5851   13.0941 C   0  0  0  0  0  0  0  0  0  0  0  0
   17.2269   -8.4739   13.0980 C   0  0  0  0  0  0  0  0  0  0  0  0
   15.8459   -9.0157   13.4629 C   0  0  0  0  0  0  0  0  0  0  0  0
   18.4057  -10.1296   11.7862 O   0  0  0  0  0  0  0  0  0  0  0  0
   18.6253   -9.3379   10.6553 C   0  0  0  0  0  0  0  0  0  0  0  0
   19.7808   -8.5505   10.5203 C   0  0  0  0  0  0  0  0  0  0  0  0
   19.9730   -7.7721    9.3753 C   0  0  0  0  0  0  0  0  0  0  0  0
   19.0123   -7.7735    8.3604 C   0  0  0  0  0  0  0  0  0  0  0  0
   17.8565   -8.5498    8.4919 C   0  0  0  0  0  0  0  0  0  0  0  0
   17.6686   -9.3347    9.6345 C   0  0  0  0  0  0  0  0  0  0  0  0
   16.8439   -8.5672    7.4020 C   0  0  0  0  0  0  0  0  0  0  0  0
   16.7194   -9.8608    6.8940 O   0  0  0  0  0  0  0  0  0  0  0  0
   17.5741  -10.1529    6.5403 H   0  0  0  0  0  0  0  0  0  0  0  0
 21  1  1  0  0  0
  1  2  1  0  0  0
  2  3  1  0  0  0
  2  5  1  0  0  0
  5  6  2  0  0  0
  6  7  1  0  0  0
  7  8  2  0  0  0
  8 12  1  0  0  0
 12 13  1  0  0  0
 13 14  1  0  0  0
 14 15  1  0  0  0
 15 16  1  0  0  0
 16 17  1  0  0  0
 17 18  1  0  0  0
 17 19  1  0  0  0
  8  9  1  0  0  0
  9 10  1  0  0  0
  9 11  2  0  0  0
  1  4  2  0  0  0
 21 22  1  0  0  0
 22 23  1  0  0  0
 23 24  1  0  0  0
 24 27  1  0  0  0
 27 28  1  0  0  0
 28 29  2  0  0  0
 29 30  1  0  0  0
 30 31  2  0  0  0
 31 32  1  0  0  0
 32 34  1  0  0  0
 34 35  1  0  0  0
 32 33  2  0  0  0
 24 25  1  0  0  0
 25 26  1  0  0  0
 26 21  1  0  0  0
 11  5  1  0  0  0
 33 28  1  0  0  0
 19 13  1  0  0  0
 16 20  1  0  0  0
 35 36  1  0  0  0
M  END
>  <minimizedAffinity>
-5.97279

>  <minimizedRMSD>
1.37930

$$$$
CHEMBL4585143 PubChem-135335224


 32 34  0  0  0  0  0  0  0  0999 V2000
   16.5326   -8.8879   13.9604 C   0  0  0  0  0  0  0  0  0  0  0  0
   15.8558   -7.9403   14.7474 C   0  0  0  0  0  0  0  0  0  0  0  0
   15.7386   -8.1934   16.1116 C   0  0  0  0  0  0  0  0  0  0  0  0
   15.1281   -7.4017   17.0095 N   0  0  0  0  0  0  0  0  0  0  0  0
   15.2846   -8.0796   18.1749 C   0  0  0  0  0  0  0  0  0  0  0  0
   15.9848   -9.2675   17.9677 C   0  0  0  0  0  0  0  0  0  0  0  0
   16.2537   -9.3045   16.6557 N   0  0  0  0  0  0  0  0  0  0  0  0
   16.9138  -10.2501   15.9449 C   0  0  0  0  0  0  0  0  0  0  0  0
   17.0633  -10.0499   14.5653 C   0  0  0  0  0  0  0  0  0  0  0  0
   14.7765   -7.6129   19.4871 C   0  0  0  0  0  0  0  0  0  0  0  0
   15.7009   -7.2070   20.4611 C   0  0  0  0  0  0  0  0  0  0  0  0
   15.2805   -6.7585   21.7140 C   0  0  0  0  0  0  0  0  0  0  0  0
   13.9153   -6.7072   22.0188 C   0  0  0  0  0  0  0  0  0  0  0  0
   12.9837   -7.1107   21.0521 C   0  0  0  0  0  0  0  0  0  0  0  0
   13.3965   -7.5635   19.7884 C   0  0  0  0  0  0  0  0  0  0  0  0
   16.4856   -6.2646   22.8895 Cl  0  0  0  0  0  0  0  0  0  0  0  0
   12.4502   -7.9622   18.8364 O   0  0  0  0  0  0  0  0  0  0  0  0
   11.6319   -7.0419   18.1266 C   0  0  0  0  0  0  0  0  0  0  0  0
   13.5046   -6.2559   23.2781 O   0  0  0  0  0  0  0  0  0  0  0  0
   12.9422   -4.9678   23.4880 C   0  0  0  0  0  0  0  0  0  0  0  0
   17.5232   -9.3260   11.6347 C   0  0  0  0  0  0  0  0  0  0  0  0
   18.3118  -10.2246   12.0365 O   0  0  0  0  0  0  0  0  0  0  0  0
   16.6588   -8.6435   12.5533 N   0  0  0  0  0  0  0  0  0  0  0  0
   16.0918   -7.9317   12.1778 H   0  0  0  0  0  0  0  0  0  0  0  0
   17.4912   -8.9435   10.1780 C   0  0  0  0  0  0  0  0  0  0  0  0
   18.7736   -9.2035    9.5368 N   0  0  0  0  0  0  0  0  0  0  0  0
   19.4491   -7.9251    9.3980 C   0  0  0  0  0  0  0  0  0  0  0  0
   18.6271   -9.6232    8.6188 H   0  0  0  0  0  0  0  0  0  0  0  0
   16.3573   -9.6264    9.3935 C   0  0  0  0  0  0  0  0  0  0  0  0
   16.8569  -10.2984    8.1236 C   0  0  0  0  0  0  0  0  0  0  0  0
   14.2127  -10.0787   10.5885 C   0  0  0  0  0  0  0  0  0  0  0  0
   15.5854  -10.6248   10.2434 C   0  0  0  0  0  0  0  0  0  0  0  0
 31 32  1  0  0  0
 32 29  1  0  0  0
 29 30  1  0  0  0
 29 25  1  0  0  0
 25 21  1  0  0  0
 21 22  2  0  0  0
 21 23  1  0  0  0
 23  1  1  0  0  0
  1  2  2  0  0  0
  2  3  1  0  0  0
  3  4  2  0  0  0
  4  5  1  0  0  0
  5  6  2  0  0  0
  6  7  1  0  0  0
  7  8  1  0  0  0
  8  9  2  0  0  0
  5 10  1  0  0  0
 10 11  2  0  0  0
 11 12  1  0  0  0
 12 13  2  0  0  0
 13 14  1  0  0  0
 14 15  2  0  0  0
 15 17  1  0  0  0
 17 18  1  0  0  0
 13 19  1  0  0  0
 19 20  1  0  0  0
 12 16  1  0  0  0
 25 26  1  0  0  0
 26 27  1  0  0  0
  9  1  1  0  0  0
  7  3  1  0  0  0
 15 10  1  0  0  0
 23 24  1  0  0  0
 26 28  1  0  0  0
M  END
>  <minimizedAffinity>
-5.94473

>  <minimizedRMSD>
1.20845

$$$$
CHEMBL3892475 PubChem-118983114


 28 30  0  0  0  0  0  0  0  0999 V2000
   16.1747   -8.4218   18.0066 N   0  0  0  0  0  0  0  0  0  0  0  0
   16.9911   -8.6456   18.5092 H   0  0  0  0  0  0  0  0  0  0  0  0
   16.1747   -8.7575   16.6123 C   0  0  0  0  0  0  0  0  0  0  0  0
   15.0159   -8.8288   15.9026 N   0  0  0  0  0  0  0  0  0  0  0  0
   15.0195   -9.1379   14.5807 C   0  0  0  0  0  0  0  0  0  0  0  0
   16.2232   -9.3868   13.9260 C   0  0  0  0  0  0  0  0  0  0  0  0
   16.2125   -9.7424   12.4680 C   0  0  0  0  0  0  0  0  0  0  0  0
   17.5634   -9.7237   11.9120 N   0  0  0  0  0  0  0  0  0  0  0  0
   18.6516  -10.2871   12.7014 C   0  0  0  0  0  0  0  0  0  0  0  0
   18.7563   -9.5586   14.0385 C   0  0  0  0  0  0  0  0  0  0  0  0
   17.4138   -9.3276   14.6736 C   0  0  0  0  0  0  0  0  0  0  0  0
   17.3589   -9.0030   15.9918 N   0  0  0  0  0  0  0  0  0  0  0  0
   17.7839   -9.3518   10.5464 C   0  0  0  0  0  0  0  0  0  0  0  0
   16.8197   -8.9479    9.8386 O   0  0  0  0  0  0  0  0  0  0  0  0
   19.0690   -9.4326   10.0036 O   0  0  0  0  0  0  0  0  0  0  0  0
   19.7821   -8.2774    9.5889 C   0  0  0  0  0  0  0  0  0  0  0  0
   14.3116   -6.9578   20.8942 C   0  0  0  0  0  0  0  0  0  0  0  0
   15.3095   -7.5627   20.1130 C   0  0  0  0  0  0  0  0  0  0  0  0
   15.1203   -7.7970   18.7521 C   0  0  0  0  0  0  0  0  0  0  0  0
   13.9121   -7.4219   18.1598 C   0  0  0  0  0  0  0  0  0  0  0  0
   12.8975   -6.8161   18.9139 C   0  0  0  0  0  0  0  0  0  0  0  0
   13.0874   -6.5794   20.2861 C   0  0  0  0  0  0  0  0  0  0  0  0
   15.8249   -6.7449   22.8480 C   0  0  0  0  0  0  0  0  0  0  0  0
   14.5310   -6.7339   22.2586 O   0  0  0  0  0  0  0  0  0  0  0  0
   12.0330   -5.9696   20.9870 O   0  0  0  0  0  0  0  0  0  0  0  0
   11.9257   -4.5784   21.2517 C   0  0  0  0  0  0  0  0  0  0  0  0
   11.6872   -6.4406   18.3191 O   0  0  0  0  0  0  0  0  0  0  0  0
   10.7784   -7.3806   17.7616 C   0  0  0  0  0  0  0  0  0  0  0  0
 23 24  1  0  0  0
 24 17  1  0  0  0
 17 18  2  0  0  0
 18 19  1  0  0  0
 19 20  2  0  0  0
 20 21  1  0  0  0
 21 22  2  0  0  0
 22 25  1  0  0  0
 25 26  1  0  0  0
 21 27  1  0  0  0
 27 28  1  0  0  0
 19  1  1  0  0  0
  1  3  1  0  0  0
  3  4  2  0  0  0
  4  5  1  0  0  0
  5  6  2  0  0  0
  6  7  1  0  0  0
  7  8  1  0  0  0
  8  9  1  0  0  0
  9 10  1  0  0  0
 10 11  1  0  0  0
 11 12  2  0  0  0
  8 13  1  0  0  0
 13 14  2  0  0  0
 13 15  1  0  0  0
 15 16  1  0  0  0
 22 17  1  0  0  0
 12  3  1  0  0  0
 11  6  1  0  0  0
  1  2  1  0  0  0
M  END
>  <minimizedAffinity>
-5.92296

>  <minimizedRMSD>
1.56900

$$$$
CHEMBL4868411 PubChem-156304966


 35 40  0  0  0  0  0  0  0  0999 V2000
   15.3698   -8.2891   16.7193 C   0  0  0  0  0  0  0  0  0  0  0  0
   15.3730   -8.5978   15.3946 N   0  0  0  0  0  0  0  0  0  0  0  0
   16.4032   -9.2873   14.8408 C   0  0  0  0  0  0  0  0  0  0  0  0
   16.3951   -9.5982   13.4804 C   0  0  0  0  0  0  0  0  0  0  0  0
   17.4607  -10.3118   12.9066 C   0  0  0  0  0  0  0  0  0  0  0  0
   18.5413  -10.7120   13.7189 C   0  0  0  0  0  0  0  0  0  0  0  0
   18.5480  -10.3996   15.0828 C   0  0  0  0  0  0  0  0  0  0  0  0
   17.4847   -9.6907   15.6422 C   0  0  0  0  0  0  0  0  0  0  0  0
   17.4649   -9.3664   16.9954 C   0  0  0  0  0  0  0  0  0  0  0  0
   16.4129   -8.6749   17.5068 N   0  0  0  0  0  0  0  0  0  0  0  0
   19.9033  -11.6065   13.0610 Cl  0  0  0  0  0  0  0  0  0  0  0  0
   17.4534  -10.6480   11.4383 C   0  0  0  0  0  0  0  0  0  0  0  0
   18.7684  -10.3262   10.7325 C   0  0  0  0  0  0  0  0  0  0  0  0
   18.8908   -8.8317   10.4228 C   0  0  0  0  0  0  0  0  0  0  0  0
   17.7259   -8.2974    9.6968 N   0  0  0  0  0  0  0  0  0  0  0  0
   16.4513   -8.5823   10.3777 C   0  0  0  0  0  0  0  0  0  0  0  0
   16.2573  -10.0695   10.6860 C   0  0  0  0  0  0  0  0  0  0  0  0
   17.7185   -8.6308    8.2595 C   0  0  0  0  0  0  0  0  0  0  0  0
   19.0063   -8.2712    7.5739 C   0  0  0  0  0  0  0  0  0  0  0  0
   18.3970   -7.2544    6.8190 O   0  0  0  0  0  0  0  0  0  0  0  0
   17.1519   -7.5275    7.4110 C   0  0  0  0  0  0  0  0  0  0  0  0
   17.1992  -10.0098    7.8714 C   0  0  0  0  0  0  0  0  0  0  0  0
   14.2636   -7.5606   17.2635 N   0  0  0  0  0  0  0  0  0  0  0  0
   13.5361   -7.3217   16.6447 H   0  0  0  0  0  0  0  0  0  0  0  0
   12.0497   -5.6713   18.3375 C   0  0  0  0  0  0  0  0  0  0  0  0
   13.1471   -6.3135   19.1174 C   0  0  0  0  0  0  0  0  0  0  0  0
   14.1212   -7.1482   18.6284 C   0  0  0  0  0  0  0  0  0  0  0  0
   14.9142   -7.4984   19.7090 C   0  0  0  0  0  0  0  0  0  0  0  0
   14.4121   -6.8808   20.8017 N   0  0  0  0  0  0  0  0  0  0  0  0
   13.3517   -6.1712   20.4378 N   0  0  0  0  0  0  0  0  0  0  0  0
   12.5410   -5.3683   21.3487 C   0  0  0  0  0  0  0  0  0  0  0  0
   12.7548   -5.8141   22.7657 C   0  0  0  0  0  0  0  0  0  0  0  0
   13.2425   -4.5671   23.4630 C   0  0  0  0  0  0  0  0  0  0  0  0
   13.7669   -3.6973   22.4963 O   0  0  0  0  0  0  0  0  0  0  0  0
   13.0049   -3.9271   21.3411 C   0  0  0  0  0  0  0  0  0  0  0  0
 25 26  1  0  0  0
 26 27  2  0  0  0
 27 28  1  0  0  0
 28 29  2  0  0  0
 29 30  1  0  0  0
 30 31  1  0  0  0
 31 32  1  0  0  0
 32 33  1  0  0  0
 33 34  1  0  0  0
 34 35  1  0  0  0
 27 23  1  0  0  0
 23  1  1  0  0  0
  1  2  2  0  0  0
  2  3  1  0  0  0
  3  4  2  0  0  0
  4  5  1  0  0  0
  5  6  2  0  0  0
  6  7  1  0  0  0
  7  8  2  0  0  0
  8  9  1  0  0  0
  9 10  2  0  0  0
  6 11  1  0  0  0
  5 12  1  0  0  0
 12 13  1  0  0  0
 13 14  1  0  0  0
 14 15  1  0  0  0
 15 16  1  0  0  0
 16 17  1  0  0  0
 15 18  1  0  0  0
 18 19  1  0  0  0
 19 20  1  0  0  0
 20 21  1  0  0  0
 18 22  1  0  0  0
 30 26  1  0  0  0
 35 31  1  0  0  0
 10  1  1  0  0  0
  8  3  1  0  0  0
 17 12  1  0  0  0
 21 18  1  0  0  0
 23 24  1  0  0  0
M  END
>  <minimizedAffinity>
-5.91343

>  <minimizedRMSD>
1.84336

$$$$
CHEMBL4082181 PubChem-137645533


 30 32  0  0  0  0  0  0  0  0999 V2000
   15.5154   -8.5649   16.7563 C   0  0  0  0  0  0  0  0  0  0  0  0
   16.5477   -9.4188   16.6500 N   0  0  0  0  0  0  0  0  0  0  0  0
   17.4118   -8.7676   15.8541 C   0  0  0  0  0  0  0  0  0  0  0  0
   16.9353   -7.5598   15.4956 N   0  0  0  0  0  0  0  0  0  0  0  0
   15.7445   -7.4307   16.0659 N   0  0  0  0  0  0  0  0  0  0  0  0
   16.6978  -10.7319   17.2572 C   0  0  0  0  0  0  0  0  0  0  0  0
   14.2988   -8.7971   17.5909 C   0  0  0  0  0  0  0  0  0  0  0  0
   10.8396   -6.3871   18.5600 C   0  0  0  0  0  0  0  0  0  0  0  0
   10.8875   -5.4858   19.6259 C   0  0  0  0  0  0  0  0  0  0  0  0
   12.0510   -5.3662   20.3901 C   0  0  0  0  0  0  0  0  0  0  0  0
   13.1771   -6.1488   20.0927 C   0  0  0  0  0  0  0  0  0  0  0  0
   13.1293   -7.0592   19.0161 C   0  0  0  0  0  0  0  0  0  0  0  0
   11.9550   -7.1713   18.2556 C   0  0  0  0  0  0  0  0  0  0  0  0
   14.2642   -7.8329   18.7348 C   0  0  0  0  0  0  0  0  0  0  0  0
   15.3777   -7.6795   19.4981 N   0  0  0  0  0  0  0  0  0  0  0  0
   15.4306   -6.8216   20.5192 N   0  0  0  0  0  0  0  0  0  0  0  0
   14.3555   -6.0437   20.8446 C   0  0  0  0  0  0  0  0  0  0  0  0
   14.4223   -5.2360   21.8137 O   0  0  0  0  0  0  0  0  0  0  0  0
   16.6679   -6.7307   21.2791 C   0  0  0  0  0  0  0  0  0  0  0  0
   19.0056   -9.4029   15.3388 S   0  0  0  0  0  0  0  0  0  0  0  0
   18.2654  -10.8865   14.5911 C   0  0  0  0  0  0  0  0  0  0  0  0
   18.5497  -10.9335   13.0973 C   0  0  0  0  0  0  0  0  0  0  0  0
   18.0215   -9.6923   12.3887 C   0  0  0  0  0  0  0  0  0  0  0  0
   16.5043   -9.7345   12.2473 C   0  0  0  0  0  0  0  0  0  0  0  0
   16.0892  -10.0082   10.8101 C   0  0  0  0  0  0  0  0  0  0  0  0
   17.1941   -9.6008    9.8545 C   0  0  0  0  0  0  0  0  0  0  0  0
   16.5940   -9.2585    8.5046 C   0  0  0  0  0  0  0  0  0  0  0  0
   17.6556   -9.3095    7.4168 C   0  0  0  0  0  0  0  0  0  0  0  0
   18.0950   -7.9118    7.0082 C   0  0  0  0  0  0  0  0  0  0  0  0
   19.1696   -7.3923    7.9441 C   0  0  0  0  0  0  0  0  0  0  0  0
  8  9  2  0  0  0
  9 10  1  0  0  0
 10 11  2  0  0  0
 11 12  1  0  0  0
 12 13  2  0  0  0
 12 14  1  0  0  0
 14 15  2  0  0  0
 15 16  1  0  0  0
 16 17  1  0  0  0
 17 18  2  0  0  0
 16 19  1  0  0  0
 14  7  1  0  0  0
  7  1  1  0  0  0
  1  2  1  0  0  0
  2  3  1  0  0  0
  3  4  2  0  0  0
  4  5  1  0  0  0
  3 20  1  0  0  0
 20 21  1  0  0  0
 21 22  1  0  0  0
 22 23  1  0  0  0
 23 24  1  0  0  0
 24 25  1  0  0  0
 25 26  1  0  0  0
 26 27  1  0  0  0
 27 28  1  0  0  0
 28 29  1  0  0  0
 29 30  1  0  0  0
  2  6  1  0  0  0
 13  8  1  0  0  0
  5  1  2  0  0  0
 17 11  1  0  0  0
M  END
>  <minimizedAffinity>
-5.90171

>  <minimizedRMSD>
1.92853

$$$$
CHEMBL4097347 PubChem-137661559


 36 39  0  0  0  0  0  0  0  0999 V2000
   17.6816  -10.7358   14.0544 N   0  0  0  0  0  0  0  0  0  0  0  0
   17.0086   -9.9545   14.9128 C   0  0  0  0  0  0  0  0  0  0  0  0
   16.1575   -8.8821   14.6889 C   0  0  0  0  0  0  0  0  0  0  0  0
   15.6131   -8.2762   15.7869 N   0  0  0  0  0  0  0  0  0  0  0  0
   15.8772   -8.6875   17.0754 C   0  0  0  0  0  0  0  0  0  0  0  0
   16.7475   -9.7831   17.2898 C   0  0  0  0  0  0  0  0  0  0  0  0
   17.2908  -10.3859   16.1637 C   0  0  0  0  0  0  0  0  0  0  0  0
   18.1353  -11.4308   16.0855 N   0  0  0  0  0  0  0  0  0  0  0  0
   18.3548  -11.6199   14.7838 N   0  0  0  0  0  0  0  0  0  0  0  0
   17.2021   -9.4255   10.0926 N   0  0  0  0  0  0  0  0  0  0  0  0
   16.0741   -9.4915   11.0217 C   0  0  0  0  0  0  0  0  0  0  0  0
   16.2813  -10.6236   12.0291 C   0  0  0  0  0  0  0  0  0  0  0  0
   17.7110  -10.6796   12.5975 C   0  0  0  0  0  0  0  0  0  0  0  0
   18.6112   -9.5369   12.1199 C   0  0  0  0  0  0  0  0  0  0  0  0
   18.5782   -9.4419   10.5963 C   0  0  0  0  0  0  0  0  0  0  0  0
   16.9666   -9.2810    8.6868 C   0  0  0  0  0  0  0  0  0  0  0  0
   15.7848   -9.2383    8.2452 O   0  0  0  0  0  0  0  0  0  0  0  0
   18.0501   -9.1853    7.8070 O   0  0  0  0  0  0  0  0  0  0  0  0
   18.2316   -8.0763    6.9352 C   0  0  0  0  0  0  0  0  0  0  0  0
   19.0775   -7.0287    7.6272 C   0  0  0  0  0  0  0  0  0  0  0  0
   18.9331   -8.5216    5.6658 C   0  0  0  0  0  0  0  0  0  0  0  0
   15.2407   -7.9697   18.2120 C   0  0  0  0  0  0  0  0  0  0  0  0
   15.9726   -7.4427   19.2993 C   0  0  0  0  0  0  0  0  0  0  0  0
   15.3098   -6.7792   20.3345 C   0  0  0  0  0  0  0  0  0  0  0  0
   13.9178   -6.6198   20.3231 C   0  0  0  0  0  0  0  0  0  0  0  0
   13.1858   -7.1446   19.2401 C   0  0  0  0  0  0  0  0  0  0  0  0
   13.8476   -7.8082   18.2048 C   0  0  0  0  0  0  0  0  0  0  0  0
   11.8370   -7.0243   19.1700 F   0  0  0  0  0  0  0  0  0  0  0  0
   17.3212   -7.5594   19.3769 F   0  0  0  0  0  0  0  0  0  0  0  0
   13.2688   -5.9075   21.4482 C   0  0  0  0  0  0  0  0  0  0  0  0
   13.6922   -6.0809   22.6244 O   0  0  0  0  0  0  0  0  0  0  0  0
   12.1692   -5.0208   21.2172 N   0  0  0  0  0  0  0  0  0  0  0  0
   11.8657   -4.8783   20.2915 H   0  0  0  0  0  0  0  0  0  0  0  0
   11.4803   -4.3206   22.2909 C   0  0  0  0  0  0  0  0  0  0  0  0
   10.5730   -5.2805   23.0363 C   0  0  0  0  0  0  0  0  0  0  0  0
   10.6450   -3.2024   21.7045 C   0  0  0  0  0  0  0  0  0  0  0  0
 10 11  1  0  0  0
 11 12  1  0  0  0
 12 13  1  0  0  0
 13 14  1  0  0  0
 14 15  1  0  0  0
 13  1  1  0  0  0
  1  2  1  0  0  0
  2  3  2  0  0  0
  3  4  1  0  0  0
  4  5  2  0  0  0
  5  6  1  0  0  0
  6  7  2  0  0  0
  7  8  1  0  0  0
  8  9  2  0  0  0
  5 22  1  0  0  0
 22 23  2  0  0  0
 23 24  1  0  0  0
 24 25  2  0  0  0
 25 26  1  0  0  0
 26 27  2  0  0  0
 26 28  1  0  0  0
 25 30  1  0  0  0
 30 31  2  0  0  0
 30 32  1  0  0  0
 32 34  1  0  0  0
 34 35  1  0  0  0
 34 36  1  0  0  0
 23 29  1  0  0  0
 10 16  1  0  0  0
 16 17  2  0  0  0
 16 18  1  0  0  0
 18 19  1  0  0  0
 19 20  1  0  0  0
 19 21  1  0  0  0
 15 10  1  0  0  0
  9  1  1  0  0  0
 27 22  1  0  0  0
  7  2  1  0  0  0
 32 33  1  0  0  0
M  END
>  <minimizedAffinity>
-5.86596

>  <minimizedRMSD>
1.88037

$$$$
CHEMBL3344414 PubChem-118717772


 36 39  0  0  0  0  0  0  0  0999 V2000
   16.9140   -9.1638   16.8417 N   0  0  0  0  0  0  0  0  0  0  0  0
   16.4144   -8.7418   17.9628 O   0  0  0  0  0  0  0  0  0  0  0  0
   15.2865   -8.1087   17.7422 C   0  0  0  0  0  0  0  0  0  0  0  0
   14.9872   -8.0866   16.4267 N   0  0  0  0  0  0  0  0  0  0  0  0
   16.0353   -8.7573   15.9059 C   0  0  0  0  0  0  0  0  0  0  0  0
   16.1904   -9.0203   14.5071 N   0  0  0  0  0  0  0  0  0  0  0  0
   16.6215   -7.9570   13.6018 C   0  0  0  0  0  0  0  0  0  0  0  0
   17.6314   -8.5096   12.6006 C   0  0  0  0  0  0  0  0  0  0  0  0
   17.1161   -9.7468   12.0175 N   0  0  0  0  0  0  0  0  0  0  0  0
   16.7278  -10.8126   12.9378 C   0  0  0  0  0  0  0  0  0  0  0  0
   15.7076  -10.2764   13.9372 C   0  0  0  0  0  0  0  0  0  0  0  0
   16.8264   -9.8681   10.6123 C   0  0  0  0  0  0  0  0  0  0  0  0
   15.9657  -10.7108   10.2356 O   0  0  0  0  0  0  0  0  0  0  0  0
   17.5099   -9.0442    9.5869 C   0  0  0  0  0  0  0  0  0  0  0  0
   18.7279   -8.4023    9.8584 C   0  0  0  0  0  0  0  0  0  0  0  0
   19.3720   -7.6515    8.8709 C   0  0  0  0  0  0  0  0  0  0  0  0
   18.8077   -7.5418    7.5978 C   0  0  0  0  0  0  0  0  0  0  0  0
   17.6014   -8.1858    7.3119 C   0  0  0  0  0  0  0  0  0  0  0  0
   16.9584   -8.9361    8.3006 C   0  0  0  0  0  0  0  0  0  0  0  0
   14.4374   -7.4922   18.7857 C   0  0  0  0  0  0  0  0  0  0  0  0
   13.0559   -7.4213   18.5549 C   0  0  0  0  0  0  0  0  0  0  0  0
   12.1963   -6.8525   19.4963 C   0  0  0  0  0  0  0  0  0  0  0  0
   12.7058   -6.3395   20.6925 C   0  0  0  0  0  0  0  0  0  0  0  0
   14.0848   -6.4079   20.9351 C   0  0  0  0  0  0  0  0  0  0  0  0
   14.9530   -6.9757   19.9979 C   0  0  0  0  0  0  0  0  0  0  0  0
   16.6622   -7.0048   20.4083 Cl  0  0  0  0  0  0  0  0  0  0  0  0
   10.8660   -6.7994   19.2414 F   0  0  0  0  0  0  0  0  0  0  0  0
   11.8273   -5.7754   21.6245 O   0  0  0  0  0  0  0  0  0  0  0  0
   12.2119   -5.4440   22.9567 C   0  0  0  0  0  0  0  0  0  0  0  0
   12.2871   -3.9315   23.1531 C   0  0  0  0  0  0  0  0  0  0  0  0
   13.5449   -3.4148   22.6429 N   0  0  0  0  0  0  0  0  0  0  0  0
   13.6060   -3.5970   21.6412 H   0  0  0  0  0  0  0  0  0  0  0  0
   14.3200   -3.8749   23.1202 H   0  0  0  0  0  0  0  0  0  0  0  0
   11.1272   -3.2261   22.4696 C   0  0  0  0  0  0  0  0  0  0  0  0
   10.1046   -2.9887   23.3886 O   0  0  0  0  0  0  0  0  0  0  0  0
    9.7922   -3.8330   23.7499 H   0  0  0  0  0  0  0  0  0  0  0  0
  1  2  1  0  0  0
  2  3  1  0  0  0
  3  4  2  0  0  0
  4  5  1  0  0  0
  5  6  1  0  0  0
  6  7  1  0  0  0
  7  8  1  0  0  0
  8  9  1  0  0  0
  9 10  1  0  0  0
 10 11  1  0  0  0
  9 12  1  0  0  0
 12 13  2  0  0  0
 12 14  1  0  0  0
 14 15  2  0  0  0
 15 16  1  0  0  0
 16 17  2  0  0  0
 17 18  1  0  0  0
 18 19  2  0  0  0
  3 20  1  0  0  0
 20 21  2  0  0  0
 21 22  1  0  0  0
 22 23  2  0  0  0
 23 24  1  0  0  0
 24 25  2  0  0  0
 25 26  1  0  0  0
 23 28  1  0  0  0
 28 29  1  0  0  0
 30 29  1  0  0  0
 30 34  1  0  0  0
 34 35  1  0  0  0
 30 31  1  0  0  0
 22 27  1  0  0  0
  5  1  2  0  0  0
 11  6  1  0  0  0
 19 14  1  0  0  0
 25 20  1  0  0  0
 35 36  1  0  0  0
 31 32  1  0  0  0
 31 33  1  0  0  0
M  END
>  <minimizedAffinity>
-5.85842

>  <minimizedRMSD>
1.83555

$$$$
CHEMBL4226647 PubChem-135373178


 28 28  0  0  0  0  0  0  0  0999 V2000
   14.9161   -7.9710   17.7830 C   0  0  0  0  0  0  0  0  0  0  0  0
   13.7003   -8.2620   17.6282 O   0  0  0  0  0  0  0  0  0  0  0  0
   15.4972   -7.9348   19.0882 N   0  0  0  0  0  0  0  0  0  0  0  0
   16.4595   -7.7436   19.1702 H   0  0  0  0  0  0  0  0  0  0  0  0
   15.7649   -7.6928   16.5904 C   0  0  0  0  0  0  0  0  0  0  0  0
   16.6247   -8.7954   16.3266 O   0  0  0  0  0  0  0  0  0  0  0  0
   16.4605   -9.6264   15.2161 C   0  0  0  0  0  0  0  0  0  0  0  0
   15.3187   -9.8165   14.7152 O   0  0  0  0  0  0  0  0  0  0  0  0
   17.6547  -10.3050   14.6323 C   0  0  0  0  0  0  0  0  0  0  0  0
   18.0870   -9.6409   13.3346 C   0  0  0  0  0  0  0  0  0  0  0  0
   17.3363  -10.2341   12.1576 C   0  0  0  0  0  0  0  0  0  0  0  0
   17.5845   -9.3910   10.9256 C   0  0  0  0  0  0  0  0  0  0  0  0
   16.8504   -9.9951    9.7441 C   0  0  0  0  0  0  0  0  0  0  0  0
   16.6915   -8.9716    8.6304 C   0  0  0  0  0  0  0  0  0  0  0  0
   17.8843   -8.9936    7.6869 C   0  0  0  0  0  0  0  0  0  0  0  0
   19.5050   -7.4875    6.5790 C   0  0  0  0  0  0  0  0  0  0  0  0
   18.7187   -7.7373    7.8483 C   0  0  0  0  0  0  0  0  0  0  0  0
   14.7271   -8.1686   20.3025 C   0  0  0  0  0  0  0  0  0  0  0  0
   14.3503   -6.8731   20.9377 C   0  0  0  0  0  0  0  0  0  0  0  0
   13.2619   -6.1451   20.4479 C   0  0  0  0  0  0  0  0  0  0  0  0
   12.9083   -4.9161   21.0291 C   0  0  0  0  0  0  0  0  0  0  0  0
   13.6603   -4.4244   22.1064 C   0  0  0  0  0  0  0  0  0  0  0  0
   14.7507   -5.1522   22.5929 C   0  0  0  0  0  0  0  0  0  0  0  0
   15.0965   -6.3737   22.0093 C   0  0  0  0  0  0  0  0  0  0  0  0
   13.3283   -3.2115   22.6968 O   0  0  0  0  0  0  0  0  0  0  0  0
   12.5989   -2.7185   22.3760 H   0  0  0  0  0  0  0  0  0  0  0  0
   11.8226   -4.1725   20.5543 O   0  0  0  0  0  0  0  0  0  0  0  0
   10.9553   -4.6454   19.5326 C   0  0  0  0  0  0  0  0  0  0  0  0
 16 17  1  0  0  0
 17 15  1  0  0  0
 15 14  1  0  0  0
 14 13  1  0  0  0
 13 12  1  0  0  0
 12 11  1  0  0  0
 11 10  1  0  0  0
 10  9  1  0  0  0
  9  7  1  0  0  0
  7  8  2  0  0  0
  7  6  1  0  0  0
  6  5  1  0  0  0
  5  1  1  0  0  0
  1  2  2  0  0  0
  1  3  1  0  0  0
  3 18  1  0  0  0
 18 19  1  0  0  0
 19 20  2  0  0  0
 20 21  1  0  0  0
 21 22  2  0  0  0
 22 23  1  0  0  0
 23 24  2  0  0  0
 22 25  1  0  0  0
 21 27  1  0  0  0
 27 28  1  0  0  0
 24 19  1  0  0  0
  3  4  1  0  0  0
 25 26  1  0  0  0
M  END
>  <minimizedAffinity>
-5.84932

>  <minimizedRMSD>
1.71097

$$$$
CHEMBL3344433 PubChem-118717791


 33 36  0  0  0  0  0  0  0  0999 V2000
   15.5877   -8.6074   16.9911 C   0  0  0  0  0  0  0  0  0  0  0  0
   16.4759   -8.6681   18.0011 N   0  0  0  0  0  0  0  0  0  0  0  0
   15.8946   -8.0497   18.9833 O   0  0  0  0  0  0  0  0  0  0  0  0
   14.7101   -7.6258   18.6097 C   0  0  0  0  0  0  0  0  0  0  0  0
   14.4536   -7.9582   17.3271 N   0  0  0  0  0  0  0  0  0  0  0  0
   17.6407   -9.7385   12.0135 C   0  0  0  0  0  0  0  0  0  0  0  0
   18.5242  -10.6334   11.8959 O   0  0  0  0  0  0  0  0  0  0  0  0
   17.2020   -9.3418   13.3228 N   0  0  0  0  0  0  0  0  0  0  0  0
   16.2832   -8.2168   13.5007 C   0  0  0  0  0  0  0  0  0  0  0  0
   15.2006   -8.5941   14.5073 C   0  0  0  0  0  0  0  0  0  0  0  0
   15.8241   -9.1686   15.6951 N   0  0  0  0  0  0  0  0  0  0  0  0
   16.7338  -10.2980   15.5249 C   0  0  0  0  0  0  0  0  0  0  0  0
   17.8153   -9.9309   14.5127 C   0  0  0  0  0  0  0  0  0  0  0  0
   17.0596   -9.1072    7.5486 C   0  0  0  0  0  0  0  0  0  0  0  0
   17.6475   -9.6981    8.8152 C   0  0  0  0  0  0  0  0  0  0  0  0
   18.6898  -10.7681    8.5514 C   0  0  0  0  0  0  0  0  0  0  0  0
   18.1251   -8.6406    9.7879 C   0  0  0  0  0  0  0  0  0  0  0  0
   17.0592   -9.0871   10.7840 C   0  0  0  0  0  0  0  0  0  0  0  0
   16.5869  -10.1472    9.7989 C   0  0  0  0  0  0  0  0  0  0  0  0
   13.7624   -6.8817   19.4685 C   0  0  0  0  0  0  0  0  0  0  0  0
   14.0720   -6.4718   20.7873 C   0  0  0  0  0  0  0  0  0  0  0  0
   15.6209   -6.7867   21.5552 Cl  0  0  0  0  0  0  0  0  0  0  0  0
   13.1233   -5.7691   21.5358 C   0  0  0  0  0  0  0  0  0  0  0  0
   11.8647   -5.4624   21.0010 C   0  0  0  0  0  0  0  0  0  0  0  0
   11.5564   -5.8737   19.7011 C   0  0  0  0  0  0  0  0  0  0  0  0
   12.4983   -6.5737   18.9448 C   0  0  0  0  0  0  0  0  0  0  0  0
   10.3407   -5.5993   19.1676 F   0  0  0  0  0  0  0  0  0  0  0  0
   10.9082   -4.7593   21.7432 O   0  0  0  0  0  0  0  0  0  0  0  0
   10.5616   -5.0948   23.0833 C   0  0  0  0  0  0  0  0  0  0  0  0
   10.6197   -3.8819   23.9472 C   0  0  0  0  0  0  0  0  0  0  0  0
    9.9383   -2.8652   23.6500 O   0  0  0  0  0  0  0  0  0  0  0  0
   11.4429   -3.8620   25.0650 O   0  0  0  0  0  0  0  0  0  0  0  0
   11.9502   -4.6179   25.2868 H   0  0  0  0  0  0  0  0  0  0  0  0
 14 15  1  0  0  0
 15 16  1  0  0  0
 15 17  1  0  0  0
 17 18  1  0  0  0
 18  6  1  0  0  0
  6  7  2  0  0  0
  6  8  1  0  0  0
  8  9  1  0  0  0
  9 10  1  0  0  0
 10 11  1  0  0  0
 11  1  1  0  0  0
  1  2  2  0  0  0
  2  3  1  0  0  0
  3  4  1  0  0  0
  4 20  1  0  0  0
 20 21  2  0  0  0
 21 22  1  0  0  0
 21 23  1  0  0  0
 23 24  2  0  0  0
 24 28  1  0  0  0
 28 29  1  0  0  0
 29 30  1  0  0  0
 30 31  2  0  0  0
 30 32  1  0  0  0
 24 25  1  0  0  0
 25 26  2  0  0  0
 25 27  1  0  0  0
  4  5  2  0  0  0
 11 12  1  0  0  0
 12 13  1  0  0  0
 18 19  1  0  0  0
 19 15  1  0  0  0
 13  8  1  0  0  0
  5  1  1  0  0  0
 26 20  1  0  0  0
 32 33  1  0  0  0
M  END
>  <minimizedAffinity>
-5.84200

>  <minimizedRMSD>
1.79170

$$$$
CHEMBL1861445 PubChem-56668465


 31 34  0  0  0  0  0  0  0  0999 V2000
   17.0739   -9.0116   17.2057 O   0  0  0  0  0  0  0  0  0  0  0  0
   15.8008   -8.6978   17.1120 C   0  0  0  0  0  0  0  0  0  0  0  0
   15.2475   -9.1171   15.9566 N   0  0  0  0  0  0  0  0  0  0  0  0
   16.2786   -9.7247   15.3430 C   0  0  0  0  0  0  0  0  0  0  0  0
   17.4186   -9.6535   16.1146 C   0  0  0  0  0  0  0  0  0  0  0  0
   15.0626   -7.9668   18.1518 C   0  0  0  0  0  0  0  0  0  0  0  0
   15.5929   -7.8498   19.4365 C   0  0  0  0  0  0  0  0  0  0  0  0
   14.8999   -7.1552   20.4384 C   0  0  0  0  0  0  0  0  0  0  0  0
   13.6555   -6.5660   20.1547 C   0  0  0  0  0  0  0  0  0  0  0  0
   13.1115   -6.6818   18.8497 C   0  0  0  0  0  0  0  0  0  0  0  0
   13.8270   -7.3831   17.8661 C   0  0  0  0  0  0  0  0  0  0  0  0
   11.8746   -6.1057   18.5373 O   0  0  0  0  0  0  0  0  0  0  0  0
   10.6413   -6.8018   18.6623 C   0  0  0  0  0  0  0  0  0  0  0  0
   13.0120   -5.8840   21.2014 O   0  0  0  0  0  0  0  0  0  0  0  0
   13.0613   -4.4804   21.4131 C   0  0  0  0  0  0  0  0  0  0  0  0
   15.4301   -7.0365   21.7284 O   0  0  0  0  0  0  0  0  0  0  0  0
   16.7146   -6.4853   21.9862 C   0  0  0  0  0  0  0  0  0  0  0  0
   16.1946  -10.3319   13.9851 C   0  0  0  0  0  0  0  0  0  0  0  0
   15.5592   -9.3994   13.0572 N   0  0  0  0  0  0  0  0  0  0  0  0
   16.4496   -8.2585   12.7861 C   0  0  0  0  0  0  0  0  0  0  0  0
   17.7033   -8.6705   12.0107 C   0  0  0  0  0  0  0  0  0  0  0  0
   17.3045   -9.4051   10.8169 N   0  0  0  0  0  0  0  0  0  0  0  0
   16.4179  -10.5458   11.0111 C   0  0  0  0  0  0  0  0  0  0  0  0
   15.1934  -10.1002   11.8168 C   0  0  0  0  0  0  0  0  0  0  0  0
   17.7363   -9.0016    9.5045 C   0  0  0  0  0  0  0  0  0  0  0  0
   18.7175   -8.0081    9.3495 C   0  0  0  0  0  0  0  0  0  0  0  0
   19.1365   -7.6159    8.0751 C   0  0  0  0  0  0  0  0  0  0  0  0
   18.5789   -8.2129    6.9419 C   0  0  0  0  0  0  0  0  0  0  0  0
   17.6026   -9.2020    7.0825 C   0  0  0  0  0  0  0  0  0  0  0  0
   17.1836   -9.5943    8.3570 C   0  0  0  0  0  0  0  0  0  0  0  0
   18.9850   -7.8328    5.7070 F   0  0  0  0  0  0  0  0  0  0  0  0
  1  2  1  0  0  0
  2  3  2  0  0  0
  3  4  1  0  0  0
  4  5  2  0  0  0
  4 18  1  0  0  0
 18 19  1  0  0  0
 19 20  1  0  0  0
 20 21  1  0  0  0
 21 22  1  0  0  0
 22 25  1  0  0  0
 25 26  2  0  0  0
 26 27  1  0  0  0
 27 28  2  0  0  0
 28 29  1  0  0  0
 29 30  2  0  0  0
 28 31  1  0  0  0
 22 23  1  0  0  0
 23 24  1  0  0  0
  2  6  1  0  0  0
  6  7  2  0  0  0
  7  8  1  0  0  0
  8  9  2  0  0  0
  9 10  1  0  0  0
 10 11  2  0  0  0
 10 12  1  0  0  0
 12 13  1  0  0  0
  9 14  1  0  0  0
 14 15  1  0  0  0
  8 16  1  0  0  0
 16 17  1  0  0  0
  5  1  1  0  0  0
 24 19  1  0  0  0
 11  6  1  0  0  0
 30 25  1  0  0  0
M  END
>  <minimizedAffinity>
-5.82981

>  <minimizedRMSD>
1.44328

$$$$
CHEMBL1404459 ChemDiv-C453-0261 MCULE-1970760854 MolPort-007-632-231 PubChem-16020362 ZINC000008596277 ZINC08596277


 35 38  0  0  0  0  0  0  0  0999 V2000
   16.4199   -8.9144   16.1349 C   0  0  0  0  0  0  0  0  0  0  0  0
   16.4301   -8.9157   14.7250 C   0  0  0  0  0  0  0  0  0  0  0  0
   17.4310   -9.7743   14.2897 C   0  0  0  0  0  0  0  0  0  0  0  0
   18.1279  -10.3792   15.2505 C   0  0  0  0  0  0  0  0  0  0  0  0
   17.6253   -9.9552   16.7850 S   0  0  0  0  0  0  0  0  0  0  0  0
   19.0623  -11.1846   14.7365 N   0  0  0  0  0  0  0  0  0  0  0  0
   20.0124  -12.0083   15.4619 C   0  0  0  0  0  0  0  0  0  0  0  0
   18.9772  -11.1072   13.4103 N   0  0  0  0  0  0  0  0  0  0  0  0
   17.9717  -10.2373   13.1025 C   0  0  0  0  0  0  0  0  0  0  0  0
   17.5670   -9.8841   11.7305 C   0  0  0  0  0  0  0  0  0  0  0  0
   16.2733  -10.1593   11.2722 C   0  0  0  0  0  0  0  0  0  0  0  0
   15.8766   -9.8301    9.9711 C   0  0  0  0  0  0  0  0  0  0  0  0
   16.8075   -9.2089    9.1013 C   0  0  0  0  0  0  0  0  0  0  0  0
   18.1033   -8.9328    9.5697 C   0  0  0  0  0  0  0  0  0  0  0  0
   18.4790   -9.2668   10.8705 C   0  0  0  0  0  0  0  0  0  0  0  0
   14.5579  -10.1427    9.6087 O   0  0  0  0  0  0  0  0  0  0  0  0
   13.4600  -10.1951   10.5077 C   0  0  0  0  0  0  0  0  0  0  0  0
   16.4473   -8.8737    7.7907 O   0  0  0  0  0  0  0  0  0  0  0  0
   17.2946   -8.1372    6.9186 C   0  0  0  0  0  0  0  0  0  0  0  0
   15.6401   -8.1055   18.3771 N   0  0  0  0  0  0  0  0  0  0  0  0
   15.4908   -8.1225   16.9502 C   0  0  0  0  0  0  0  0  0  0  0  0
   14.5703   -7.4696   16.3887 O   0  0  0  0  0  0  0  0  0  0  0  0
   16.3773   -8.6414   18.7494 H   0  0  0  0  0  0  0  0  0  0  0  0
   14.5810   -6.4728   21.5569 C   0  0  0  0  0  0  0  0  0  0  0  0
   15.3255   -7.1628   20.5972 C   0  0  0  0  0  0  0  0  0  0  0  0
   14.8283   -7.3897   19.3175 C   0  0  0  0  0  0  0  0  0  0  0  0
   13.5584   -6.9153   18.9884 C   0  0  0  0  0  0  0  0  0  0  0  0
   12.7786   -6.2163   19.9210 C   0  0  0  0  0  0  0  0  0  0  0  0
   13.2878   -5.9855   21.2270 C   0  0  0  0  0  0  0  0  0  0  0  0
   16.5832   -6.2486   23.0515 C   0  0  0  0  0  0  0  0  0  0  0  0
   15.1842   -6.3061   22.8138 O   0  0  0  0  0  0  0  0  0  0  0  0
   11.5088   -5.7531   19.5553 O   0  0  0  0  0  0  0  0  0  0  0  0
   11.3047   -4.5972   18.7530 C   0  0  0  0  0  0  0  0  0  0  0  0
   12.5577   -5.2891   22.2060 O   0  0  0  0  0  0  0  0  0  0  0  0
   12.5535   -3.8803   22.3872 C   0  0  0  0  0  0  0  0  0  0  0  0
 30 31  1  0  0  0
 31 24  1  0  0  0
 24 25  2  0  0  0
 25 26  1  0  0  0
 26 20  1  0  0  0
 26 27  2  0  0  0
 20 21  1  0  0  0
 21 22  2  0  0  0
 21  1  1  0  0  0
  1  2  2  0  0  0
  2  3  1  0  0  0
  3  4  2  0  0  0
  4  5  1  0  0  0
  4  6  1  0  0  0
  5  1  1  0  0  0
  6  7  1  0  0  0
  6  8  1  0  0  0
  8  9  2  0  0  0
  9 10  1  0  0  0
  9  3  1  0  0  0
 10 11  2  0  0  0
 11 12  1  0  0  0
 12 16  1  0  0  0
 12 13  2  0  0  0
 16 17  1  0  0  0
 13 18  1  0  0  0
 13 14  1  0  0  0
 18 19  1  0  0  0
 14 15  2  0  0  0
 15 10  1  0  0  0
 27 28  1  0  0  0
 28 32  1  0  0  0
 28 29  2  0  0  0
 32 33  1  0  0  0
 29 34  1  0  0  0
 29 24  1  0  0  0
 34 35  1  0  0  0
 20 23  1  0  0  0
M  END
>  <minimizedAffinity>
-5.82211

>  <minimizedRMSD>
1.85830

$$$$
CHEMBL1387770 5208303 MCULE-7379691817 NSC215684 PubChem-310759 ZINC000005208303 ZINC05208303


 24 25  0  0  0  0  0  0  0  0999 V2000
   15.5902   -8.7793   16.9042 C   0  0  0  0  0  0  0  0  0  0  0  0
   16.7593   -8.4447   17.2371 O   0  0  0  0  0  0  0  0  0  0  0  0
   14.4656   -8.3878   17.7020 N   0  0  0  0  0  0  0  0  0  0  0  0
   13.5804   -8.6815   17.3865 H   0  0  0  0  0  0  0  0  0  0  0  0
   14.4893   -7.6136   18.9118 C   0  0  0  0  0  0  0  0  0  0  0  0
   15.4800   -7.8069   19.8860 C   0  0  0  0  0  0  0  0  0  0  0  0
   15.4863   -7.0445   21.0554 C   0  0  0  0  0  0  0  0  0  0  0  0
   14.5014   -6.0743   21.2717 C   0  0  0  0  0  0  0  0  0  0  0  0
   13.5103   -5.8789   20.3005 C   0  0  0  0  0  0  0  0  0  0  0  0
   13.4968   -6.6418   19.1211 C   0  0  0  0  0  0  0  0  0  0  0  0
   14.5095   -5.2922   22.4736 N   0  0  0  0  0  0  0  0  0  0  0  0
   13.4561   -4.7766   22.9021 O   0  0  0  0  0  0  0  0  0  0  0  0
   15.6810   -5.1006   23.1697 O   0  0  0  0  0  0  0  0  0  0  0  0
   12.5090   -6.4499   18.1482 O   0  0  0  0  0  0  0  0  0  0  0  0
   11.5175   -5.4365   18.2472 C   0  0  0  0  0  0  0  0  0  0  0  0
   15.3554   -9.5403   15.7496 O   0  0  0  0  0  0  0  0  0  0  0  0
   17.8091   -9.7822   12.3258 C   0  0  0  0  0  0  0  0  0  0  0  0
   16.5272   -9.2141   12.2610 C   0  0  0  0  0  0  0  0  0  0  0  0
   15.7292   -9.1430   13.4063 C   0  0  0  0  0  0  0  0  0  0  0  0
   16.1962   -9.6358   14.6294 C   0  0  0  0  0  0  0  0  0  0  0  0
   17.4793  -10.2035   14.6905 C   0  0  0  0  0  0  0  0  0  0  0  0
   18.2787  -10.2755   13.5464 C   0  0  0  0  0  0  0  0  0  0  0  0
   18.3836   -9.1314   10.0097 C   0  0  0  0  0  0  0  0  0  0  0  0
   18.6315   -9.8682   11.1992 O   0  0  0  0  0  0  0  0  0  0  0  0
 23 24  1  0  0  0
 24 17  1  0  0  0
 17 18  2  0  0  0
 18 19  1  0  0  0
 19 20  2  0  0  0
 20 16  1  0  0  0
 16  1  1  0  0  0
  1  2  2  0  0  0
  1  3  1  0  0  0
  3  5  1  0  0  0
  5  6  2  0  0  0
  6  7  1  0  0  0
  7  8  2  0  0  0
  8 11  1  0  0  0
 11 12  2  0  0  0
 11 13  1  0  0  0
  8  9  1  0  0  0
  9 10  2  0  0  0
 10 14  1  0  0  0
 14 15  1  0  0  0
 20 21  1  0  0  0
 21 22  2  0  0  0
 22 17  1  0  0  0
 10  5  1  0  0  0
  3  4  1  0  0  0
M  CHG 1  11   1
M  CHG 1  13  -1
M  END
>  <minimizedAffinity>
-5.81349

>  <minimizedRMSD>
1.80191

$$$$
CHEMBL1488482 930429 MCULE-7709728597 MolPort-000-046-698 PubChem-1173795 ZINC000000930429 ZINC00930429


 34 36  0  0  0  0  0  0  0  0999 V2000
   15.5115   -8.9866   19.6964 S   0  0  0  0  0  0  0  0  0  0  0  0
   14.3159   -6.9543   21.1869 N   0  0  0  0  0  0  0  0  0  0  0  0
   14.2425   -7.7930   20.1206 C   0  0  0  0  0  0  0  0  0  0  0  0
   13.1075   -7.6417   19.3883 N   0  0  0  0  0  0  0  0  0  0  0  0
   12.4683   -6.6528   20.0438 C   0  0  0  0  0  0  0  0  0  0  0  0
   13.1850   -6.2360   21.1139 C   0  0  0  0  0  0  0  0  0  0  0  0
   12.7014   -5.2210   21.9313 C   0  0  0  0  0  0  0  0  0  0  0  0
   13.3585   -4.8292   22.9350 O   0  0  0  0  0  0  0  0  0  0  0  0
   11.4880   -4.6624   21.6141 N   0  0  0  0  0  0  0  0  0  0  0  0
   10.9463   -3.5965   22.4520 C   0  0  0  0  0  0  0  0  0  0  0  0
   10.7737   -5.1005   20.5169 C   0  0  0  0  0  0  0  0  0  0  0  0
    9.6576   -4.5761   20.2424 O   0  0  0  0  0  0  0  0  0  0  0  0
   11.2691   -6.1053   19.7205 N   0  0  0  0  0  0  0  0  0  0  0  0
   10.5335   -6.5789   18.5541 C   0  0  0  0  0  0  0  0  0  0  0  0
   15.3936   -6.8309   22.1615 C   0  0  0  0  0  0  0  0  0  0  0  0
   15.5995   -7.0827   24.6148 C   0  0  0  0  0  0  0  0  0  0  0  0
   15.1444   -7.7560   23.3376 C   0  0  0  0  0  0  0  0  0  0  0  0
   16.4085   -7.7993   18.6500 C   0  0  0  0  0  0  0  0  0  0  0  0
   16.1188   -8.0518   17.2103 C   0  0  0  0  0  0  0  0  0  0  0  0
   15.0036   -7.7173   16.7293 O   0  0  0  0  0  0  0  0  0  0  0  0
   17.1299   -8.6518   16.3908 N   0  0  0  0  0  0  0  0  0  0  0  0
   17.9991   -8.8275   16.8185 H   0  0  0  0  0  0  0  0  0  0  0  0
   17.0043   -9.0222   15.0108 C   0  0  0  0  0  0  0  0  0  0  0  0
   17.9266   -9.9227   14.4688 C   0  0  0  0  0  0  0  0  0  0  0  0
   17.8310  -10.3119   13.1291 C   0  0  0  0  0  0  0  0  0  0  0  0
   16.8079   -9.8052   12.3140 C   0  0  0  0  0  0  0  0  0  0  0  0
   15.8806   -8.9113   12.8588 C   0  0  0  0  0  0  0  0  0  0  0  0
   15.9771   -8.5209   14.1972 C   0  0  0  0  0  0  0  0  0  0  0  0
   16.6737  -10.1860   10.9380 N   0  0  0  0  0  0  0  0  0  0  0  0
   17.2613   -9.5293    9.8074 C   0  0  0  0  0  0  0  0  0  0  0  0
   17.9384   -8.4754    9.9421 O   0  0  0  0  0  0  0  0  0  0  0  0
   16.1217  -10.9794   10.7507 H   0  0  0  0  0  0  0  0  0  0  0  0
   17.0780  -10.1130    8.4511 C   0  0  0  0  0  0  0  0  0  0  0  0
   17.6116   -9.1590    7.4007 C   0  0  0  0  0  0  0  0  0  0  0  0
 16 17  1  0  0  0
 17 15  1  0  0  0
 15  2  1  0  0  0
  2  3  1  0  0  0
  3  1  1  0  0  0
  3  4  2  0  0  0
  1 18  1  0  0  0
 18 19  1  0  0  0
 19 20  2  0  0  0
 19 21  1  0  0  0
 21 23  1  0  0  0
 23 24  2  0  0  0
 24 25  1  0  0  0
 25 26  2  0  0  0
 26 29  1  0  0  0
 26 27  1  0  0  0
 29 30  1  0  0  0
 30 31  2  0  0  0
 30 33  1  0  0  0
 33 34  1  0  0  0
 27 28  2  0  0  0
 28 23  1  0  0  0
  4  5  1  0  0  0
  5  6  2  0  0  0
  6  7  1  0  0  0
  6  2  1  0  0  0
  7  8  2  0  0  0
  7  9  1  0  0  0
  9 10  1  0  0  0
  9 11  1  0  0  0
 11 12  2  0  0  0
 11 13  1  0  0  0
 13 14  1  0  0  0
 13  5  1  0  0  0
 21 22  1  0  0  0
 29 32  1  0  0  0
M  END
>  <minimizedAffinity>
-5.80764

>  <minimizedRMSD>
1.40905

$$$$
CHEMBL1444687 57016002 CSC028219836 ChemDiv-C692-0362 LN01412113 MCULE-7889180422 MolPort-003-045-207 PubChem-16009924 Z239086200 ZINC000057016002 ZINC57016002


 36 40  0  0  0  0  0  0  0  0999 V2000
   14.9564   -7.3057   19.5140 C   0  0  0  0  0  0  0  0  0  0  0  0
   14.0009   -6.6620   18.7872 N   0  0  0  0  0  0  0  0  0  0  0  0
   13.1748   -6.1891   19.7411 C   0  0  0  0  0  0  0  0  0  0  0  0
   13.6144   -6.5325   20.9770 C   0  0  0  0  0  0  0  0  0  0  0  0
   14.7434   -7.2469   20.8545 N   0  0  0  0  0  0  0  0  0  0  0  0
   12.9060   -6.1360   22.1058 C   0  0  0  0  0  0  0  0  0  0  0  0
   13.2828   -6.4438   23.2667 O   0  0  0  0  0  0  0  0  0  0  0  0
   11.7739   -5.3986   21.9182 N   0  0  0  0  0  0  0  0  0  0  0  0
   11.3408   -5.0557   20.6628 C   0  0  0  0  0  0  0  0  0  0  0  0
   10.2889   -4.3722   20.5396 O   0  0  0  0  0  0  0  0  0  0  0  0
   12.0470   -5.4537   19.5529 N   0  0  0  0  0  0  0  0  0  0  0  0
   11.6085   -5.1007   18.2089 C   0  0  0  0  0  0  0  0  0  0  0  0
   11.2555   -5.1057   22.7023 H   0  0  0  0  0  0  0  0  0  0  0  0
   16.1319   -8.0063   18.8990 C   0  0  0  0  0  0  0  0  0  0  0  0
   16.1197   -9.3344   14.9667 N   0  0  0  0  0  0  0  0  0  0  0  0
   15.1068   -8.3494   15.3479 C   0  0  0  0  0  0  0  0  0  0  0  0
   15.5117   -7.6844   16.6607 C   0  0  0  0  0  0  0  0  0  0  0  0
   15.7519   -8.7047   17.6809 N   0  0  0  0  0  0  0  0  0  0  0  0
   16.9113   -9.4943   17.2717 C   0  0  0  0  0  0  0  0  0  0  0  0
   16.5893  -10.2651   15.9939 C   0  0  0  0  0  0  0  0  0  0  0  0
   17.1967   -9.8586   10.8793 C   0  0  0  0  0  0  0  0  0  0  0  0
   18.1762   -9.9156   11.8828 C   0  0  0  0  0  0  0  0  0  0  0  0
   17.8218   -9.7457   13.2235 C   0  0  0  0  0  0  0  0  0  0  0  0
   16.4842   -9.5179   13.5856 C   0  0  0  0  0  0  0  0  0  0  0  0
   15.5103   -9.4591   12.5753 C   0  0  0  0  0  0  0  0  0  0  0  0
   15.8646   -9.6292   11.2342 C   0  0  0  0  0  0  0  0  0  0  0  0
   16.8437   -9.3325    8.4883 C   0  0  0  0  0  0  0  0  0  0  0  0
   17.5186  -10.0250    9.5296 O   0  0  0  0  0  0  0  0  0  0  0  0
   15.5982   -7.7667   21.9167 C   0  0  0  0  0  0  0  0  0  0  0  0
   16.6005   -6.7396   22.3236 C   0  0  0  0  0  0  0  0  0  0  0  0
   16.3925   -5.9720   23.4751 C   0  0  0  0  0  0  0  0  0  0  0  0
   17.3193   -4.9909   23.8395 C   0  0  0  0  0  0  0  0  0  0  0  0
   18.4530   -4.7732   23.0507 C   0  0  0  0  0  0  0  0  0  0  0  0
   19.6131   -3.5447   23.5066 Cl  0  0  0  0  0  0  0  0  0  0  0  0
   18.6592   -5.5350   21.8965 C   0  0  0  0  0  0  0  0  0  0  0  0
   17.7324   -6.5161   21.5321 C   0  0  0  0  0  0  0  0  0  0  0  0
 27 28  1  0  0  0
 28 21  1  0  0  0
 21 22  2  0  0  0
 22 23  1  0  0  0
 23 24  2  0  0  0
 24 25  1  0  0  0
 25 26  2  0  0  0
 24 15  1  0  0  0
 15 16  1  0  0  0
 16 17  1  0  0  0
 17 18  1  0  0  0
 18 14  1  0  0  0
 14  1  1  0  0  0
  1  2  2  0  0  0
  2  3  1  0  0  0
  3  4  2  0  0  0
  4  5  1  0  0  0
  5 29  1  0  0  0
 29 30  1  0  0  0
 30 31  2  0  0  0
 31 32  1  0  0  0
 32 33  2  0  0  0
 33 34  1  0  0  0
 33 35  1  0  0  0
 35 36  2  0  0  0
  4  6  1  0  0  0
  6  7  2  0  0  0
  6  8  1  0  0  0
  8  9  1  0  0  0
  9 10  2  0  0  0
  9 11  1  0  0  0
 11 12  1  0  0  0
 18 19  1  0  0  0
 19 20  1  0  0  0
 26 21  1  0  0  0
 20 15  1  0  0  0
  5  1  1  0  0  0
 36 30  1  0  0  0
 11  3  1  0  0  0
  8 13  1  0  0  0
M  END
>  <minimizedAffinity>
-5.80361

>  <minimizedRMSD>
1.97903

$$$$
CHEMBL1495814 8661238 ChemDiv-C163-0318 MCULE-4004260947 MolPort-001-604-240 PubChem-12004809 ZINC000008661238 ZINC08661238


 32 34  0  0  0  0  0  0  0  0999 V2000
   16.5059   -8.4375   17.6331 N   0  0  0  0  0  0  0  0  0  0  0  0
   15.3675   -7.6568   18.0077 C   0  0  0  0  0  0  0  0  0  0  0  0
   14.5478   -7.2510   17.1419 O   0  0  0  0  0  0  0  0  0  0  0  0
   17.2394   -8.5092   18.2857 H   0  0  0  0  0  0  0  0  0  0  0  0
   14.3280  -10.1635   16.0617 C   0  0  0  0  0  0  0  0  0  0  0  0
   15.7375   -9.8754   15.6790 C   0  0  0  0  0  0  0  0  0  0  0  0
   16.3412  -10.4372   14.6115 N   0  0  0  0  0  0  0  0  0  0  0  0
   17.6144  -10.0698   14.6329 N   0  0  0  0  0  0  0  0  0  0  0  0
   17.8486   -9.2830   15.7014 C   0  0  0  0  0  0  0  0  0  0  0  0
   19.1713   -8.7003   16.0700 C   0  0  0  0  0  0  0  0  0  0  0  0
   16.6658   -9.1238   16.3851 C   0  0  0  0  0  0  0  0  0  0  0  0
   18.5824  -10.4588   13.6172 C   0  0  0  0  0  0  0  0  0  0  0  0
   18.0772  -10.0985   12.2623 C   0  0  0  0  0  0  0  0  0  0  0  0
   18.9504   -9.5633   11.3089 C   0  0  0  0  0  0  0  0  0  0  0  0
   18.4711   -9.1999   10.0467 C   0  0  0  0  0  0  0  0  0  0  0  0
   17.1175   -9.3667    9.7386 C   0  0  0  0  0  0  0  0  0  0  0  0
   16.5176   -8.9117    8.1588 Cl  0  0  0  0  0  0  0  0  0  0  0  0
   16.2422   -9.8939   10.6932 C   0  0  0  0  0  0  0  0  0  0  0  0
   16.7212  -10.2573   11.9555 C   0  0  0  0  0  0  0  0  0  0  0  0
   15.1675   -7.2855   19.4369 C   0  0  0  0  0  0  0  0  0  0  0  0
   14.5832   -8.4510   20.2249 C   0  0  0  0  0  0  0  0  0  0  0  0
   13.0605   -8.3846   20.2775 C   0  0  0  0  0  0  0  0  0  0  0  0
   12.6043   -7.0070   20.4148 N   0  0  0  0  0  0  0  0  0  0  0  0
   11.8742   -6.3919   19.4963 N   0  0  0  0  0  0  0  0  0  0  0  0
   11.6137   -5.1489   19.9486 C   0  0  0  0  0  0  0  0  0  0  0  0
   10.8130   -4.1507   19.1880 C   0  0  0  0  0  0  0  0  0  0  0  0
   12.1939   -4.9795   21.1956 C   0  0  0  0  0  0  0  0  0  0  0  0
   12.8153   -6.1851   21.4640 C   0  0  0  0  0  0  0  0  0  0  0  0
   13.5734   -6.5515   22.6968 C   0  0  0  0  0  0  0  0  0  0  0  0
   12.1494   -3.8109   22.0287 N   0  0  0  0  0  0  0  0  0  0  0  0
   10.9875   -3.4586   22.6747 O   0  0  0  0  0  0  0  0  0  0  0  0
   13.1631   -3.0983   22.1750 O   0  0  0  0  0  0  0  0  0  0  0  0
  5  6  1  0  0  0
  6  7  2  0  0  0
  7  8  1  0  0  0
  8 12  1  0  0  0
  8  9  1  0  0  0
 12 13  1  0  0  0
 13 14  2  0  0  0
 14 15  1  0  0  0
 15 16  2  0  0  0
 16 17  1  0  0  0
 16 18  1  0  0  0
 18 19  2  0  0  0
 19 13  1  0  0  0
  9 10  1  0  0  0
  9 11  2  0  0  0
 11  1  1  0  0  0
 11  6  1  0  0  0
  1  2  1  0  0  0
  2  3  2  0  0  0
  2 20  1  0  0  0
 20 21  1  0  0  0
 21 22  1  0  0  0
 22 23  1  0  0  0
 23 24  1  0  0  0
 24 25  2  0  0  0
 25 26  1  0  0  0
 25 27  1  0  0  0
 27 28  2  0  0  0
 27 30  1  0  0  0
 28 29  1  0  0  0
 28 23  1  0  0  0
 30 31  1  0  0  0
 30 32  2  0  0  0
  1  4  1  0  0  0
M  CHG 1  30   1
M  CHG 1  31  -1
M  END
>  <minimizedAffinity>
-5.80340

>  <minimizedRMSD>
1.72101

$$$$
CHEMBL3698729 PubChem-58300181


 36 41  0  0  0  0  0  0  0  0999 V2000
   13.6169   -6.1775   21.1970 N   0  0  0  0  0  0  0  0  0  0  0  0
   14.4644   -5.9951   22.2366 C   0  0  0  0  0  0  0  0  0  0  0  0
   15.7315   -6.4558   21.9437 C   0  0  0  0  0  0  0  0  0  0  0  0
   16.7752   -6.3763   22.8579 C   0  0  0  0  0  0  0  0  0  0  0  0
   16.4759   -5.8002   24.1053 C   0  0  0  0  0  0  0  0  0  0  0  0
   15.2121   -5.3465   24.3837 N   0  0  0  0  0  0  0  0  0  0  0  0
   14.1919   -5.4285   23.4783 C   0  0  0  0  0  0  0  0  0  0  0  0
   15.6684   -6.9480   20.6617 C   0  0  0  0  0  0  0  0  0  0  0  0
   16.6011   -7.5349   19.8225 C   0  0  0  0  0  0  0  0  0  0  0  0
   16.1779   -7.9127   18.5808 N   0  0  0  0  0  0  0  0  0  0  0  0
   14.8812   -7.7248   18.1661 C   0  0  0  0  0  0  0  0  0  0  0  0
   13.9715   -7.1439   19.0051 N   0  0  0  0  0  0  0  0  0  0  0  0
   14.3770   -6.7642   20.2412 C   0  0  0  0  0  0  0  0  0  0  0  0
   10.4720   -5.8405   19.4676 C   0  0  0  0  0  0  0  0  0  0  0  0
   11.1467   -4.4888   19.4002 C   0  0  0  0  0  0  0  0  0  0  0  0
   12.0164   -4.3954   20.6386 C   0  0  0  0  0  0  0  0  0  0  0  0
   12.2013   -5.8170   21.1465 C   0  0  0  0  0  0  0  0  0  0  0  0
   11.4430   -6.7334   20.2042 C   0  0  0  0  0  0  0  0  0  0  0  0
   14.4579   -8.1204   16.8544 N   0  0  0  0  0  0  0  0  0  0  0  0
   13.4898   -8.0827   16.6796 H   0  0  0  0  0  0  0  0  0  0  0  0
   15.2817   -8.5647   15.7673 C   0  0  0  0  0  0  0  0  0  0  0  0
   15.3262   -7.8232   14.6285 N   0  0  0  0  0  0  0  0  0  0  0  0
   16.0724   -8.1873   13.5834 N   0  0  0  0  0  0  0  0  0  0  0  0
   16.8237   -9.3214   13.6080 C   0  0  0  0  0  0  0  0  0  0  0  0
   16.8154  -10.1207   14.7481 C   0  0  0  0  0  0  0  0  0  0  0  0
   16.0372   -9.7392   15.8378 C   0  0  0  0  0  0  0  0  0  0  0  0
   17.6148   -9.6998   12.4823 N   0  0  0  0  0  0  0  0  0  0  0  0
   18.3875  -10.2941   12.6203 H   0  0  0  0  0  0  0  0  0  0  0  0
   17.3148   -9.2346   11.1373 C   0  0  0  0  0  0  0  0  0  0  0  0
   18.4078   -9.6836   10.1720 C   0  0  0  0  0  0  0  0  0  0  0  0
   19.5173   -8.6354   10.0111 C   0  0  0  0  0  0  0  0  0  0  0  0
   19.0239   -7.4329    9.2121 C   0  0  0  0  0  0  0  0  0  0  0  0
   18.4323   -7.8963    7.8886 C   0  0  0  0  0  0  0  0  0  0  0  0
   17.3183   -8.9002    8.1616 C   0  0  0  0  0  0  0  0  0  0  0  0
   17.8473  -10.0692    8.8704 N   0  0  0  0  0  0  0  0  0  0  0  0
   18.5797  -10.4990    8.3055 H   0  0  0  0  0  0  0  0  0  0  0  0
 14 15  1  0  0  0
 15 16  1  0  0  0
 16 17  1  0  0  0
 17 18  1  0  0  0
 17  1  1  0  0  0
 18 14  1  0  0  0
  1  2  1  0  0  0
  2  3  1  0  0  0
  3  4  2  0  0  0
  3  8  1  0  0  0
  4  5  1  0  0  0
  5  6  2  0  0  0
  6  7  1  0  0  0
  7  2  2  0  0  0
  8  9  2  0  0  0
  9 10  1  0  0  0
 10 11  2  0  0  0
 11 12  1  0  0  0
 11 19  1  0  0  0
 12 13  2  0  0  0
 13  1  1  0  0  0
 13  8  1  0  0  0
 19 21  1  0  0  0
 21 22  2  0  0  0
 22 23  1  0  0  0
 23 24  2  0  0  0
 24 25  1  0  0  0
 24 27  1  0  0  0
 25 26  2  0  0  0
 26 21  1  0  0  0
 27 29  1  0  0  0
 30 29  1  0  0  0
 30 31  1  0  0  0
 31 32  1  0  0  0
 32 33  1  0  0  0
 33 34  1  0  0  0
 34 35  1  0  0  0
 35 30  1  0  0  0
 19 20  1  0  0  0
 27 28  1  0  0  0
 35 36  1  0  0  0
M  END
>  <minimizedAffinity>
-5.79775

>  <minimizedRMSD>
1.69764

$$$$
CHEMBL35776 PubChem-44284614


 29 32  0  0  0  0  0  0  0  0999 V2000
   16.0930   -8.1083   16.9573 C   0  0  0  0  0  0  0  0  0  0  0  0
   16.4950   -9.5628   16.9974 C   0  0  0  0  0  0  0  0  0  0  0  0
   16.7266   -9.8737   15.5604 C   0  0  0  0  0  0  0  0  0  0  0  0
   15.7967   -8.9127   14.8614 C   0  0  0  0  0  0  0  0  0  0  0  0
   15.5749   -7.7925   15.6855 O   0  0  0  0  0  0  0  0  0  0  0  0
   13.2540   -7.2522   20.0785 C   0  0  0  0  0  0  0  0  0  0  0  0
   14.5831   -7.5881   20.3874 C   0  0  0  0  0  0  0  0  0  0  0  0
   15.5001   -7.8593   19.3697 C   0  0  0  0  0  0  0  0  0  0  0  0
   15.1025   -7.7947   18.0322 C   0  0  0  0  0  0  0  0  0  0  0  0
   13.7766   -7.4683   17.7184 C   0  0  0  0  0  0  0  0  0  0  0  0
   12.8481   -7.1932   18.7355 C   0  0  0  0  0  0  0  0  0  0  0  0
   12.5230   -5.9652   22.0632 C   0  0  0  0  0  0  0  0  0  0  0  0
   12.3232   -6.9777   21.0862 O   0  0  0  0  0  0  0  0  0  0  0  0
   11.5217   -6.8663   18.4356 O   0  0  0  0  0  0  0  0  0  0  0  0
   10.6111   -7.7963   17.8656 C   0  0  0  0  0  0  0  0  0  0  0  0
   16.3573   -8.5063   13.6498 O   0  0  0  0  0  0  0  0  0  0  0  0
   15.4893   -8.9964   12.6719 C   0  0  0  0  0  0  0  0  0  0  0  0
   16.0440  -10.2829   12.0920 C   0  0  0  0  0  0  0  0  0  0  0  0
   16.1080  -10.1877   10.5771 C   0  0  0  0  0  0  0  0  0  0  0  0
   17.3426   -9.5289   10.1684 N   0  0  0  0  0  0  0  0  0  0  0  0
   18.5095   -9.4313   10.8571 C   0  0  0  0  0  0  0  0  0  0  0  0
   18.7341  -10.0320   12.2030 C   0  0  0  0  0  0  0  0  0  0  0  0
   19.4614   -8.7092   10.2090 N   0  0  0  0  0  0  0  0  0  0  0  0
   18.8345   -8.3502    9.0722 C   0  0  0  0  0  0  0  0  0  0  0  0
   19.3324   -7.5858    8.0242 C   0  0  0  0  0  0  0  0  0  0  0  0
   18.5037   -7.3420    6.9639 N   0  0  0  0  0  0  0  0  0  0  0  0
   17.2193   -7.8226    6.9174 C   0  0  0  0  0  0  0  0  0  0  0  0
   16.7033   -8.5953    7.9751 C   0  0  0  0  0  0  0  0  0  0  0  0
   17.5628   -8.8344    9.0443 C   0  0  0  0  0  0  0  0  0  0  0  0
 12 13  1  0  0  0
 13  6  1  0  0  0
  6  7  2  0  0  0
  7  8  1  0  0  0
  8  9  2  0  0  0
  9 10  1  0  0  0
  1  9  1  0  0  0
  1  2  1  0  0  0
  2  3  1  0  0  0
  3  4  1  0  0  0
  4 16  1  0  0  0
  4  5  1  0  0  0
 16 17  1  0  0  0
 17 18  1  0  0  0
 18 19  1  0  0  0
 19 20  1  0  0  0
 20 21  1  0  0  0
 21 22  1  0  0  0
 21 23  2  0  0  0
 23 24  1  0  0  0
 24 25  2  0  0  0
 25 26  1  0  0  0
 26 27  2  0  0  0
 27 28  1  0  0  0
 28 29  2  0  0  0
 29 20  1  0  0  0
 29 24  1  0  0  0
  5  1  1  0  0  0
 10 11  2  0  0  0
 11 14  1  0  0  0
 11  6  1  0  0  0
 14 15  1  0  0  0
M  END
>  <minimizedAffinity>
-5.79643

>  <minimizedRMSD>
1.72820

$$$$
CHEMBL4535905 PubChem-135281283


 32 36  0  0  0  0  0  0  0  0999 V2000
   15.1683   -7.9719   17.6460 C   0  0  0  0  0  0  0  0  0  0  0  0
   16.4015   -8.5956   17.8295 C   0  0  0  0  0  0  0  0  0  0  0  0
   16.7955   -8.9881   16.6108 N   0  0  0  0  0  0  0  0  0  0  0  0
   17.9255   -9.6399   16.2470 C   0  0  0  0  0  0  0  0  0  0  0  0
   18.1037   -9.9393   14.8892 C   0  0  0  0  0  0  0  0  0  0  0  0
   17.1201   -9.5632   13.9436 C   0  0  0  0  0  0  0  0  0  0  0  0
   15.9636   -8.8852   14.3852 C   0  0  0  0  0  0  0  0  0  0  0  0
   15.8432   -8.6160   15.7455 C   0  0  0  0  0  0  0  0  0  0  0  0
   14.8147   -7.9834   16.3348 N   0  0  0  0  0  0  0  0  0  0  0  0
   14.8364   -6.9641   19.9594 C   0  0  0  0  0  0  0  0  0  0  0  0
   13.9676   -6.3976   20.9067 C   0  0  0  0  0  0  0  0  0  0  0  0
   12.6044   -6.2237   20.6299 C   0  0  0  0  0  0  0  0  0  0  0  0
   12.1048   -6.6236   19.3851 C   0  0  0  0  0  0  0  0  0  0  0  0
   12.9595   -7.1875   18.4370 C   0  0  0  0  0  0  0  0  0  0  0  0
   14.3244   -7.3659   18.7036 C   0  0  0  0  0  0  0  0  0  0  0  0
   10.4067   -6.4273   18.9904 Cl  0  0  0  0  0  0  0  0  0  0  0  0
   16.7983   -6.6022   21.4319 C   0  0  0  0  0  0  0  0  0  0  0  0
   16.1945   -7.1282   20.2575 O   0  0  0  0  0  0  0  0  0  0  0  0
   11.7388   -5.6594   21.5735 O   0  0  0  0  0  0  0  0  0  0  0  0
   12.1314   -5.3880   22.9122 C   0  0  0  0  0  0  0  0  0  0  0  0
   17.2982   -9.8662   12.5468 N   0  0  0  0  0  0  0  0  0  0  0  0
   18.5300  -10.4921   12.0723 C   0  0  0  0  0  0  0  0  0  0  0  0
   18.9288   -9.8551   10.7441 C   0  0  0  0  0  0  0  0  0  0  0  0
   17.8796   -9.9557    9.7129 N   0  0  0  0  0  0  0  0  0  0  0  0
   16.5266  -10.2354   10.2294 C   0  0  0  0  0  0  0  0  0  0  0  0
   16.2410   -9.5663   11.5785 C   0  0  0  0  0  0  0  0  0  0  0  0
   17.8424   -8.4589    8.8315 S   0  0  0  0  0  0  0  0  0  0  0  0
   16.4971   -8.2991    8.1752 O   0  0  0  0  0  0  0  0  0  0  0  0
   18.0688   -7.3062    9.7704 O   0  0  0  0  0  0  0  0  0  0  0  0
   19.1460   -8.4650    7.6062 C   0  0  0  0  0  0  0  0  0  0  0  0
   18.5490   -8.4267    6.2141 C   0  0  0  0  0  0  0  0  0  0  0  0
   19.1392   -7.1698    6.8192 C   0  0  0  0  0  0  0  0  0  0  0  0
 17 18  1  0  0  0
 18 10  1  0  0  0
 10 11  2  0  0  0
 11 12  1  0  0  0
 12 13  2  0  0  0
 13 14  1  0  0  0
 14 15  2  0  0  0
 15  1  1  0  0  0
  1  2  2  0  0  0
  2  3  1  0  0  0
  3  4  1  0  0  0
  4  5  2  0  0  0
  5  6  1  0  0  0
  6  7  2  0  0  0
  7  8  1  0  0  0
  8  9  2  0  0  0
  6 21  1  0  0  0
 21 22  1  0  0  0
 22 23  1  0  0  0
 23 24  1  0  0  0
 24 25  1  0  0  0
 25 26  1  0  0  0
 24 27  1  0  0  0
 27 28  2  0  0  0
 27 29  2  0  0  0
 27 30  1  0  0  0
 30 31  1  0  0  0
 31 32  1  0  0  0
 13 16  1  0  0  0
 12 19  1  0  0  0
 19 20  1  0  0  0
 15 10  1  0  0  0
  9  1  1  0  0  0
  8  3  1  0  0  0
 26 21  1  0  0  0
 32 30  1  0  0  0
M  END
>  <minimizedAffinity>
-5.78680

>  <minimizedRMSD>
0.79831

$$$$
CHEMBL1379097 ChemDiv-G751-2589 MCULE-4087385612 MolPort-007-878-427 PubChem-16030490 ZINC000008617309 ZINC08617309


 33 36  0  0  0  0  0  0  0  0999 V2000
   16.2710   -9.0455   15.4714 C   0  0  0  0  0  0  0  0  0  0  0  0
   15.2561   -8.1725   15.6480 N   0  0  0  0  0  0  0  0  0  0  0  0
   15.1951   -7.6815   16.8844 N   0  0  0  0  0  0  0  0  0  0  0  0
   16.1607   -8.1639   17.6960 C   0  0  0  0  0  0  0  0  0  0  0  0
   17.1667   -9.2458   16.8897 S   0  0  0  0  0  0  0  0  0  0  0  0
   17.8049  -10.0191   13.6739 C   0  0  0  0  0  0  0  0  0  0  0  0
   18.8635   -9.8010   14.3197 O   0  0  0  0  0  0  0  0  0  0  0  0
   16.5216   -9.6827   14.2132 N   0  0  0  0  0  0  0  0  0  0  0  0
   15.7357   -9.9116   13.6663 H   0  0  0  0  0  0  0  0  0  0  0  0
   17.8906  -10.6330   12.3188 C   0  0  0  0  0  0  0  0  0  0  0  0
   17.1796   -9.8423   11.3711 O   0  0  0  0  0  0  0  0  0  0  0  0
   19.6204   -7.3616    6.8575 C   0  0  0  0  0  0  0  0  0  0  0  0
   18.9694   -8.0195    8.0270 C   0  0  0  0  0  0  0  0  0  0  0  0
   19.4838   -7.7809    9.3047 C   0  0  0  0  0  0  0  0  0  0  0  0
   18.8987   -8.3803   10.4225 C   0  0  0  0  0  0  0  0  0  0  0  0
   17.7888   -9.2259   10.2723 C   0  0  0  0  0  0  0  0  0  0  0  0
   17.2769   -9.4652    8.9934 C   0  0  0  0  0  0  0  0  0  0  0  0
   17.8581   -8.8684    7.8700 C   0  0  0  0  0  0  0  0  0  0  0  0
   17.2770   -9.1523    6.5262 C   0  0  0  0  0  0  0  0  0  0  0  0
   16.3485   -7.6846   19.4082 S   0  0  0  0  0  0  0  0  0  0  0  0
   14.7318   -8.3737   19.8798 C   0  0  0  0  0  0  0  0  0  0  0  0
   13.8106   -7.2919   20.3283 C   0  0  0  0  0  0  0  0  0  0  0  0
   13.6967   -7.0025   21.6902 C   0  0  0  0  0  0  0  0  0  0  0  0
   12.8259   -5.9966   22.1135 C   0  0  0  0  0  0  0  0  0  0  0  0
   12.7294   -5.7378   23.3432 O   0  0  0  0  0  0  0  0  0  0  0  0
   12.0707   -5.2887   21.1651 C   0  0  0  0  0  0  0  0  0  0  0  0
   11.1840   -4.2700   21.5426 C   0  0  0  0  0  0  0  0  0  0  0  0
   10.4461   -3.5864   20.5715 C   0  0  0  0  0  0  0  0  0  0  0  0
   10.5887   -3.9157   19.2201 C   0  0  0  0  0  0  0  0  0  0  0  0
   11.4698   -4.9296   18.8330 C   0  0  0  0  0  0  0  0  0  0  0  0
   12.2116   -5.6176   19.7973 C   0  0  0  0  0  0  0  0  0  0  0  0
   13.0680   -6.6027   19.4197 N   0  0  0  0  0  0  0  0  0  0  0  0
   13.1535   -6.8236   18.4641 H   0  0  0  0  0  0  0  0  0  0  0  0
 12 13  1  0  0  0
 13 14  2  0  0  0
 14 15  1  0  0  0
 15 16  2  0  0  0
 16 11  1  0  0  0
 16 17  1  0  0  0
 11 10  1  0  0  0
 10  6  1  0  0  0
  6  7  2  0  0  0
  6  8  1  0  0  0
  8  1  1  0  0  0
  1  2  2  0  0  0
  2  3  1  0  0  0
  3  4  2  0  0  0
  4 20  1  0  0  0
  4  5  1  0  0  0
 20 21  1  0  0  0
 21 22  1  0  0  0
 22 23  2  0  0  0
 23 24  1  0  0  0
 24 25  2  0  0  0
 24 26  1  0  0  0
 26 27  2  0  0  0
 27 28  1  0  0  0
 28 29  2  0  0  0
 29 30  1  0  0  0
 30 31  2  0  0  0
 31 32  1  0  0  0
 31 26  1  0  0  0
 32 22  1  0  0  0
  5  1  1  0  0  0
 17 18  2  0  0  0
 18 19  1  0  0  0
 18 13  1  0  0  0
  8  9  1  0  0  0
 32 33  1  0  0  0
M  END
>  <minimizedAffinity>
-5.75774

>  <minimizedRMSD>
1.65299

$$$$
CHEMBL1901321 9519568 MCULE-9280433757 MolPort-003-089-614 PubChem-18563366 ZINC000009519568 ZINC09519568


 32 34  0  0  0  0  0  0  0  0999 V2000
   14.2733   -7.9774   20.3362 N   0  0  0  0  0  0  0  0  0  0  0  0
   15.3295   -8.2785   19.5440 C   0  0  0  0  0  0  0  0  0  0  0  0
   14.9663   -8.0689   18.2166 C   0  0  0  0  0  0  0  0  0  0  0  0
   13.6617   -7.6244   18.2225 C   0  0  0  0  0  0  0  0  0  0  0  0
   12.8113   -7.2577   17.1812 C   0  0  0  0  0  0  0  0  0  0  0  0
   11.5154   -6.8307   17.5226 C   0  0  0  0  0  0  0  0  0  0  0  0
   11.1083   -6.7798   18.8739 C   0  0  0  0  0  0  0  0  0  0  0  0
   11.9914   -7.1560   19.9022 C   0  0  0  0  0  0  0  0  0  0  0  0
   13.2698   -7.5772   19.5333 C   0  0  0  0  0  0  0  0  0  0  0  0
   15.9885   -8.3110   16.8127 S   0  0  0  0  0  0  0  0  0  0  0  0
   15.7237   -7.2217   15.8118 O   0  0  0  0  0  0  0  0  0  0  0  0
   17.4312   -8.2569   17.2311 O   0  0  0  0  0  0  0  0  0  0  0  0
   15.6365   -9.9074   16.1002 C   0  0  0  0  0  0  0  0  0  0  0  0
   16.3142  -10.0624   14.7825 C   0  0  0  0  0  0  0  0  0  0  0  0
   17.4553  -10.5932   14.7386 O   0  0  0  0  0  0  0  0  0  0  0  0
   15.6507   -9.6267   13.5880 N   0  0  0  0  0  0  0  0  0  0  0  0
   14.7462   -9.2536   13.6969 H   0  0  0  0  0  0  0  0  0  0  0  0
   16.1681   -9.6782   12.2518 C   0  0  0  0  0  0  0  0  0  0  0  0
   15.3084  -10.0470   11.2111 C   0  0  0  0  0  0  0  0  0  0  0  0
   15.7750  -10.1047    9.8943 C   0  0  0  0  0  0  0  0  0  0  0  0
   17.1072   -9.7924    9.6107 C   0  0  0  0  0  0  0  0  0  0  0  0
   17.5598   -9.8489    8.3353 F   0  0  0  0  0  0  0  0  0  0  0  0
   17.9725   -9.4225   10.6436 C   0  0  0  0  0  0  0  0  0  0  0  0
   17.5047   -9.3651   11.9595 C   0  0  0  0  0  0  0  0  0  0  0  0
   14.2675   -8.0209   21.7915 C   0  0  0  0  0  0  0  0  0  0  0  0
   15.0485   -5.8766   22.9379 N   0  0  0  0  0  0  0  0  0  0  0  0
   13.9969   -6.6582   22.3455 C   0  0  0  0  0  0  0  0  0  0  0  0
   12.8317   -6.1871   22.2525 O   0  0  0  0  0  0  0  0  0  0  0  0
   17.2785   -6.2810   22.0247 C   0  0  0  0  0  0  0  0  0  0  0  0
   16.3503   -6.4743   23.2100 C   0  0  0  0  0  0  0  0  0  0  0  0
   14.7856   -4.5286   23.4297 C   0  0  0  0  0  0  0  0  0  0  0  0
   13.8184   -3.8114   22.5056 C   0  0  0  0  0  0  0  0  0  0  0  0
 29 30  1  0  0  0
 30 26  1  0  0  0
 26 31  1  0  0  0
 26 27  1  0  0  0
 31 32  1  0  0  0
 27 28  2  0  0  0
 27 25  1  0  0  0
 25  1  1  0  0  0
  1  2  1  0  0  0
  2  3  2  0  0  0
  3  4  1  0  0  0
  3 10  1  0  0  0
  4  5  2  0  0  0
  5  6  1  0  0  0
  6  7  2  0  0  0
  7  8  1  0  0  0
  8  9  2  0  0  0
  9  1  1  0  0  0
  9  4  1  0  0  0
 10 11  2  0  0  0
 10 12  2  0  0  0
 10 13  1  0  0  0
 13 14  1  0  0  0
 14 15  2  0  0  0
 14 16  1  0  0  0
 16 18  1  0  0  0
 18 19  2  0  0  0
 19 20  1  0  0  0
 20 21  2  0  0  0
 21 22  1  0  0  0
 21 23  1  0  0  0
 23 24  2  0  0  0
 24 18  1  0  0  0
 16 17  1  0  0  0
M  END
>  <minimizedAffinity>
-5.75154

>  <minimizedRMSD>
1.68692

$$$$
CHEMBL3621393 PubChem-122191137


 34 36  0  0  0  0  0  0  0  0999 V2000
   14.7838   -8.0041   17.5652 C   0  0  0  0  0  0  0  0  0  0  0  0
   15.9398   -8.0230   18.3571 C   0  0  0  0  0  0  0  0  0  0  0  0
   17.1415   -8.4221   17.7750 C   0  0  0  0  0  0  0  0  0  0  0  0
   17.1753   -8.7780   16.4648 N   0  0  0  0  0  0  0  0  0  0  0  0
   16.0484   -8.7474   15.7051 C   0  0  0  0  0  0  0  0  0  0  0  0
   14.8669   -8.3614   16.2566 N   0  0  0  0  0  0  0  0  0  0  0  0
   16.1206   -9.2048   14.0156 S   0  0  0  0  0  0  0  0  0  0  0  0
   15.0574  -10.2273   13.7283 O   0  0  0  0  0  0  0  0  0  0  0  0
   15.8902   -7.9904   13.1596 O   0  0  0  0  0  0  0  0  0  0  0  0
   17.7338   -9.8775   13.6581 C   0  0  0  0  0  0  0  0  0  0  0  0
   17.9392  -10.0210   12.1891 C   0  0  0  0  0  0  0  0  0  0  0  0
   18.4893  -11.0629   11.7432 O   0  0  0  0  0  0  0  0  0  0  0  0
   17.4779   -8.9958   11.3015 N   0  0  0  0  0  0  0  0  0  0  0  0
   16.8751   -8.3147   11.6783 H   0  0  0  0  0  0  0  0  0  0  0  0
   17.8153   -8.8726    9.9140 C   0  0  0  0  0  0  0  0  0  0  0  0
   16.9139   -9.3680    8.9648 C   0  0  0  0  0  0  0  0  0  0  0  0
   17.1871   -9.2541    7.5993 C   0  0  0  0  0  0  0  0  0  0  0  0
   18.3614   -8.6299    7.1717 C   0  0  0  0  0  0  0  0  0  0  0  0
   19.2521   -8.1020    8.1097 C   0  0  0  0  0  0  0  0  0  0  0  0
   18.9850   -8.2158    9.4780 C   0  0  0  0  0  0  0  0  0  0  0  0
   19.8357   -7.6319   10.3577 F   0  0  0  0  0  0  0  0  0  0  0  0
   18.6441   -8.5148    5.7692 C   0  0  0  0  0  0  0  0  0  0  0  0
   18.8722   -8.4218    4.6384 N   0  0  0  0  0  0  0  0  0  0  0  0
   13.5457   -7.5990   18.0822 O   0  0  0  0  0  0  0  0  0  0  0  0
   14.9474   -8.2411   20.5689 C   0  0  0  0  0  0  0  0  0  0  0  0
   14.0754   -7.0423   20.4140 C   0  0  0  0  0  0  0  0  0  0  0  0
   13.8970   -6.2020   21.5167 C   0  0  0  0  0  0  0  0  0  0  0  0
   13.0427   -5.1007   21.4335 C   0  0  0  0  0  0  0  0  0  0  0  0
   12.3472   -4.8451   20.2502 C   0  0  0  0  0  0  0  0  0  0  0  0
   12.5121   -5.6808   19.1423 C   0  0  0  0  0  0  0  0  0  0  0  0
   11.7572   -5.3805   17.8935 C   0  0  0  0  0  0  0  0  0  0  0  0
   13.3919   -6.7756   19.2073 C   0  0  0  0  0  0  0  0  0  0  0  0
   12.8692   -4.2397   22.5687 C   0  0  0  0  0  0  0  0  0  0  0  0
   12.7301   -3.5455   23.4841 N   0  0  0  0  0  0  0  0  0  0  0  0
 25 26  1  0  0  0
 26 27  2  0  0  0
 27 28  1  0  0  0
 28 33  1  0  0  0
 33 34  3  0  0  0
 28 29  2  0  0  0
 29 30  1  0  0  0
 30 31  1  0  0  0
 30 32  2  0  0  0
 32 24  1  0  0  0
 24  1  1  0  0  0
  1  2  2  0  0  0
  2  3  1  0  0  0
  3  4  2  0  0  0
  4  5  1  0  0  0
  5  7  1  0  0  0
  7  8  2  0  0  0
  7  9  2  0  0  0
  7 10  1  0  0  0
 10 11  1  0  0  0
 11 12  2  0  0  0
 11 13  1  0  0  0
 13 15  1  0  0  0
 15 16  2  0  0  0
 16 17  1  0  0  0
 17 18  2  0  0  0
 18 22  1  0  0  0
 22 23  3  0  0  0
 18 19  1  0  0  0
 19 20  2  0  0  0
 20 21  1  0  0  0
  5  6  2  0  0  0
 32 26  1  0  0  0
  6  1  1  0  0  0
 20 15  1  0  0  0
 13 14  1  0  0  0
M  END
>  <minimizedAffinity>
-5.74605

>  <minimizedRMSD>
1.95101

$$$$
CHEMBL4519569 PubChem-140914712


 32 35  0  0  0  0  0  0  0  0999 V2000
   16.9003   -9.6003   13.5555 C   0  0  0  0  0  0  0  0  0  0  0  0
   17.5646  -10.5762   14.3355 C   0  0  0  0  0  0  0  0  0  0  0  0
   17.4203  -10.5521   15.7283 C   0  0  0  0  0  0  0  0  0  0  0  0
   16.6411   -9.5840   16.2621 N   0  0  0  0  0  0  0  0  0  0  0  0
   16.0138   -8.6658   15.5213 C   0  0  0  0  0  0  0  0  0  0  0  0
   16.1265   -8.6537   14.1709 N   0  0  0  0  0  0  0  0  0  0  0  0
   15.2899   -7.7958   16.2441 N   0  0  0  0  0  0  0  0  0  0  0  0
   15.4959   -8.2208   17.5176 C   0  0  0  0  0  0  0  0  0  0  0  0
   16.3367   -9.3353   17.5425 C   0  0  0  0  0  0  0  0  0  0  0  0
   14.9031   -7.5810   18.7165 C   0  0  0  0  0  0  0  0  0  0  0  0
   13.5711   -7.1088   18.7400 C   0  0  0  0  0  0  0  0  0  0  0  0
   13.0729   -6.5123   19.9098 C   0  0  0  0  0  0  0  0  0  0  0  0
   13.8725   -6.3774   21.0533 C   0  0  0  0  0  0  0  0  0  0  0  0
   15.1907   -6.8471   21.0234 C   0  0  0  0  0  0  0  0  0  0  0  0
   15.6952   -7.4412   19.8658 C   0  0  0  0  0  0  0  0  0  0  0  0
   16.2314   -6.7015   22.4283 Cl  0  0  0  0  0  0  0  0  0  0  0  0
   13.3765   -5.7832   22.2192 O   0  0  0  0  0  0  0  0  0  0  0  0
   12.0082   -5.4366   22.3839 C   0  0  0  0  0  0  0  0  0  0  0  0
   12.7563   -7.2342   17.6082 O   0  0  0  0  0  0  0  0  0  0  0  0
   11.3423   -7.3584   17.6829 C   0  0  0  0  0  0  0  0  0  0  0  0
   17.0238   -9.6039   12.1241 N   0  0  0  0  0  0  0  0  0  0  0  0
   15.8757   -9.2963   11.2823 C   0  0  0  0  0  0  0  0  0  0  0  0
   15.8375  -10.2584   10.0939 C   0  0  0  0  0  0  0  0  0  0  0  0
   17.1226  -10.3432    9.3834 N   0  0  0  0  0  0  0  0  0  0  0  0
   18.2461  -10.6429   10.2841 C   0  0  0  0  0  0  0  0  0  0  0  0
   18.3262   -9.6869   11.4751 C   0  0  0  0  0  0  0  0  0  0  0  0
   17.4326   -8.8814    8.4412 P   0  0  0  0  0  0  0  0  0  0  0  0
   16.1284   -8.3846    7.8530 O   0  0  0  0  0  0  0  0  0  0  0  0
   18.0914   -7.6764    9.4390 O   0  0  0  0  0  0  0  0  0  0  0  0
   19.3936   -7.4782    8.9774 C   0  0  0  0  0  0  0  0  0  0  0  0
   18.5269   -9.2339    7.1904 O   0  0  0  0  0  0  0  0  0  0  0  0
   18.1683   -8.3999    6.1297 C   0  0  0  0  0  0  0  0  0  0  0  0
  1  2  1  0  0  0
  2  3  2  0  0  0
  3  4  1  0  0  0
  4  5  1  0  0  0
  5  6  1  0  0  0
  5  7  2  0  0  0
  7  8  1  0  0  0
  8  9  2  0  0  0
  8 10  1  0  0  0
 10 11  2  0  0  0
 11 12  1  0  0  0
 12 13  2  0  0  0
 13 14  1  0  0  0
 14 15  2  0  0  0
 14 16  1  0  0  0
 13 17  1  0  0  0
 17 18  1  0  0  0
 11 19  1  0  0  0
 19 20  1  0  0  0
  1 21  1  0  0  0
 21 22  1  0  0  0
 22 23  1  0  0  0
 23 24  1  0  0  0
 24 25  1  0  0  0
 25 26  1  0  0  0
 24 27  1  0  0  0
 27 28  2  0  0  0
 27 29  1  0  0  0
 29 30  1  0  0  0
 27 31  1  0  0  0
 31 32  1  0  0  0
  6  1  2  0  0  0
 15 10  1  0  0  0
 26 21  1  0  0  0
  9  4  1  0  0  0
M  END
>  <minimizedAffinity>
-5.73875

>  <minimizedRMSD>
1.84658

$$$$
CHEMBL4514682 PubChem-135335526


 30 33  0  0  0  0  0  0  0  0999 V2000
   14.9280   -7.7202   18.3139 C   0  0  0  0  0  0  0  0  0  0  0  0
   16.0582   -8.5167   18.5057 C   0  0  0  0  0  0  0  0  0  0  0  0
   16.4164   -8.9355   17.2852 N   0  0  0  0  0  0  0  0  0  0  0  0
   17.4440   -9.7297   16.9075 C   0  0  0  0  0  0  0  0  0  0  0  0
   17.5830  -10.0073   15.5418 C   0  0  0  0  0  0  0  0  0  0  0  0
   16.6555   -9.4551   14.6268 C   0  0  0  0  0  0  0  0  0  0  0  0
   15.6431   -8.6575   15.0880 N   0  0  0  0  0  0  0  0  0  0  0  0
   15.5446   -8.4143   16.4175 C   0  0  0  0  0  0  0  0  0  0  0  0
   14.6014   -7.6535   16.9964 N   0  0  0  0  0  0  0  0  0  0  0  0
   14.7007   -6.7080   20.6384 C   0  0  0  0  0  0  0  0  0  0  0  0
   13.9013   -6.0449   21.5840 C   0  0  0  0  0  0  0  0  0  0  0  0
   12.5765   -5.6900   21.2945 C   0  0  0  0  0  0  0  0  0  0  0  0
   12.0451   -6.0044   20.0384 C   0  0  0  0  0  0  0  0  0  0  0  0
   12.8308   -6.6631   19.0917 C   0  0  0  0  0  0  0  0  0  0  0  0
   14.1570   -7.0226   19.3709 C   0  0  0  0  0  0  0  0  0  0  0  0
   10.3927   -5.5817   19.6276 Cl  0  0  0  0  0  0  0  0  0  0  0  0
   16.7294   -6.4938   22.0480 C   0  0  0  0  0  0  0  0  0  0  0  0
   16.0216   -7.0529   20.9494 O   0  0  0  0  0  0  0  0  0  0  0  0
   11.7801   -5.0294   22.2366 O   0  0  0  0  0  0  0  0  0  0  0  0
   12.2371   -3.9068   22.9786 C   0  0  0  0  0  0  0  0  0  0  0  0
   16.7770   -9.7157   13.2186 N   0  0  0  0  0  0  0  0  0  0  0  0
   18.0283  -10.2184   12.6511 C   0  0  0  0  0  0  0  0  0  0  0  0
   18.2522   -9.5932   11.2770 C   0  0  0  0  0  0  0  0  0  0  0  0
   17.0821   -9.8226   10.4290 N   0  0  0  0  0  0  0  0  0  0  0  0
   15.9465   -9.1033   11.0067 C   0  0  0  0  0  0  0  0  0  0  0  0
   15.5900   -9.7006   12.3653 C   0  0  0  0  0  0  0  0  0  0  0  0
   17.4114   -9.1226    8.8760 S   0  0  0  0  0  0  0  0  0  0  0  0
   18.2261   -7.8680    9.0321 O   0  0  0  0  0  0  0  0  0  0  0  0
   16.1166   -8.7912    8.1884 O   0  0  0  0  0  0  0  0  0  0  0  0
   18.3109  -10.2838    7.8727 C   0  0  0  0  0  0  0  0  0  0  0  0
 17 18  1  0  0  0
 18 10  1  0  0  0
 10 11  2  0  0  0
 11 12  1  0  0  0
 12 13  2  0  0  0
 13 14  1  0  0  0
 14 15  2  0  0  0
 15  1  1  0  0  0
  1  2  2  0  0  0
  2  3  1  0  0  0
  3  4  1  0  0  0
  4  5  2  0  0  0
  5  6  1  0  0  0
  6  7  2  0  0  0
  7  8  1  0  0  0
  8  9  2  0  0  0
  6 21  1  0  0  0
 21 22  1  0  0  0
 22 23  1  0  0  0
 23 24  1  0  0  0
 24 25  1  0  0  0
 25 26  1  0  0  0
 24 27  1  0  0  0
 27 28  2  0  0  0
 27 29  2  0  0  0
 27 30  1  0  0  0
 13 16  1  0  0  0
 12 19  1  0  0  0
 19 20  1  0  0  0
 15 10  1  0  0  0
  9  1  1  0  0  0
  8  3  1  0  0  0
 26 21  1  0  0  0
M  END
>  <minimizedAffinity>
-5.73761

>  <minimizedRMSD>
1.35352

$$$$
CHEMBL1722013 ChemDiv-C697-0194 MCULE-2109480870 MolPort-007-658-089 PubChem-20876072 ZINC000009961412 ZINC09961412


 33 35  0  0  0  0  0  0  0  0999 V2000
   15.3463   -8.3864   16.6774 S   0  0  0  0  0  0  0  0  0  0  0  0
   14.4271   -9.5177   16.3114 O   0  0  0  0  0  0  0  0  0  0  0  0
   15.1761   -7.2815   15.6701 O   0  0  0  0  0  0  0  0  0  0  0  0
   14.9129   -7.8031   18.2761 C   0  0  0  0  0  0  0  0  0  0  0  0
   15.7762   -8.0181   19.3511 C   0  0  0  0  0  0  0  0  0  0  0  0
   15.4420   -7.5495   20.6220 C   0  0  0  0  0  0  0  0  0  0  0  0
   14.2373   -6.8564   20.8386 C   0  0  0  0  0  0  0  0  0  0  0  0
   13.9009   -6.3914   22.0816 N   0  0  0  0  0  0  0  0  0  0  0  0
   14.7927   -6.6069   23.2206 C   0  0  0  0  0  0  0  0  0  0  0  0
   12.7268   -5.7193   22.2734 C   0  0  0  0  0  0  0  0  0  0  0  0
   12.4163   -5.2901   23.4200 O   0  0  0  0  0  0  0  0  0  0  0  0
   11.8587   -5.5021   21.1945 C   0  0  0  0  0  0  0  0  0  0  0  0
   10.7754   -4.8796   21.3810 O   0  0  0  0  0  0  0  0  0  0  0  0
   12.1858   -5.9625   19.9504 N   0  0  0  0  0  0  0  0  0  0  0  0
   11.2667   -5.7239   18.8379 C   0  0  0  0  0  0  0  0  0  0  0  0
   13.3595   -6.6374   19.7487 C   0  0  0  0  0  0  0  0  0  0  0  0
   13.7125   -7.1180   18.4754 C   0  0  0  0  0  0  0  0  0  0  0  0
   16.9931   -8.9551   16.6719 N   0  0  0  0  0  0  0  0  0  0  0  0
   17.0240  -10.3488   17.0957 C   0  0  0  0  0  0  0  0  0  0  0  0
   17.6258   -8.7985   15.3531 C   0  0  0  0  0  0  0  0  0  0  0  0
   16.3019  -10.0315   13.5749 N   0  0  0  0  0  0  0  0  0  0  0  0
   16.6659   -8.7998   14.1978 C   0  0  0  0  0  0  0  0  0  0  0  0
   16.1930   -7.7089   13.7809 O   0  0  0  0  0  0  0  0  0  0  0  0
   16.6977  -10.8697   13.9066 H   0  0  0  0  0  0  0  0  0  0  0  0
   15.3641  -10.0851   12.4652 C   0  0  0  0  0  0  0  0  0  0  0  0
   18.0735   -9.1931    9.9727 C   0  0  0  0  0  0  0  0  0  0  0  0
   17.4939   -9.6453    8.7755 C   0  0  0  0  0  0  0  0  0  0  0  0
   16.2256  -10.2329    8.7842 C   0  0  0  0  0  0  0  0  0  0  0  0
   15.5281  -10.3706    9.9872 C   0  0  0  0  0  0  0  0  0  0  0  0
   16.0961   -9.9157   11.1814 C   0  0  0  0  0  0  0  0  0  0  0  0
   17.3687   -9.3348   11.1730 C   0  0  0  0  0  0  0  0  0  0  0  0
   19.7396   -7.6020    9.0724 C   0  0  0  0  0  0  0  0  0  0  0  0
   19.3405   -8.6042    9.9977 O   0  0  0  0  0  0  0  0  0  0  0  0
 32 33  1  0  0  0
 33 26  1  0  0  0
 26 27  2  0  0  0
 27 28  1  0  0  0
 28 29  2  0  0  0
 29 30  1  0  0  0
 30 25  1  0  0  0
 30 31  2  0  0  0
 25 21  1  0  0  0
 21 22  1  0  0  0
 22 23  2  0  0  0
 22 20  1  0  0  0
 20 18  1  0  0  0
 18 19  1  0  0  0
 18  1  1  0  0  0
  1  2  2  0  0  0
  1  3  2  0  0  0
  1  4  1  0  0  0
  4  5  2  0  0  0
  5  6  1  0  0  0
  6  7  2  0  0  0
  7  8  1  0  0  0
  8  9  1  0  0  0
  8 10  1  0  0  0
 10 11  2  0  0  0
 10 12  1  0  0  0
 12 13  2  0  0  0
 12 14  1  0  0  0
 14 15  1  0  0  0
 14 16  1  0  0  0
 16 17  2  0  0  0
 16  7  1  0  0  0
 17  4  1  0  0  0
 31 26  1  0  0  0
 21 24  1  0  0  0
M  END
>  <minimizedAffinity>
-5.73407

>  <minimizedRMSD>
1.78193

$$$$
CHEMBL4593919 PubChem-135335146


 32 36  0  0  0  0  0  0  0  0999 V2000
   15.1037   -7.9151   17.7503 C   0  0  0  0  0  0  0  0  0  0  0  0
   16.3244   -8.5643   17.9320 C   0  0  0  0  0  0  0  0  0  0  0  0
   16.7083   -8.9561   16.7102 N   0  0  0  0  0  0  0  0  0  0  0  0
   17.8177   -9.6265   16.3264 C   0  0  0  0  0  0  0  0  0  0  0  0
   17.9749   -9.9076   15.0025 N   0  0  0  0  0  0  0  0  0  0  0  0
   17.0408   -9.5272   14.0730 C   0  0  0  0  0  0  0  0  0  0  0  0
   15.8885   -8.8280   14.4885 C   0  0  0  0  0  0  0  0  0  0  0  0
   15.7675   -8.5619   15.8470 C   0  0  0  0  0  0  0  0  0  0  0  0
   14.7508   -7.9121   16.4383 N   0  0  0  0  0  0  0  0  0  0  0  0
   14.7891   -6.9143   20.0694 C   0  0  0  0  0  0  0  0  0  0  0  0
   13.9307   -6.3359   21.0189 C   0  0  0  0  0  0  0  0  0  0  0  0
   12.5719   -6.1326   20.7414 C   0  0  0  0  0  0  0  0  0  0  0  0
   12.0659   -6.5148   19.4936 C   0  0  0  0  0  0  0  0  0  0  0  0
   12.9102   -7.0904   18.5432 C   0  0  0  0  0  0  0  0  0  0  0  0
   14.2708   -7.2982   18.8105 C   0  0  0  0  0  0  0  0  0  0  0  0
   10.3727   -6.2815   19.0980 Cl  0  0  0  0  0  0  0  0  0  0  0  0
   16.7525   -6.6143   21.5538 C   0  0  0  0  0  0  0  0  0  0  0  0
   16.1432   -7.1080   20.3682 O   0  0  0  0  0  0  0  0  0  0  0  0
   11.7167   -5.5563   21.6873 O   0  0  0  0  0  0  0  0  0  0  0  0
   12.1227   -5.2715   23.0191 C   0  0  0  0  0  0  0  0  0  0  0  0
   17.2428   -9.8405   12.6846 N   0  0  0  0  0  0  0  0  0  0  0  0
   18.5034  -10.4296   12.2445 C   0  0  0  0  0  0  0  0  0  0  0  0
   18.8964   -9.8124   10.9054 C   0  0  0  0  0  0  0  0  0  0  0  0
   17.8667   -9.9807    9.8632 N   0  0  0  0  0  0  0  0  0  0  0  0
   16.5147  -10.2848   10.3686 C   0  0  0  0  0  0  0  0  0  0  0  0
   16.1913   -9.5915   11.6966 C   0  0  0  0  0  0  0  0  0  0  0  0
   17.7968   -8.5158    8.9312 S   0  0  0  0  0  0  0  0  0  0  0  0
   16.4447   -8.4031    8.2793 O   0  0  0  0  0  0  0  0  0  0  0  0
   18.0079   -7.3279    9.8289 O   0  0  0  0  0  0  0  0  0  0  0  0
   19.0926   -8.5404    7.6980 C   0  0  0  0  0  0  0  0  0  0  0  0
   18.4882   -8.4758    6.3100 C   0  0  0  0  0  0  0  0  0  0  0  0
   19.1105   -7.2381    6.9227 C   0  0  0  0  0  0  0  0  0  0  0  0
 17 18  1  0  0  0
 18 10  1  0  0  0
 10 11  2  0  0  0
 11 12  1  0  0  0
 12 13  2  0  0  0
 13 14  1  0  0  0
 14 15  2  0  0  0
 15  1  1  0  0  0
  1  2  2  0  0  0
  2  3  1  0  0  0
  3  4  1  0  0  0
  4  5  2  0  0  0
  5  6  1  0  0  0
  6  7  2  0  0  0
  7  8  1  0  0  0
  8  9  2  0  0  0
  6 21  1  0  0  0
 21 22  1  0  0  0
 22 23  1  0  0  0
 23 24  1  0  0  0
 24 25  1  0  0  0
 25 26  1  0  0  0
 24 27  1  0  0  0
 27 28  2  0  0  0
 27 29  2  0  0  0
 27 30  1  0  0  0
 30 31  1  0  0  0
 31 32  1  0  0  0
 13 16  1  0  0  0
 12 19  1  0  0  0
 19 20  1  0  0  0
 15 10  1  0  0  0
  9  1  1  0  0  0
  8  3  1  0  0  0
 26 21  1  0  0  0
 32 30  1  0  0  0
M  END
>  <minimizedAffinity>
-5.72265

>  <minimizedRMSD>
0.73624

$$$$
CHEMBL4739972 PubChem-162644944


 35 37  0  0  0  0  0  0  0  0999 V2000
   15.5037   -8.1738   18.5633 C   0  0  0  0  0  0  0  0  0  0  0  0
   14.3120   -7.2739   18.5434 C   0  0  0  0  0  0  0  0  0  0  0  0
   13.7454   -7.0261   17.4448 O   0  0  0  0  0  0  0  0  0  0  0  0
   13.7973   -6.6728   19.7995 C   0  0  0  0  0  0  0  0  0  0  0  0
   14.6215   -6.6416   20.9419 C   0  0  0  0  0  0  0  0  0  0  0  0
   14.1416   -6.0666   22.1444 C   0  0  0  0  0  0  0  0  0  0  0  0
   12.8512   -5.4818   22.1814 C   0  0  0  0  0  0  0  0  0  0  0  0
   12.0067   -5.5655   21.0486 C   0  0  0  0  0  0  0  0  0  0  0  0
   12.4965   -6.1308   19.8503 C   0  0  0  0  0  0  0  0  0  0  0  0
   11.6470   -6.1282   18.6148 C   0  0  0  0  0  0  0  0  0  0  0  0
   10.6943   -5.0756   21.1450 O   0  0  0  0  0  0  0  0  0  0  0  0
    9.6053   -5.5629   20.3728 C   0  0  0  0  0  0  0  0  0  0  0  0
   12.4482   -4.8315   23.3619 O   0  0  0  0  0  0  0  0  0  0  0  0
   12.9909   -3.6184   23.8653 C   0  0  0  0  0  0  0  0  0  0  0  0
   14.9785   -6.0804   23.2744 O   0  0  0  0  0  0  0  0  0  0  0  0
   15.0825   -7.1452   24.2096 C   0  0  0  0  0  0  0  0  0  0  0  0
   15.9172   -7.1826   20.8213 O   0  0  0  0  0  0  0  0  0  0  0  0
   17.1258   -6.5517   21.2208 C   0  0  0  0  0  0  0  0  0  0  0  0
   16.0400   -8.3665   17.1551 C   0  0  0  0  0  0  0  0  0  0  0  0
   16.6749   -9.7407   17.0098 C   0  0  0  0  0  0  0  0  0  0  0  0
   18.0628   -9.6469   16.3882 C   0  0  0  0  0  0  0  0  0  0  0  0
   15.2430   -9.8566   12.4592 C   0  0  0  0  0  0  0  0  0  0  0  0
   15.0969   -9.9001   11.0629 C   0  0  0  0  0  0  0  0  0  0  0  0
   16.2367   -9.9912   10.2482 C   0  0  0  0  0  0  0  0  0  0  0  0
   17.5106  -10.0399   10.8382 C   0  0  0  0  0  0  0  0  0  0  0  0
   17.6527  -10.0053   12.2268 C   0  0  0  0  0  0  0  0  0  0  0  0
   16.5112   -9.8921   13.0409 C   0  0  0  0  0  0  0  0  0  0  0  0
   16.6449   -9.9156   14.5367 C   0  0  0  0  0  0  0  0  0  0  0  0
   17.9627   -9.4311   14.9536 N   0  0  0  0  0  0  0  0  0  0  0  0
   18.9774  -10.2776   14.3305 C   0  0  0  0  0  0  0  0  0  0  0  0
   19.0289  -10.0017   12.8277 C   0  0  0  0  0  0  0  0  0  0  0  0
   16.0806  -10.0325    8.8583 O   0  0  0  0  0  0  0  0  0  0  0  0
   16.9877   -9.4038    7.9628 C   0  0  0  0  0  0  0  0  0  0  0  0
   13.8325   -9.8570   10.4654 O   0  0  0  0  0  0  0  0  0  0  0  0
   12.7030  -10.5292   11.0055 C   0  0  0  0  0  0  0  0  0  0  0  0
 22 23  2  0  0  0
 23 24  1  0  0  0
 24 25  2  0  0  0
 25 26  1  0  0  0
 26 27  2  0  0  0
 27 28  1  0  0  0
 28 29  1  0  0  0
 29 30  1  0  0  0
 30 31  1  0  0  0
 29 21  1  0  0  0
 21 20  1  0  0  0
 20 19  1  0  0  0
 19  1  1  0  0  0
  1  2  1  0  0  0
  2  3  2  0  0  0
  2  4  1  0  0  0
  4  5  2  0  0  0
  5  6  1  0  0  0
  6  7  2  0  0  0
  7  8  1  0  0  0
  8  9  2  0  0  0
  9 10  1  0  0  0
  8 11  1  0  0  0
 11 12  1  0  0  0
  7 13  1  0  0  0
 13 14  1  0  0  0
  6 15  1  0  0  0
 15 16  1  0  0  0
  5 17  1  0  0  0
 17 18  1  0  0  0
 24 32  1  0  0  0
 32 33  1  0  0  0
 23 34  1  0  0  0
 34 35  1  0  0  0
 27 22  1  0  0  0
  9  4  1  0  0  0
 31 26  1  0  0  0
M  END
>  <minimizedAffinity>
-5.68575

>  <minimizedRMSD>
1.90715

$$$$
CHEMBL399066 PubChem-44443241


 30 31  0  0  0  0  0  0  0  0999 V2000
   14.8781   -8.0536   17.8612 S   0  0  0  0  0  0  0  0  0  0  0  0
   13.6204   -8.8540   18.0497 O   0  0  0  0  0  0  0  0  0  0  0  0
   14.5426   -6.6875   17.3311 O   0  0  0  0  0  0  0  0  0  0  0  0
   15.9226   -8.8800   16.7209 C   0  0  0  0  0  0  0  0  0  0  0  0
   16.8778   -9.7928   17.1793 C   0  0  0  0  0  0  0  0  0  0  0  0
   17.7040  -10.4572   16.2698 C   0  0  0  0  0  0  0  0  0  0  0  0
   17.5744  -10.2111   14.9001 C   0  0  0  0  0  0  0  0  0  0  0  0
   16.6167   -9.2992   14.4305 C   0  0  0  0  0  0  0  0  0  0  0  0
   15.7934   -8.6385   15.3487 C   0  0  0  0  0  0  0  0  0  0  0  0
   16.4534   -9.0208   13.0332 N   0  0  0  0  0  0  0  0  0  0  0  0
   17.2007   -9.5915   11.9517 C   0  0  0  0  0  0  0  0  0  0  0  0
   18.1106  -10.4388   12.1636 O   0  0  0  0  0  0  0  0  0  0  0  0
   15.7554   -8.3699   12.7918 H   0  0  0  0  0  0  0  0  0  0  0  0
   16.8866   -9.1682   10.5559 C   0  0  0  0  0  0  0  0  0  0  0  0
   16.1468  -10.2681    9.8193 C   0  0  0  0  0  0  0  0  0  0  0  0
   18.5075   -8.7065    9.6015 Br  0  0  0  0  0  0  0  0  0  0  0  0
   15.7032   -7.8887   19.3770 N   0  0  0  0  0  0  0  0  0  0  0  0
   16.5754   -8.3328   19.4831 H   0  0  0  0  0  0  0  0  0  0  0  0
   15.5707   -6.0400   22.6123 C   0  0  0  0  0  0  0  0  0  0  0  0
   16.0438   -6.7722   21.5135 C   0  0  0  0  0  0  0  0  0  0  0  0
   15.1856   -7.1426   20.4814 C   0  0  0  0  0  0  0  0  0  0  0  0
   13.8387   -6.7780   20.5459 C   0  0  0  0  0  0  0  0  0  0  0  0
   13.3374   -6.0455   21.6332 C   0  0  0  0  0  0  0  0  0  0  0  0
   14.2160   -5.6709   22.6820 C   0  0  0  0  0  0  0  0  0  0  0  0
   17.1951   -6.6060   24.3952 C   0  0  0  0  0  0  0  0  0  0  0  0
   16.4315   -5.6663   23.6509 O   0  0  0  0  0  0  0  0  0  0  0  0
   11.9835   -5.6924   21.6738 O   0  0  0  0  0  0  0  0  0  0  0  0
   11.4679   -4.5251   21.0470 C   0  0  0  0  0  0  0  0  0  0  0  0
   13.8048   -4.9385   23.8087 O   0  0  0  0  0  0  0  0  0  0  0  0
   13.2454   -5.4999   24.9874 C   0  0  0  0  0  0  0  0  0  0  0  0
 25 26  1  0  0  0
 26 19  1  0  0  0
 19 20  2  0  0  0
 20 21  1  0  0  0
 21 17  1  0  0  0
 21 22  2  0  0  0
 17  1  1  0  0  0
  1  2  2  0  0  0
  1  3  2  0  0  0
  1  4  1  0  0  0
  4  5  2  0  0  0
  5  6  1  0  0  0
  6  7  2  0  0  0
  7  8  1  0  0  0
  8 10  1  0  0  0
  8  9  2  0  0  0
 10 11  1  0  0  0
 11 12  2  0  0  0
 14 11  1  0  0  0
 14 15  1  0  0  0
 14 16  1  0  0  0
  9  4  1  0  0  0
 22 23  1  0  0  0
 23 27  1  0  0  0
 23 24  2  0  0  0
 27 28  1  0  0  0
 24 29  1  0  0  0
 24 19  1  0  0  0
 29 30  1  0  0  0
 17 18  1  0  0  0
 10 13  1  0  0  0
M  END
>  <minimizedAffinity>
-5.67225

>  <minimizedRMSD>
1.66220

$$$$
CHEMBL1497823 ChemDiv-C444-0592 MCULE-9349704823 MolPort-007-630-734 PubChem-3241055 ZINC000004436602 ZINC04436602


 30 32  0  0  0  0  0  0  0  0999 V2000
   16.3229   -8.2900   16.3983 S   0  0  0  0  0  0  0  0  0  0  0  0
   16.3599   -7.2786   15.2867 O   0  0  0  0  0  0  0  0  0  0  0  0
   17.7152   -8.4764   16.9345 O   0  0  0  0  0  0  0  0  0  0  0  0
   15.2746   -7.7073   17.6777 C   0  0  0  0  0  0  0  0  0  0  0  0
   15.6733   -7.8072   19.0126 C   0  0  0  0  0  0  0  0  0  0  0  0
   14.8309   -7.3566   20.0309 C   0  0  0  0  0  0  0  0  0  0  0  0
   13.5791   -6.7944   19.7310 C   0  0  0  0  0  0  0  0  0  0  0  0
   12.6818   -6.3469   20.7761 N   0  0  0  0  0  0  0  0  0  0  0  0
   11.2804   -6.1049   20.4295 C   0  0  0  0  0  0  0  0  0  0  0  0
   11.1969   -5.3379   19.1182 C   0  0  0  0  0  0  0  0  0  0  0  0
   11.8381   -6.1468   17.9939 C   0  0  0  0  0  0  0  0  0  0  0  0
   13.1816   -6.6991   18.3775 C   0  0  0  0  0  0  0  0  0  0  0  0
   14.0269   -7.1619   17.3648 C   0  0  0  0  0  0  0  0  0  0  0  0
   13.0943   -6.1657   22.1476 C   0  0  0  0  0  0  0  0  0  0  0  0
   12.0855   -6.0019   23.2353 C   0  0  0  0  0  0  0  0  0  0  0  0
   14.3150   -6.1157   22.4542 O   0  0  0  0  0  0  0  0  0  0  0  0
   15.6922   -9.8459   15.7919 C   0  0  0  0  0  0  0  0  0  0  0  0
   16.7098  -10.5525   14.9077 C   0  0  0  0  0  0  0  0  0  0  0  0
   17.7812  -10.1357   12.6632 N   0  0  0  0  0  0  0  0  0  0  0  0
   16.6182  -10.0755   13.4987 C   0  0  0  0  0  0  0  0  0  0  0  0
   15.5259   -9.6186   13.0680 O   0  0  0  0  0  0  0  0  0  0  0  0
   18.5883  -10.5374   13.0586 H   0  0  0  0  0  0  0  0  0  0  0  0
   18.1703   -8.7138    8.6807 C   0  0  0  0  0  0  0  0  0  0  0  0
   17.0670   -9.5079    9.0315 C   0  0  0  0  0  0  0  0  0  0  0  0
   16.9290   -9.9827   10.3384 C   0  0  0  0  0  0  0  0  0  0  0  0
   17.8908   -9.6716   11.3110 C   0  0  0  0  0  0  0  0  0  0  0  0
   18.9880   -8.8790   10.9586 C   0  0  0  0  0  0  0  0  0  0  0  0
   19.1276   -8.4032    9.6515 C   0  0  0  0  0  0  0  0  0  0  0  0
   17.4134   -8.4870    6.3367 C   0  0  0  0  0  0  0  0  0  0  0  0
   18.3384   -8.2232    7.3829 O   0  0  0  0  0  0  0  0  0  0  0  0
 29 30  1  0  0  0
 30 23  1  0  0  0
 23 24  2  0  0  0
 24 25  1  0  0  0
 25 26  2  0  0  0
 26 19  1  0  0  0
 26 27  1  0  0  0
 19 20  1  0  0  0
 20 21  2  0  0  0
 20 18  1  0  0  0
 18 17  1  0  0  0
 17  1  1  0  0  0
  1  2  2  0  0  0
  1  3  2  0  0  0
  1  4  1  0  0  0
  4  5  2  0  0  0
  5  6  1  0  0  0
  6  7  2  0  0  0
  7  8  1  0  0  0
  8  9  1  0  0  0
  8 14  1  0  0  0
  9 10  1  0  0  0
 10 11  1  0  0  0
 11 12  1  0  0  0
 12 13  2  0  0  0
 12  7  1  0  0  0
 13  4  1  0  0  0
 14 15  1  0  0  0
 14 16  2  0  0  0
 27 28  2  0  0  0
 28 23  1  0  0  0
 19 22  1  0  0  0
M  END
>  <minimizedAffinity>
-5.65766

>  <minimizedRMSD>
1.75816

$$$$
CHEMBL3207914 LN00943609 MolPort-002-335-686 PubChem-9634496 ZINC08399057


 31 32  0  0  0  0  0  0  0  0999 V2000
   16.3866   -7.9127   15.1960 N   0  0  0  0  0  0  0  0  0  0  0  0
   16.2814   -9.1926   14.5643 C   0  0  0  0  0  0  0  0  0  0  0  0
   15.3881  -10.0095   14.9134 O   0  0  0  0  0  0  0  0  0  0  0  0
   16.9984   -7.2474   14.8057 H   0  0  0  0  0  0  0  0  0  0  0  0
   15.7787   -8.1467   17.5025 C   0  0  0  0  0  0  0  0  0  0  0  0
   16.8277   -9.1990   17.7122 C   0  0  0  0  0  0  0  0  0  0  0  0
   15.6593   -7.5576   16.3469 N   0  0  0  0  0  0  0  0  0  0  0  0
   13.4424   -6.9094   20.9124 C   0  0  0  0  0  0  0  0  0  0  0  0
   12.8333   -6.9970   19.6541 C   0  0  0  0  0  0  0  0  0  0  0  0
   13.5611   -7.3992   18.5212 C   0  0  0  0  0  0  0  0  0  0  0  0
   14.9365   -7.7175   18.6538 C   0  0  0  0  0  0  0  0  0  0  0  0
   15.5290   -7.6290   19.9247 C   0  0  0  0  0  0  0  0  0  0  0  0
   14.7926   -7.2295   21.0401 C   0  0  0  0  0  0  0  0  0  0  0  0
   12.1423   -5.2219   22.1695 C   0  0  0  0  0  0  0  0  0  0  0  0
   12.7302   -6.5098   22.0466 O   0  0  0  0  0  0  0  0  0  0  0  0
   12.9270   -7.4908   17.2758 O   0  0  0  0  0  0  0  0  0  0  0  0
   11.5157   -7.4269   17.1184 C   0  0  0  0  0  0  0  0  0  0  0  0
   17.1916   -9.5335   13.4385 C   0  0  0  0  0  0  0  0  0  0  0  0
   16.4045   -9.6020   12.1423 C   0  0  0  0  0  0  0  0  0  0  0  0
   17.3236   -9.5010   10.9755 C   0  0  0  0  0  0  0  0  0  0  0  0
   18.4850   -9.9840   11.0522 O   0  0  0  0  0  0  0  0  0  0  0  0
   16.8597   -8.8666    9.7770 N   0  0  0  0  0  0  0  0  0  0  0  0
   15.9372   -8.5228    9.7902 H   0  0  0  0  0  0  0  0  0  0  0  0
   17.5970   -8.6789    8.5588 C   0  0  0  0  0  0  0  0  0  0  0  0
   18.6845   -7.7876    8.5383 C   0  0  0  0  0  0  0  0  0  0  0  0
   19.1567   -6.8990    9.9771 Cl  0  0  0  0  0  0  0  0  0  0  0  0
   19.4121   -7.5945    7.3597 C   0  0  0  0  0  0  0  0  0  0  0  0
   19.0642   -8.2851    6.1969 C   0  0  0  0  0  0  0  0  0  0  0  0
   19.9793   -8.0385    4.7257 Cl  0  0  0  0  0  0  0  0  0  0  0  0
   17.9860   -9.1720    6.2085 C   0  0  0  0  0  0  0  0  0  0  0  0
   17.2566   -9.3675    7.3837 C   0  0  0  0  0  0  0  0  0  0  0  0
 14 15  1  0  0  0
 15  8  1  0  0  0
  8  9  2  0  0  0
  9 10  1  0  0  0
 10 16  1  0  0  0
 10 11  2  0  0  0
 16 17  1  0  0  0
 11 12  1  0  0  0
 11  5  1  0  0  0
 12 13  2  0  0  0
 13  8  1  0  0  0
  5  6  1  0  0  0
  5  7  2  0  0  0
  7  1  1  0  0  0
  1  2  1  0  0  0
  2  3  2  0  0  0
  2 18  1  0  0  0
 18 19  1  0  0  0
 19 20  1  0  0  0
 20 21  2  0  0  0
 20 22  1  0  0  0
 22 24  1  0  0  0
 24 25  2  0  0  0
 25 26  1  0  0  0
 25 27  1  0  0  0
 27 28  2  0  0  0
 28 29  1  0  0  0
 28 30  1  0  0  0
 30 31  2  0  0  0
 31 24  1  0  0  0
  1  4  1  0  0  0
 22 23  1  0  0  0
M  END
>  <minimizedAffinity>
-5.63412

>  <minimizedRMSD>
1.36814

$$$$
CHEMBL3733146 PubChem-136644709


 37 40  0  0  0  0  0  0  0  0999 V2000
   16.5217   -8.7792   17.1244 C   0  0  0  0  0  0  0  0  0  0  0  0
   15.6896   -9.2481   16.0989 C   0  0  0  0  0  0  0  0  0  0  0  0
   16.2431   -9.8073   14.9443 C   0  0  0  0  0  0  0  0  0  0  0  0
   17.6343   -9.8988   14.7918 C   0  0  0  0  0  0  0  0  0  0  0  0
   18.4606   -9.4381   15.8281 C   0  0  0  0  0  0  0  0  0  0  0  0
   17.9081   -8.8799   16.9841 C   0  0  0  0  0  0  0  0  0  0  0  0
   18.2417  -10.5141   13.5872 C   0  0  0  0  0  0  0  0  0  0  0  0
   19.2508  -11.2578   13.7337 O   0  0  0  0  0  0  0  0  0  0  0  0
   17.7207  -10.2984   12.2619 N   0  0  0  0  0  0  0  0  0  0  0  0
   16.9788   -9.0792   11.9231 C   0  0  0  0  0  0  0  0  0  0  0  0
   16.5351   -9.0865   10.4596 C   0  0  0  0  0  0  0  0  0  0  0  0
   17.7040   -9.3669    9.4980 C   0  0  0  0  0  0  0  0  0  0  0  0
   18.6224  -10.4956   10.0011 C   0  0  0  0  0  0  0  0  0  0  0  0
   18.0577  -11.2493   11.2031 C   0  0  0  0  0  0  0  0  0  0  0  0
   17.1799   -9.7593    8.2659 O   0  0  0  0  0  0  0  0  0  0  0  0
   16.6313  -10.5504    8.3850 H   0  0  0  0  0  0  0  0  0  0  0  0
   18.5794   -8.1109    9.3317 C   0  0  0  0  0  0  0  0  0  0  0  0
   18.5580   -7.4036    7.9680 C   0  0  0  0  0  0  0  0  0  0  0  0
   19.7963   -7.6974    7.1422 C   0  0  0  0  0  0  0  0  0  0  0  0
   17.2948   -7.6632    7.1684 C   0  0  0  0  0  0  0  0  0  0  0  0
   15.9823   -8.2016   18.3159 N   0  0  0  0  0  0  0  0  0  0  0  0
   16.5825   -8.0806   19.0868 H   0  0  0  0  0  0  0  0  0  0  0  0
   14.0280   -6.6433   17.4558 O   0  0  0  0  0  0  0  0  0  0  0  0
   14.3298   -7.7024   18.4783 S   0  0  0  0  0  0  0  0  0  0  0  0
   13.4282   -8.8880   18.2775 O   0  0  0  0  0  0  0  0  0  0  0  0
   14.0718   -7.0438   20.0907 C   0  0  0  0  0  0  0  0  0  0  0  0
   15.0365   -7.2649   21.0802 C   0  0  0  0  0  0  0  0  0  0  0  0
   14.8624   -6.7552   22.3696 C   0  0  0  0  0  0  0  0  0  0  0  0
   13.7201   -6.0170   22.6877 C   0  0  0  0  0  0  0  0  0  0  0  0
   12.7446   -5.7874   21.7087 C   0  0  0  0  0  0  0  0  0  0  0  0
   12.9182   -6.3012   20.4037 C   0  0  0  0  0  0  0  0  0  0  0  0
   11.9576   -6.0651   19.4687 N   0  0  0  0  0  0  0  0  0  0  0  0
   10.8414   -5.3498   19.7674 C   0  0  0  0  0  0  0  0  0  0  0  0
   10.6719   -4.8437   21.0574 C   0  0  0  0  0  0  0  0  0  0  0  0
   11.6249   -5.0718   21.9986 N   0  0  0  0  0  0  0  0  0  0  0  0
   13.5631   -5.5145   23.9735 O   0  0  0  0  0  0  0  0  0  0  0  0
   14.2206   -5.6729   24.6220 H   0  0  0  0  0  0  0  0  0  0  0  0
 23 24  2  0  0  0
 24 25  2  0  0  0
 24 21  1  0  0  0
 21  1  1  0  0  0
  1  2  2  0  0  0
  2  3  1  0  0  0
  3  4  2  0  0  0
  4  7  1  0  0  0
  7  8  2  0  0  0
  7  9  1  0  0  0
  9 10  1  0  0  0
 10 11  1  0  0  0
 11 12  1  0  0  0
 12 13  1  0  0  0
 13 14  1  0  0  0
 12 17  1  0  0  0
 17 18  1  0  0  0
 18 19  1  0  0  0
 18 20  1  0  0  0
 12 15  1  0  0  0
  4  5  1  0  0  0
  5  6  2  0  0  0
 24 26  1  0  0  0
 26 27  2  0  0  0
 27 28  1  0  0  0
 28 29  2  0  0  0
 29 30  1  0  0  0
 30 31  2  0  0  0
 31 32  1  0  0  0
 32 33  2  0  0  0
 33 34  1  0  0  0
 34 35  2  0  0  0
 29 36  1  0  0  0
  6  1  1  0  0  0
 31 26  1  0  0  0
 14  9  1  0  0  0
 35 30  1  0  0  0
 21 22  1  0  0  0
 15 16  1  0  0  0
 36 37  1  0  0  0
M  END
>  <minimizedAffinity>
-5.62825

>  <minimizedRMSD>
1.31311

$$$$
CHEMBL1583700 CSC026571601 MCULE-4829787305 MolPort-004-052-788 PubChem-4297794 ZINC000005861370 ZINC05861370


 27 29  0  0  0  0  0  0  0  0999 V2000
   15.0787   -8.2084   16.8779 C   0  0  0  0  0  0  0  0  0  0  0  0
   15.6844   -7.4373   16.0200 N   0  0  0  0  0  0  0  0  0  0  0  0
   16.5389   -7.9271   15.0116 N   0  0  0  0  0  0  0  0  0  0  0  0
   17.1027   -9.0986   15.0646 C   0  0  0  0  0  0  0  0  0  0  0  0
   16.9832  -10.0943   16.5540 S   0  0  0  0  0  0  0  0  0  0  0  0
   15.2274   -9.6957   16.7680 C   0  0  0  0  0  0  0  0  0  0  0  0
   13.3990   -6.8022   19.8268 N   0  0  0  0  0  0  0  0  0  0  0  0
   12.4628   -6.6553   18.8681 C   0  0  0  0  0  0  0  0  0  0  0  0
   11.1111   -6.0674   19.0893 C   0  0  0  0  0  0  0  0  0  0  0  0
   12.9128   -7.1352   17.6514 C   0  0  0  0  0  0  0  0  0  0  0  0
   14.1976   -7.6033   17.8995 C   0  0  0  0  0  0  0  0  0  0  0  0
   14.4626   -7.3869   19.2469 C   0  0  0  0  0  0  0  0  0  0  0  0
   15.7224   -7.7239   19.9754 C   0  0  0  0  0  0  0  0  0  0  0  0
   13.2794   -6.4347   21.2351 C   0  0  0  0  0  0  0  0  0  0  0  0
   13.6077   -4.9637   21.4355 C   0  0  0  0  0  0  0  0  0  0  0  0
   14.5157   -5.9555   23.1837 C   0  0  0  0  0  0  0  0  0  0  0  0
   14.6340   -4.8294   22.3707 O   0  0  0  0  0  0  0  0  0  0  0  0
   17.8606   -9.6088   13.9588 N   0  0  0  0  0  0  0  0  0  0  0  0
   18.7577   -9.9555   14.1693 H   0  0  0  0  0  0  0  0  0  0  0  0
   17.4631   -9.6725   12.5814 C   0  0  0  0  0  0  0  0  0  0  0  0
   16.1312   -9.8901   12.1985 C   0  0  0  0  0  0  0  0  0  0  0  0
   15.7838   -9.9497   10.8460 C   0  0  0  0  0  0  0  0  0  0  0  0
   16.7617   -9.7938    9.8592 C   0  0  0  0  0  0  0  0  0  0  0  0
   18.0954   -9.5775   10.2403 C   0  0  0  0  0  0  0  0  0  0  0  0
   18.4407   -9.5183   11.5933 C   0  0  0  0  0  0  0  0  0  0  0  0
   16.3836   -9.8580    8.5153 O   0  0  0  0  0  0  0  0  0  0  0  0
   17.2044   -9.3702    7.4628 C   0  0  0  0  0  0  0  0  0  0  0  0
 16 17  1  0  0  0
 17 15  1  0  0  0
 15 14  1  0  0  0
 14  7  1  0  0  0
  7  8  1  0  0  0
  8  9  1  0  0  0
  8 10  2  0  0  0
 10 11  1  0  0  0
 11 12  2  0  0  0
 11  1  1  0  0  0
 12 13  1  0  0  0
 12  7  1  0  0  0
  1  2  2  0  0  0
  2  3  1  0  0  0
  3  4  2  0  0  0
  4 18  1  0  0  0
  4  5  1  0  0  0
 18 20  1  0  0  0
 20 21  2  0  0  0
 21 22  1  0  0  0
 22 23  2  0  0  0
 23 26  1  0  0  0
 23 24  1  0  0  0
 26 27  1  0  0  0
 24 25  2  0  0  0
 25 20  1  0  0  0
  5  6  1  0  0  0
  6  1  1  0  0  0
 18 19  1  0  0  0
M  END
>  <minimizedAffinity>
-5.62206

>  <minimizedRMSD>
1.81789

$$$$
CHEMBL2393560 PubChem-71712724


 36 39  0  0  0  0  0  0  0  0999 V2000
   17.9592   -9.9324   11.5947 C   0  0  0  0  0  0  0  0  0  0  0  0
   18.9558  -10.1977   12.5494 C   0  0  0  0  0  0  0  0  0  0  0  0
   18.6403  -10.3290   13.9013 C   0  0  0  0  0  0  0  0  0  0  0  0
   17.3188  -10.1947   14.3240 C   0  0  0  0  0  0  0  0  0  0  0  0
   16.3159   -9.9316   13.3886 C   0  0  0  0  0  0  0  0  0  0  0  0
   16.6145   -9.7976   12.0278 C   0  0  0  0  0  0  0  0  0  0  0  0
   15.5392   -9.5332   11.1658 O   0  0  0  0  0  0  0  0  0  0  0  0
   15.2532  -10.2537    9.9755 C   0  0  0  0  0  0  0  0  0  0  0  0
   18.2790   -9.7860   10.2341 O   0  0  0  0  0  0  0  0  0  0  0  0
   18.9262   -8.6920    9.6352 C   0  0  0  0  0  0  0  0  0  0  0  0
   19.6143   -7.8856   10.3193 O   0  0  0  0  0  0  0  0  0  0  0  0
   19.5592   -7.4321    6.1249 C   0  0  0  0  0  0  0  0  0  0  0  0
   18.5654   -8.1229    5.4130 C   0  0  0  0  0  0  0  0  0  0  0  0
   17.6990   -8.9934    6.0787 C   0  0  0  0  0  0  0  0  0  0  0  0
   17.8195   -9.1787    7.4581 C   0  0  0  0  0  0  0  0  0  0  0  0
   18.8067   -8.4955    8.1812 C   0  0  0  0  0  0  0  0  0  0  0  0
   19.6725   -7.6230    7.5059 C   0  0  0  0  0  0  0  0  0  0  0  0
   21.5554   -7.0032    4.7282 C   0  0  0  0  0  0  0  0  0  0  0  0
   20.4415   -6.5548    5.4884 O   0  0  0  0  0  0  0  0  0  0  0  0
   16.9783  -10.3187   15.7781 C   0  0  0  0  0  0  0  0  0  0  0  0
   16.9327   -8.9803   16.5268 C   0  0  0  0  0  0  0  0  0  0  0  0
   17.1026   -7.7915   15.6015 C   0  0  0  0  0  0  0  0  0  0  0  0
   15.8635   -7.1412   15.4680 O   0  0  0  0  0  0  0  0  0  0  0  0
   15.1714   -7.3903   16.6638 C   0  0  0  0  0  0  0  0  0  0  0  0
   15.6021   -8.7418   17.1855 C   0  0  0  0  0  0  0  0  0  0  0  0
   15.6742   -8.7904   18.7165 C   0  0  0  0  0  0  0  0  0  0  0  0
   14.6708   -7.9190   19.4111 C   0  0  0  0  0  0  0  0  0  0  0  0
   15.0377   -7.2460   20.5780 C   0  0  0  0  0  0  0  0  0  0  0  0
   14.1099   -6.4434   21.2452 C   0  0  0  0  0  0  0  0  0  0  0  0
   12.8003   -6.3098   20.7546 C   0  0  0  0  0  0  0  0  0  0  0  0
   12.4250   -6.9935   19.5878 C   0  0  0  0  0  0  0  0  0  0  0  0
   13.3651   -7.7990   18.9240 C   0  0  0  0  0  0  0  0  0  0  0  0
   11.8590   -5.5084   21.4101 O   0  0  0  0  0  0  0  0  0  0  0  0
   11.8402   -5.3415   22.8211 C   0  0  0  0  0  0  0  0  0  0  0  0
   11.1179   -6.8596   19.1069 O   0  0  0  0  0  0  0  0  0  0  0  0
   10.5163   -7.8119   18.2401 C   0  0  0  0  0  0  0  0  0  0  0  0
 18 19  1  0  0  0
 19 12  1  0  0  0
 12 13  2  0  0  0
 13 14  1  0  0  0
 14 15  2  0  0  0
 15 16  1  0  0  0
 16 10  1  0  0  0
 16 17  2  0  0  0
 10 11  2  0  0  0
 10  9  1  0  0  0
  9  1  1  0  0  0
  1  2  2  0  0  0
  2  3  1  0  0  0
  3  4  2  0  0  0
  4 20  1  0  0  0
  4  5  1  0  0  0
 21 20  1  0  0  0
 21 22  1  0  0  0
 22 23  1  0  0  0
 23 24  1  0  0  0
 24 25  1  0  0  0
 25 26  1  0  0  0
 25 21  1  0  0  0
 26 27  1  0  0  0
 27 28  2  0  0  0
 28 29  1  0  0  0
 29 30  2  0  0  0
 30 33  1  0  0  0
 30 31  1  0  0  0
 33 34  1  0  0  0
 31 35  1  0  0  0
 31 32  2  0  0  0
 35 36  1  0  0  0
 32 27  1  0  0  0
  5  6  2  0  0  0
  6  7  1  0  0  0
  6  1  1  0  0  0
  7  8  1  0  0  0
 17 12  1  0  0  0
M  END
>  <minimizedAffinity>
-5.61417

>  <minimizedRMSD>
1.87538

$$$$
CHEMBL3209924


 32 36  0  0  0  0  0  0  0  0999 V2000
   15.5170   -7.8085   19.0798 C   0  0  0  0  0  0  0  0  0  0  0  0
   14.9879   -7.6837   17.9025 N   0  0  0  0  0  0  0  0  0  0  0  0
   15.5567   -8.1774   16.7090 N   0  0  0  0  0  0  0  0  0  0  0  0
   15.2147   -7.5078   15.5543 C   0  0  0  0  0  0  0  0  0  0  0  0
   15.6929   -7.8791   14.3286 N   0  0  0  0  0  0  0  0  0  0  0  0
   16.5239   -8.9379   14.2778 C   0  0  0  0  0  0  0  0  0  0  0  0
   17.1580   -9.5464   13.2352 C   0  0  0  0  0  0  0  0  0  0  0  0
   17.1602   -9.2778   11.8702 C   0  0  0  0  0  0  0  0  0  0  0  0
   17.9373  -10.1144   11.0500 C   0  0  0  0  0  0  0  0  0  0  0  0
   17.9784   -9.8758    9.5839 C   0  0  0  0  0  0  0  0  0  0  0  0
   18.6791  -11.1796   11.6068 C   0  0  0  0  0  0  0  0  0  0  0  0
   18.6572  -11.4271   12.9919 C   0  0  0  0  0  0  0  0  0  0  0  0
   17.8830  -10.5903   13.7929 C   0  0  0  0  0  0  0  0  0  0  0  0
   17.7452  -10.6813   15.1424 N   0  0  0  0  0  0  0  0  0  0  0  0
   16.9075   -9.6627   15.4405 C   0  0  0  0  0  0  0  0  0  0  0  0
   16.4099   -9.2673   16.6700 C   0  0  0  0  0  0  0  0  0  0  0  0
   16.7762   -9.9666   17.8154 O   0  0  0  0  0  0  0  0  0  0  0  0
   17.3561  -10.6998   17.7514 H   0  0  0  0  0  0  0  0  0  0  0  0
   13.6198   -6.2666   22.5901 C   0  0  0  0  0  0  0  0  0  0  0  0
   14.3846   -7.4438   22.6410 C   0  0  0  0  0  0  0  0  0  0  0  0
   14.9995   -7.9402   21.4894 C   0  0  0  0  0  0  0  0  0  0  0  0
   14.8616   -7.2670   20.2739 C   0  0  0  0  0  0  0  0  0  0  0  0
   14.1002   -6.0928   20.2163 C   0  0  0  0  0  0  0  0  0  0  0  0
   13.4732   -5.5932   21.3639 C   0  0  0  0  0  0  0  0  0  0  0  0
   13.7313   -5.4161   24.9138 C   0  0  0  0  0  0  0  0  0  0  0  0
   13.0062   -5.7539   23.7392 O   0  0  0  0  0  0  0  0  0  0  0  0
   12.6556   -4.3286   21.2690 C   0  0  0  0  0  0  0  0  0  0  0  0
   11.4866   -4.4226   20.3804 N   0  0  0  0  0  0  0  0  0  0  0  0
   10.7767   -5.6824   20.5868 C   0  0  0  0  0  0  0  0  0  0  0  0
   10.4239   -6.2340   19.2268 C   0  0  0  0  0  0  0  0  0  0  0  0
   11.4685   -5.6587   18.3110 C   0  0  0  0  0  0  0  0  0  0  0  0
   11.9001   -4.3706   18.9789 C   0  0  0  0  0  0  0  0  0  0  0  0
 25 26  1  0  0  0
 26 19  1  0  0  0
 19 20  2  0  0  0
 20 21  1  0  0  0
 21 22  2  0  0  0
 22  1  1  0  0  0
 22 23  1  0  0  0
  1  2  2  0  0  0
  2  3  1  0  0  0
  3  4  1  0  0  0
  4  5  2  0  0  0
  5  6  1  0  0  0
  6  7  2  0  0  0
  7  8  1  0  0  0
  8  9  2  0  0  0
  9 10  1  0  0  0
  9 11  1  0  0  0
 11 12  2  0  0  0
 12 13  1  0  0  0
 13 14  2  0  0  0
 13  7  1  0  0  0
 14 15  1  0  0  0
 15 16  2  0  0  0
 15  6  1  0  0  0
 16 17  1  0  0  0
 16  3  1  0  0  0
 23 24  2  0  0  0
 24 27  1  0  0  0
 24 19  1  0  0  0
 27 28  1  0  0  0
 28 29  1  0  0  0
 29 30  1  0  0  0
 30 31  1  0  0  0
 31 32  1  0  0  0
 32 28  1  0  0  0
 17 18  1  0  0  0
M  END
>  <minimizedAffinity>
-5.60285

>  <minimizedRMSD>
1.53841

$$$$
CHEMBL4562153 PubChem-2085351 Z46392016


 31 33  0  0  0  0  0  0  0  0999 V2000
   16.6249   -8.7499   17.1335 C   0  0  0  0  0  0  0  0  0  0  0  0
   16.4141   -9.4121   15.7989 C   0  0  0  0  0  0  0  0  0  0  0  0
   16.1022  -10.6318   15.7443 O   0  0  0  0  0  0  0  0  0  0  0  0
   16.6053   -8.6423   14.6053 N   0  0  0  0  0  0  0  0  0  0  0  0
   16.8881   -7.7068   14.7242 H   0  0  0  0  0  0  0  0  0  0  0  0
   16.4275   -9.0934   13.2557 C   0  0  0  0  0  0  0  0  0  0  0  0
   17.4650   -8.8992   12.3399 C   0  0  0  0  0  0  0  0  0  0  0  0
   17.3441   -9.3174   11.0053 C   0  0  0  0  0  0  0  0  0  0  0  0
   16.1476   -9.9436   10.5916 C   0  0  0  0  0  0  0  0  0  0  0  0
   15.1095  -10.1366   11.5073 C   0  0  0  0  0  0  0  0  0  0  0  0
   15.2468   -9.7146   12.8303 C   0  0  0  0  0  0  0  0  0  0  0  0
   15.9042  -10.5006    8.9418 Cl  0  0  0  0  0  0  0  0  0  0  0  0
   18.4874   -9.0896   10.0487 C   0  0  0  0  0  0  0  0  0  0  0  0
   18.8672  -10.2921    9.4808 F   0  0  0  0  0  0  0  0  0  0  0  0
   19.5823   -8.5465   10.7005 F   0  0  0  0  0  0  0  0  0  0  0  0
   18.0938   -8.2168    9.0507 F   0  0  0  0  0  0  0  0  0  0  0  0
   14.5648   -7.7037   16.4795 C   0  0  0  0  0  0  0  0  0  0  0  0
   15.5089   -7.9005   17.5731 N   0  0  0  0  0  0  0  0  0  0  0  0
   14.8106   -8.5274   18.6900 C   0  0  0  0  0  0  0  0  0  0  0  0
   14.5525   -7.5270   19.7754 C   0  0  0  0  0  0  0  0  0  0  0  0
   13.3241   -6.8443   19.8695 C   0  0  0  0  0  0  0  0  0  0  0  0
   12.2918   -7.0598   18.9472 C   0  0  0  0  0  0  0  0  0  0  0  0
   11.0882   -6.3650   19.0670 C   0  0  0  0  0  0  0  0  0  0  0  0
   10.9242   -5.4554   20.1127 C   0  0  0  0  0  0  0  0  0  0  0  0
   11.9292   -5.2501   21.0054 N   0  0  0  0  0  0  0  0  0  0  0  0
   13.1153   -5.9130   20.9150 C   0  0  0  0  0  0  0  0  0  0  0  0
   14.1299   -5.6779   21.8532 C   0  0  0  0  0  0  0  0  0  0  0  0
   15.3428   -6.3633   21.7551 C   0  0  0  0  0  0  0  0  0  0  0  0
   15.5521   -7.2823   20.7244 C   0  0  0  0  0  0  0  0  0  0  0  0
   13.9404   -4.7663   22.8851 O   0  0  0  0  0  0  0  0  0  0  0  0
   13.1294   -4.3026   22.9576 H   0  0  0  0  0  0  0  0  0  0  0  0
 17 18  1  0  0  0
 18 19  1  0  0  0
 18  1  1  0  0  0
 19 20  1  0  0  0
 20 21  1  0  0  0
 21 22  2  0  0  0
 22 23  1  0  0  0
 23 24  2  0  0  0
 24 25  1  0  0  0
 25 26  2  0  0  0
 26 27  1  0  0  0
 26 21  1  0  0  0
 27 28  2  0  0  0
 27 30  1  0  0  0
 28 29  1  0  0  0
 29 20  2  0  0  0
  1  2  1  0  0  0
  2  3  2  0  0  0
  2  4  1  0  0  0
  4  6  1  0  0  0
  6  7  2  0  0  0
  7  8  1  0  0  0
  8  9  2  0  0  0
  8 13  1  0  0  0
  9 10  1  0  0  0
  9 12  1  0  0  0
 10 11  2  0  0  0
 11  6  1  0  0  0
 13 14  1  0  0  0
 13 15  1  0  0  0
 13 16  1  0  0  0
 30 31  1  0  0  0
  4  5  1  0  0  0
M  END
>  <minimizedAffinity>
-5.60150

>  <minimizedRMSD>
1.38119

$$$$
CHEMBL3735539 PubChem-42991377


 34 36  0  0  0  0  0  0  0  0999 V2000
   16.7097   -8.9064   15.9421 C   0  0  0  0  0  0  0  0  0  0  0  0
   17.7087   -9.2552   16.6283 O   0  0  0  0  0  0  0  0  0  0  0  0
   15.6150   -8.1979   16.5479 N   0  0  0  0  0  0  0  0  0  0  0  0
   14.8612   -7.9533   15.9638 H   0  0  0  0  0  0  0  0  0  0  0  0
   16.5790   -9.8295   11.7631 C   0  0  0  0  0  0  0  0  0  0  0  0
   17.6986  -10.1836   12.5243 C   0  0  0  0  0  0  0  0  0  0  0  0
   17.7411   -9.8826   13.8885 C   0  0  0  0  0  0  0  0  0  0  0  0
   16.6641   -9.2278   14.5046 C   0  0  0  0  0  0  0  0  0  0  0  0
   15.5422   -8.8836   13.7370 C   0  0  0  0  0  0  0  0  0  0  0  0
   15.4989   -9.1850   12.3731 C   0  0  0  0  0  0  0  0  0  0  0  0
   16.5223  -10.1421   10.3052 C   0  0  0  0  0  0  0  0  0  0  0  0
   18.1462  -10.6927    9.6848 S   0  0  0  0  0  0  0  0  0  0  0  0
   18.5309   -5.5540    9.0840 C   0  0  0  0  0  0  0  0  0  0  0  0
   18.5276   -6.8979    8.4503 C   0  0  0  0  0  0  0  0  0  0  0  0
   18.6764   -7.0186    7.0693 C   0  0  0  0  0  0  0  0  0  0  0  0
   18.6657   -8.2967    6.5119 C   0  0  0  0  0  0  0  0  0  0  0  0
   18.5100   -9.3850    7.3102 N   0  0  0  0  0  0  0  0  0  0  0  0
   18.3639   -9.2468    8.6543 C   0  0  0  0  0  0  0  0  0  0  0  0
   18.3764   -8.0091    9.2165 N   0  0  0  0  0  0  0  0  0  0  0  0
   18.8221   -8.4684    5.0442 C   0  0  0  0  0  0  0  0  0  0  0  0
   15.5251   -7.8227   17.9023 N   0  0  0  0  0  0  0  0  0  0  0  0
   14.4106   -7.5097   18.4846 C   0  0  0  0  0  0  0  0  0  0  0  0
   14.3667   -7.1251   19.8987 C   0  0  0  0  0  0  0  0  0  0  0  0
   15.5299   -7.2069   20.6599 C   0  0  0  0  0  0  0  0  0  0  0  0
   15.5260   -6.8472   22.0155 C   0  0  0  0  0  0  0  0  0  0  0  0
   14.3396   -6.3980   22.6217 C   0  0  0  0  0  0  0  0  0  0  0  0
   13.1520   -6.3129   21.8502 C   0  0  0  0  0  0  0  0  0  0  0  0
   13.1847   -6.6794   20.4953 C   0  0  0  0  0  0  0  0  0  0  0  0
   11.9557   -5.8695   22.4262 O   0  0  0  0  0  0  0  0  0  0  0  0
   11.1858   -4.8016   21.8896 C   0  0  0  0  0  0  0  0  0  0  0  0
   14.4022   -6.0529   23.9825 O   0  0  0  0  0  0  0  0  0  0  0  0
   14.5697   -4.7345   24.4836 C   0  0  0  0  0  0  0  0  0  0  0  0
   16.6933   -6.9282   22.7836 O   0  0  0  0  0  0  0  0  0  0  0  0
   17.9084   -6.2931   22.4088 C   0  0  0  0  0  0  0  0  0  0  0  0
 13 14  1  0  0  0
 14 15  2  0  0  0
 15 16  1  0  0  0
 16 17  2  0  0  0
 16 20  1  0  0  0
 17 18  1  0  0  0
 18 19  2  0  0  0
 18 12  1  0  0  0
 19 14  1  0  0  0
 12 11  1  0  0  0
 11  5  1  0  0  0
  5  6  2  0  0  0
  6  7  1  0  0  0
  7  8  2  0  0  0
  8  9  1  0  0  0
  8  1  1  0  0  0
  9 10  2  0  0  0
 10  5  1  0  0  0
  1  2  2  0  0  0
  1  3  1  0  0  0
  3 21  1  0  0  0
 21 22  2  0  0  0
 22 23  1  0  0  0
 23 24  2  0  0  0
 24 25  1  0  0  0
 25 26  2  0  0  0
 25 33  1  0  0  0
 26 27  1  0  0  0
 26 31  1  0  0  0
 27 28  2  0  0  0
 27 29  1  0  0  0
 28 23  1  0  0  0
 29 30  1  0  0  0
 31 32  1  0  0  0
 33 34  1  0  0  0
  3  4  1  0  0  0
M  END
>  <minimizedAffinity>
-5.59267

>  <minimizedRMSD>
1.64019

$$$$
CHEMBL3218112 PubChem-90665450


 30 32  0  0  0  0  0  0  0  0999 V2000
   16.5440   -8.3537   15.8477 C   0  0  0  0  0  0  0  0  0  0  0  0
   16.8048   -7.0845   16.3659 O   0  0  0  0  0  0  0  0  0  0  0  0
   17.8776   -9.0862   15.6364 C   0  0  0  0  0  0  0  0  0  0  0  0
   17.8626   -9.9126   14.3524 C   0  0  0  0  0  0  0  0  0  0  0  0
   17.6888   -9.0580   13.1674 N   0  0  0  0  0  0  0  0  0  0  0  0
   16.7054   -7.9718   13.3560 C   0  0  0  0  0  0  0  0  0  0  0  0
   15.7610   -8.2008   14.5402 C   0  0  0  0  0  0  0  0  0  0  0  0
   17.3009   -7.1695   17.1951 H   0  0  0  0  0  0  0  0  0  0  0  0
   17.1397  -10.0677   11.8629 S   0  0  0  0  0  0  0  0  0  0  0  0
   15.6402  -10.1775   11.9142 O   0  0  0  0  0  0  0  0  0  0  0  0
   17.7470  -11.4364   12.0020 O   0  0  0  0  0  0  0  0  0  0  0  0
   17.6327   -9.3885   10.3106 C   0  0  0  0  0  0  0  0  0  0  0  0
   18.8333   -8.6710   10.2355 C   0  0  0  0  0  0  0  0  0  0  0  0
   19.2612   -8.1266    9.0228 C   0  0  0  0  0  0  0  0  0  0  0  0
   18.4917   -8.2996    7.8713 C   0  0  0  0  0  0  0  0  0  0  0  0
   19.0259   -7.6178    6.3507 Cl  0  0  0  0  0  0  0  0  0  0  0  0
   17.2977   -9.0211    7.9318 C   0  0  0  0  0  0  0  0  0  0  0  0
   16.8623   -9.5694    9.1426 C   0  0  0  0  0  0  0  0  0  0  0  0
   15.3600  -10.4812    9.1420 Cl  0  0  0  0  0  0  0  0  0  0  0  0
   15.6753   -9.1391   16.8258 C   0  0  0  0  0  0  0  0  0  0  0  0
   15.7526   -8.5976   18.1424 O   0  0  0  0  0  0  0  0  0  0  0  0
   12.7151   -6.2939   19.9171 C   0  0  0  0  0  0  0  0  0  0  0  0
   13.7777   -6.7840   20.6821 C   0  0  0  0  0  0  0  0  0  0  0  0
   14.7822   -7.5484   20.0816 C   0  0  0  0  0  0  0  0  0  0  0  0
   14.7337   -7.8279   18.7125 C   0  0  0  0  0  0  0  0  0  0  0  0
   13.6640   -7.3373   17.9461 C   0  0  0  0  0  0  0  0  0  0  0  0
   12.6579   -6.5724   18.5434 C   0  0  0  0  0  0  0  0  0  0  0  0
   11.6349   -6.1075   17.7832 F   0  0  0  0  0  0  0  0  0  0  0  0
   10.8665   -4.8773   21.0624 N   0  0  0  0  0  0  0  0  0  0  0  0
   11.6908   -5.5090   20.5518 C   0  0  0  0  0  0  0  0  0  0  0  0
 29 30  3  0  0  0
 30 22  1  0  0  0
 22 23  2  0  0  0
 23 24  1  0  0  0
 24 25  2  0  0  0
 25 21  1  0  0  0
 25 26  1  0  0  0
 21 20  1  0  0  0
 20  1  1  0  0  0
  1  2  1  0  0  0
  1  3  1  0  0  0
  3  4  1  0  0  0
  4  5  1  0  0  0
  5  9  1  0  0  0
  5  6  1  0  0  0
  9 10  2  0  0  0
  9 11  2  0  0  0
  9 12  1  0  0  0
 12 13  2  0  0  0
 13 14  1  0  0  0
 14 15  2  0  0  0
 15 16  1  0  0  0
 15 17  1  0  0  0
 17 18  2  0  0  0
 18 19  1  0  0  0
 18 12  1  0  0  0
  6  7  1  0  0  0
  7  1  1  0  0  0
 26 27  2  0  0  0
 27 28  1  0  0  0
 27 22  1  0  0  0
  2  8  1  0  0  0
M  END
>  <minimizedAffinity>
-5.59254

>  <minimizedRMSD>
1.43184

$$$$
CHEMBL4748746 PubChem-162650652


 32 35  0  0  0  0  0  0  0  0999 V2000
   18.1392  -10.8284   12.5412 C   0  0  0  0  0  0  0  0  0  0  0  0
   17.7665   -9.7887   11.5785 N   0  0  0  0  0  0  0  0  0  0  0  0
   16.5215   -9.0411   11.7710 C   0  0  0  0  0  0  0  0  0  0  0  0
   16.2938   -8.7875   13.2283 C   0  0  0  0  0  0  0  0  0  0  0  0
   17.0475   -9.3771   14.2443 C   0  0  0  0  0  0  0  0  0  0  0  0
   18.2462  -10.2304   13.9459 C   0  0  0  0  0  0  0  0  0  0  0  0
   16.6038   -9.0003   15.5209 C   0  0  0  0  0  0  0  0  0  0  0  0
   15.5097   -8.1571   15.4769 C   0  0  0  0  0  0  0  0  0  0  0  0
   15.0606   -7.8377   13.8887 S   0  0  0  0  0  0  0  0  0  0  0  0
   14.9217   -7.6766   16.5974 N   0  0  0  0  0  0  0  0  0  0  0  0
   15.4227   -8.0337   17.8170 C   0  0  0  0  0  0  0  0  0  0  0  0
   16.5072   -8.8672   17.8902 N   0  0  0  0  0  0  0  0  0  0  0  0
   17.1113   -9.3598   16.7722 C   0  0  0  0  0  0  0  0  0  0  0  0
   18.1056  -10.1247   16.8811 O   0  0  0  0  0  0  0  0  0  0  0  0
   18.5785   -9.5417   10.4246 C   0  0  0  0  0  0  0  0  0  0  0  0
   19.6378  -10.2038   10.2443 O   0  0  0  0  0  0  0  0  0  0  0  0
   16.8600   -9.1171   18.7747 H   0  0  0  0  0  0  0  0  0  0  0  0
   14.7981   -7.5226   19.0514 C   0  0  0  0  0  0  0  0  0  0  0  0
   13.5139   -6.9741   19.0212 C   0  0  0  0  0  0  0  0  0  0  0  0
   12.9113   -6.4855   20.1891 C   0  0  0  0  0  0  0  0  0  0  0  0
   13.5993   -6.5430   21.4132 C   0  0  0  0  0  0  0  0  0  0  0  0
   14.9036   -7.0984   21.4531 C   0  0  0  0  0  0  0  0  0  0  0  0
   15.4825   -7.5801   20.2683 C   0  0  0  0  0  0  0  0  0  0  0  0
   15.6135   -7.1694   22.6574 O   0  0  0  0  0  0  0  0  0  0  0  0
   16.8127   -6.4435   22.8945 C   0  0  0  0  0  0  0  0  0  0  0  0
   12.9407   -6.0369   22.5468 O   0  0  0  0  0  0  0  0  0  0  0  0
   13.1301   -4.7378   23.0888 C   0  0  0  0  0  0  0  0  0  0  0  0
   11.6243   -5.9360   20.1574 O   0  0  0  0  0  0  0  0  0  0  0  0
   11.3110   -4.7475   19.4436 C   0  0  0  0  0  0  0  0  0  0  0  0
   18.1951   -8.5643    9.5028 O   0  0  0  0  0  0  0  0  0  0  0  0
   19.0981   -7.5699    9.0440 C   0  0  0  0  0  0  0  0  0  0  0  0
   19.0042   -7.4605    7.5369 C   0  0  0  0  0  0  0  0  0  0  0  0
  1  2  1  0  0  0
  2  3  1  0  0  0
  3  4  1  0  0  0
  4  5  2  0  0  0
  5  6  1  0  0  0
  5  7  1  0  0  0
  7  8  2  0  0  0
  8  9  1  0  0  0
  8 10  1  0  0  0
 10 11  2  0  0  0
 11 12  1  0  0  0
 12 13  1  0  0  0
 13 14  2  0  0  0
 11 18  1  0  0  0
 18 19  2  0  0  0
 19 20  1  0  0  0
 20 21  2  0  0  0
 21 22  1  0  0  0
 22 23  2  0  0  0
 22 24  1  0  0  0
 24 25  1  0  0  0
 21 26  1  0  0  0
 26 27  1  0  0  0
 20 28  1  0  0  0
 28 29  1  0  0  0
  2 15  1  0  0  0
 15 16  2  0  0  0
 15 30  1  0  0  0
 30 31  1  0  0  0
 31 32  1  0  0  0
  6  1  1  0  0  0
 13  7  1  0  0  0
 23 18  1  0  0  0
  9  4  1  0  0  0
 12 17  1  0  0  0
M  END
>  <minimizedAffinity>
-5.59057

>  <minimizedRMSD>
0.67070

$$$$
CHEMBL4438794 PubChem-155513356


 35 37  0  0  0  0  0  0  0  0999 V2000
   15.6041   -8.2662   17.3564 C   0  0  0  0  0  0  0  0  0  0  0  0
   15.3866   -7.6101   16.1834 N   0  0  0  0  0  0  0  0  0  0  0  0
   15.9621   -7.9884   15.0099 C   0  0  0  0  0  0  0  0  0  0  0  0
   16.8288   -9.1097   14.9805 C   0  0  0  0  0  0  0  0  0  0  0  0
   17.0577   -9.7902   16.1840 C   0  0  0  0  0  0  0  0  0  0  0  0
   16.4528   -9.3769   17.3679 C   0  0  0  0  0  0  0  0  0  0  0  0
   15.6404   -7.1837   13.7966 C   0  0  0  0  0  0  0  0  0  0  0  0
   12.9617   -6.9711   19.7414 C   0  0  0  0  0  0  0  0  0  0  0  0
   13.6682   -6.9097   20.9545 C   0  0  0  0  0  0  0  0  0  0  0  0
   15.0310   -7.2998   20.9865 C   0  0  0  0  0  0  0  0  0  0  0  0
   15.6482   -7.7398   19.8050 C   0  0  0  0  0  0  0  0  0  0  0  0
   14.9461   -7.8014   18.5965 C   0  0  0  0  0  0  0  0  0  0  0  0
   13.6036   -7.4147   18.5765 C   0  0  0  0  0  0  0  0  0  0  0  0
   15.7609   -7.2495   22.1799 O   0  0  0  0  0  0  0  0  0  0  0  0
   16.8894   -6.4045   22.3636 C   0  0  0  0  0  0  0  0  0  0  0  0
   12.9680   -6.4567   22.0856 O   0  0  0  0  0  0  0  0  0  0  0  0
   13.0121   -5.1321   22.5964 C   0  0  0  0  0  0  0  0  0  0  0  0
   11.6166   -6.5846   19.7174 O   0  0  0  0  0  0  0  0  0  0  0  0
   10.7007   -7.0416   18.7313 C   0  0  0  0  0  0  0  0  0  0  0  0
   17.5098   -9.6094   13.7564 C   0  0  0  0  0  0  0  0  0  0  0  0
   18.6520  -10.1369   13.8529 O   0  0  0  0  0  0  0  0  0  0  0  0
   16.9003   -9.5067   12.4693 N   0  0  0  0  0  0  0  0  0  0  0  0
   16.0092   -9.0962   12.3879 H   0  0  0  0  0  0  0  0  0  0  0  0
   17.5470   -9.9794   11.3202 N   0  0  0  0  0  0  0  0  0  0  0  0
   17.7777   -9.1241   10.2032 C   0  0  0  0  0  0  0  0  0  0  0  0
   17.3968   -7.9230   10.2426 O   0  0  0  0  0  0  0  0  0  0  0  0
   18.4432   -9.6504    9.0483 N   0  0  0  0  0  0  0  0  0  0  0  0
   17.8468  -10.9165   11.2834 H   0  0  0  0  0  0  0  0  0  0  0  0
   18.7124  -10.5966    9.0877 H   0  0  0  0  0  0  0  0  0  0  0  0
   18.7582   -8.9431    7.8410 C   0  0  0  0  0  0  0  0  0  0  0  0
   19.7280   -7.9288    7.8046 C   0  0  0  0  0  0  0  0  0  0  0  0
   20.0081   -7.2612    6.6087 C   0  0  0  0  0  0  0  0  0  0  0  0
   19.3209   -7.6027    5.4410 C   0  0  0  0  0  0  0  0  0  0  0  0
   18.3543   -8.6114    5.4698 C   0  0  0  0  0  0  0  0  0  0  0  0
   18.0750   -9.2785    6.6666 C   0  0  0  0  0  0  0  0  0  0  0  0
  8  9  2  0  0  0
  9 10  1  0  0  0
 10 11  2  0  0  0
 11 12  1  0  0  0
 12 13  2  0  0  0
 12  1  1  0  0  0
  1  2  2  0  0  0
  2  3  1  0  0  0
  3  4  2  0  0  0
  4  5  1  0  0  0
  5  6  2  0  0  0
  4 20  1  0  0  0
 20 21  2  0  0  0
 20 22  1  0  0  0
 22 24  1  0  0  0
 24 25  1  0  0  0
 25 26  2  0  0  0
 25 27  1  0  0  0
 27 30  1  0  0  0
 30 31  2  0  0  0
 31 32  1  0  0  0
 32 33  2  0  0  0
 33 34  1  0  0  0
 34 35  2  0  0  0
  3  7  1  0  0  0
 10 14  1  0  0  0
 14 15  1  0  0  0
  9 16  1  0  0  0
 16 17  1  0  0  0
  8 18  1  0  0  0
 18 19  1  0  0  0
 13  8  1  0  0  0
  6  1  1  0  0  0
 35 30  1  0  0  0
 22 23  1  0  0  0
 24 28  1  0  0  0
 27 29  1  0  0  0
M  END
>  <minimizedAffinity>
-5.57752

>  <minimizedRMSD>
1.58605

$$$$
CHEMBL4585867 PubChem-135335640


 31 34  0  0  0  0  0  0  0  0999 V2000
   16.5810   -9.1384   14.7493 C   0  0  0  0  0  0  0  0  0  0  0  0
   15.7142   -8.1895   15.3327 C   0  0  0  0  0  0  0  0  0  0  0  0
   15.5740   -8.1959   16.7174 C   0  0  0  0  0  0  0  0  0  0  0  0
   14.7943   -7.3681   17.4334 N   0  0  0  0  0  0  0  0  0  0  0  0
   15.0056   -7.7739   18.7112 C   0  0  0  0  0  0  0  0  0  0  0  0
   15.9067   -8.8373   18.7512 C   0  0  0  0  0  0  0  0  0  0  0  0
   16.2425   -9.0748   17.4760 N   0  0  0  0  0  0  0  0  0  0  0  0
   17.0890  -10.0054   16.9747 C   0  0  0  0  0  0  0  0  0  0  0  0
   17.2713  -10.0480   15.5856 C   0  0  0  0  0  0  0  0  0  0  0  0
   18.2456  -11.1215   13.0641 C   0  0  0  0  0  0  0  0  0  0  0  0
   18.0183   -9.6568   12.7167 C   0  0  0  0  0  0  0  0  0  0  0  0
   17.9644   -9.5115   11.1967 C   0  0  0  0  0  0  0  0  0  0  0  0
   16.7211  -10.0985   10.6877 N   0  0  0  0  0  0  0  0  0  0  0  0
   15.5222   -9.4034   11.1924 C   0  0  0  0  0  0  0  0  0  0  0  0
   15.7629   -8.5531   12.4479 C   0  0  0  0  0  0  0  0  0  0  0  0
   16.7664   -9.1712   13.3183 N   0  0  0  0  0  0  0  0  0  0  0  0
   16.7308   -9.9450    8.9598 S   0  0  0  0  0  0  0  0  0  0  0  0
   15.6992   -8.9416    8.5235 O   0  0  0  0  0  0  0  0  0  0  0  0
   16.4245  -11.2765    8.3331 O   0  0  0  0  0  0  0  0  0  0  0  0
   18.3366   -9.4113    8.4112 C   0  0  0  0  0  0  0  0  0  0  0  0
   14.3613   -7.1635   19.8985 C   0  0  0  0  0  0  0  0  0  0  0  0
   14.9075   -7.4168   21.1656 C   0  0  0  0  0  0  0  0  0  0  0  0
   14.3434   -6.8691   22.3184 C   0  0  0  0  0  0  0  0  0  0  0  0
   13.2119   -6.0502   22.2248 C   0  0  0  0  0  0  0  0  0  0  0  0
   12.6586   -5.7911   20.9631 C   0  0  0  0  0  0  0  0  0  0  0  0
   13.2190   -6.3376   19.7968 C   0  0  0  0  0  0  0  0  0  0  0  0
   15.0730   -7.2233   23.8741 Cl  0  0  0  0  0  0  0  0  0  0  0  0
   12.6513   -6.0667   18.5457 O   0  0  0  0  0  0  0  0  0  0  0  0
   11.6148   -5.1125   18.3567 C   0  0  0  0  0  0  0  0  0  0  0  0
   12.6542   -5.5061   23.3870 O   0  0  0  0  0  0  0  0  0  0  0  0
   11.8237   -4.3528   23.3748 C   0  0  0  0  0  0  0  0  0  0  0  0
 10 11  1  0  0  0
 11 12  1  0  0  0
 12 13  1  0  0  0
 13 14  1  0  0  0
 14 15  1  0  0  0
 15 16  1  0  0  0
 16  1  1  0  0  0
  1  2  2  0  0  0
  2  3  1  0  0  0
  3  4  2  0  0  0
  4  5  1  0  0  0
  5  6  2  0  0  0
  6  7  1  0  0  0
  7  8  1  0  0  0
  8  9  2  0  0  0
  5 21  1  0  0  0
 21 22  2  0  0  0
 22 23  1  0  0  0
 23 24  2  0  0  0
 24 25  1  0  0  0
 25 26  2  0  0  0
 26 28  1  0  0  0
 28 29  1  0  0  0
 24 30  1  0  0  0
 30 31  1  0  0  0
 23 27  1  0  0  0
 13 17  1  0  0  0
 17 18  2  0  0  0
 17 19  2  0  0  0
 17 20  1  0  0  0
 16 11  1  0  0  0
  9  1  1  0  0  0
  7  3  1  0  0  0
 26 21  1  0  0  0
M  END
>  <minimizedAffinity>
-5.57624

>  <minimizedRMSD>
1.84896

$$$$
CHEMBL4587622 PubChem-135334874


 32 36  0  0  0  0  0  0  0  0999 V2000
   14.7619   -7.6775   17.8469 C   0  0  0  0  0  0  0  0  0  0  0  0
   16.0053   -8.2550   18.0988 C   0  0  0  0  0  0  0  0  0  0  0  0
   16.4403   -8.7145   16.9181 N   0  0  0  0  0  0  0  0  0  0  0  0
   17.5942   -9.3597   16.6248 C   0  0  0  0  0  0  0  0  0  0  0  0
   17.8165   -9.7367   15.2930 C   0  0  0  0  0  0  0  0  0  0  0  0
   16.8517   -9.4416   14.3005 C   0  0  0  0  0  0  0  0  0  0  0  0
   15.6691   -8.7651   14.6691 C   0  0  0  0  0  0  0  0  0  0  0  0
   15.5047   -8.4177   16.0069 C   0  0  0  0  0  0  0  0  0  0  0  0
   14.4484   -7.7720   16.5288 N   0  0  0  0  0  0  0  0  0  0  0  0
   14.0495   -7.1040   20.2409 C   0  0  0  0  0  0  0  0  0  0  0  0
   13.2029   -6.3853   21.0913 C   0  0  0  0  0  0  0  0  0  0  0  0
   12.1795   -5.5749   20.5805 C   0  0  0  0  0  0  0  0  0  0  0  0
   12.0044   -5.4897   19.1943 C   0  0  0  0  0  0  0  0  0  0  0  0
   12.8526   -6.1926   18.3375 C   0  0  0  0  0  0  0  0  0  0  0  0
   13.8872   -6.9980   18.8349 C   0  0  0  0  0  0  0  0  0  0  0  0
   10.7320   -4.4968   18.5064 Cl  0  0  0  0  0  0  0  0  0  0  0  0
   14.8131   -8.0948   22.3745 C   0  0  0  0  0  0  0  0  0  0  0  0
   15.0848   -7.9678   20.8864 C   0  0  0  0  0  0  0  0  0  0  0  0
   11.3313   -4.8560   21.4300 O   0  0  0  0  0  0  0  0  0  0  0  0
   11.3364   -5.0203   22.8416 C   0  0  0  0  0  0  0  0  0  0  0  0
   17.0751   -9.8242   12.9301 N   0  0  0  0  0  0  0  0  0  0  0  0
   18.3359  -10.4417   12.5260 C   0  0  0  0  0  0  0  0  0  0  0  0
   18.7523   -9.8755   11.1715 C   0  0  0  0  0  0  0  0  0  0  0  0
   17.7341  -10.0690   10.1226 N   0  0  0  0  0  0  0  0  0  0  0  0
   16.3761  -10.3564   10.6213 C   0  0  0  0  0  0  0  0  0  0  0  0
   16.0362   -9.6151   11.9190 C   0  0  0  0  0  0  0  0  0  0  0  0
   17.6791   -8.6300    9.1503 S   0  0  0  0  0  0  0  0  0  0  0  0
   16.3338   -8.5298    8.4824 O   0  0  0  0  0  0  0  0  0  0  0  0
   17.8867   -7.4185   10.0168 O   0  0  0  0  0  0  0  0  0  0  0  0
   18.9864   -8.6937    7.9306 C   0  0  0  0  0  0  0  0  0  0  0  0
   18.4107   -8.4967    6.5430 C   0  0  0  0  0  0  0  0  0  0  0  0
   19.1267   -7.3548    7.2343 C   0  0  0  0  0  0  0  0  0  0  0  0
 17 18  1  0  0  0
 18 10  1  0  0  0
 10 11  2  0  0  0
 11 12  1  0  0  0
 12 13  2  0  0  0
 13 14  1  0  0  0
 14 15  2  0  0  0
 15  1  1  0  0  0
  1  2  2  0  0  0
  2  3  1  0  0  0
  3  4  1  0  0  0
  4  5  2  0  0  0
  5  6  1  0  0  0
  6  7  2  0  0  0
  7  8  1  0  0  0
  8  9  2  0  0  0
  6 21  1  0  0  0
 21 22  1  0  0  0
 22 23  1  0  0  0
 23 24  1  0  0  0
 24 25  1  0  0  0
 25 26  1  0  0  0
 24 27  1  0  0  0
 27 28  2  0  0  0
 27 29  2  0  0  0
 27 30  1  0  0  0
 30 31  1  0  0  0
 31 32  1  0  0  0
 13 16  1  0  0  0
 12 19  1  0  0  0
 19 20  1  0  0  0
 15 10  1  0  0  0
  9  1  1  0  0  0
  8  3  1  0  0  0
 26 21  1  0  0  0
 32 30  1  0  0  0
M  END
>  <minimizedAffinity>
-5.56933

>  <minimizedRMSD>
1.08764

$$$$
CHEMBL3661186 PubChem-67501406


 39 43  0  0  0  0  0  0  0  0999 V2000
   15.6388   -8.3662   17.0313 N   0  0  0  0  0  0  0  0  0  0  0  0
   15.2597   -7.8300   15.8772 N   0  0  0  0  0  0  0  0  0  0  0  0
   15.8839   -8.4827   14.8652 C   0  0  0  0  0  0  0  0  0  0  0  0
   16.7117   -9.4648   15.4102 C   0  0  0  0  0  0  0  0  0  0  0  0
   17.5639  -10.4592   14.8961 C   0  0  0  0  0  0  0  0  0  0  0  0
   18.1519  -11.3424   15.8221 C   0  0  0  0  0  0  0  0  0  0  0  0
   17.8957  -11.2007   17.2003 C   0  0  0  0  0  0  0  0  0  0  0  0
   17.0764  -10.2088   17.6546 N   0  0  0  0  0  0  0  0  0  0  0  0
   16.5057   -9.3611   16.7615 C   0  0  0  0  0  0  0  0  0  0  0  0
   13.2700   -7.2758   19.7316 C   0  0  0  0  0  0  0  0  0  0  0  0
   13.7808   -7.7041   18.4965 C   0  0  0  0  0  0  0  0  0  0  0  0
   15.1504   -7.9262   18.3119 C   0  0  0  0  0  0  0  0  0  0  0  0
   16.0203   -7.7090   19.3861 C   0  0  0  0  0  0  0  0  0  0  0  0
   15.5289   -7.2803   20.6190 C   0  0  0  0  0  0  0  0  0  0  0  0
   14.1579   -7.0570   20.8134 C   0  0  0  0  0  0  0  0  0  0  0  0
   13.7047   -6.6017   22.1512 C   0  0  0  0  0  0  0  0  0  0  0  0
   12.6378   -5.9476   22.2904 O   0  0  0  0  0  0  0  0  0  0  0  0
   14.4794   -6.9031   23.3091 N   0  0  0  0  0  0  0  0  0  0  0  0
   15.3168   -7.4134   23.2220 H   0  0  0  0  0  0  0  0  0  0  0  0
   14.1771   -6.6009   24.1960 H   0  0  0  0  0  0  0  0  0  0  0  0
   11.8606   -7.0526   19.8803 N   0  0  0  0  0  0  0  0  0  0  0  0
   11.4772   -7.1130   20.7851 H   0  0  0  0  0  0  0  0  0  0  0  0
   10.3596   -8.0171   18.2160 C   0  0  0  0  0  0  0  0  0  0  0  0
   10.9605   -6.7420   18.7771 C   0  0  0  0  0  0  0  0  0  0  0  0
   17.8809  -10.5813   13.5064 N   0  0  0  0  0  0  0  0  0  0  0  0
   18.5989  -11.5730   12.9452 C   0  0  0  0  0  0  0  0  0  0  0  0
   18.8241  -11.3400   11.6367 N   0  0  0  0  0  0  0  0  0  0  0  0
   18.2390  -10.1470   11.4013 C   0  0  0  0  0  0  0  0  0  0  0  0
   17.6671   -9.6552   12.5574 C   0  0  0  0  0  0  0  0  0  0  0  0
   18.2350   -9.4790   10.0894 C   0  0  0  0  0  0  0  0  0  0  0  0
   19.0815   -8.3931    9.8338 C   0  0  0  0  0  0  0  0  0  0  0  0
   19.0639   -7.7697    8.5854 C   0  0  0  0  0  0  0  0  0  0  0  0
   18.1942   -8.2418    7.6006 C   0  0  0  0  0  0  0  0  0  0  0  0
   17.3767   -9.2970    7.8615 N   0  0  0  0  0  0  0  0  0  0  0  0
   17.3791   -9.9179    9.0717 C   0  0  0  0  0  0  0  0  0  0  0  0
   15.6326   -8.1574   13.4229 C   0  0  0  0  0  0  0  0  0  0  0  0
   15.1217   -9.2584   12.7617 F   0  0  0  0  0  0  0  0  0  0  0  0
   14.7121   -7.1289   13.3304 F   0  0  0  0  0  0  0  0  0  0  0  0
   16.8087   -7.7485   12.8241 F   0  0  0  0  0  0  0  0  0  0  0  0
 23 24  1  0  0  0
 24 21  1  0  0  0
 21 10  1  0  0  0
 10 11  2  0  0  0
 11 12  1  0  0  0
 12 13  2  0  0  0
 13 14  1  0  0  0
 14 15  2  0  0  0
 15 16  1  0  0  0
 16 17  2  0  0  0
 16 18  1  0  0  0
 12  1  1  0  0  0
  1  2  1  0  0  0
  2  3  2  0  0  0
  3  4  1  0  0  0
  4  5  2  0  0  0
  5  6  1  0  0  0
  6  7  2  0  0  0
  7  8  1  0  0  0
  8  9  2  0  0  0
  5 25  1  0  0  0
 25 26  1  0  0  0
 26 27  2  0  0  0
 27 28  1  0  0  0
 28 29  2  0  0  0
 28 30  1  0  0  0
 30 31  2  0  0  0
 31 32  1  0  0  0
 32 33  2  0  0  0
 33 34  1  0  0  0
 34 35  2  0  0  0
  3 36  1  0  0  0
 36 37  1  0  0  0
 36 38  1  0  0  0
 36 39  1  0  0  0
 15 10  1  0  0  0
  9  1  1  0  0  0
 29 25  1  0  0  0
 35 30  1  0  0  0
  9  4  1  0  0  0
 21 22  1  0  0  0
 18 19  1  0  0  0
 18 20  1  0  0  0
M  END
>  <minimizedAffinity>
-5.56278

>  <minimizedRMSD>
1.09180

$$$$
CHEMBL1333718 MCULE-6343991796 PubChem-2390489 ZINC000003274666 ZINC03274666


 31 33  0  0  0  0  0  0  0  0999 V2000
   14.9458   -7.8864   18.1465 C   0  0  0  0  0  0  0  0  0  0  0  0
   14.5123   -7.4505   17.0445 O   0  0  0  0  0  0  0  0  0  0  0  0
   15.7935   -9.0397   18.1754 N   0  0  0  0  0  0  0  0  0  0  0  0
   16.1019   -9.3771   19.0474 H   0  0  0  0  0  0  0  0  0  0  0  0
   15.0905   -6.6301   21.7164 C   0  0  0  0  0  0  0  0  0  0  0  0
   15.4245   -7.2681   20.5112 C   0  0  0  0  0  0  0  0  0  0  0  0
   14.5770   -7.2107   19.4026 C   0  0  0  0  0  0  0  0  0  0  0  0
   13.3766   -6.5036   19.5008 C   0  0  0  0  0  0  0  0  0  0  0  0
   13.0177   -5.8569   20.6921 C   0  0  0  0  0  0  0  0  0  0  0  0
   13.8696   -5.9141   21.8084 C   0  0  0  0  0  0  0  0  0  0  0  0
   17.3217   -6.3026   22.7489 C   0  0  0  0  0  0  0  0  0  0  0  0
   15.9595   -6.7047   22.8113 O   0  0  0  0  0  0  0  0  0  0  0  0
   13.4528   -5.2454   22.9720 O   0  0  0  0  0  0  0  0  0  0  0  0
   13.9839   -5.4602   24.2716 C   0  0  0  0  0  0  0  0  0  0  0  0
   11.8146   -5.1483   20.7905 O   0  0  0  0  0  0  0  0  0  0  0  0
   11.0850   -4.7063   19.6536 C   0  0  0  0  0  0  0  0  0  0  0  0
   16.2179   -9.7336   16.9690 C   0  0  0  0  0  0  0  0  0  0  0  0
   17.4346   -9.0451   16.3738 C   0  0  0  0  0  0  0  0  0  0  0  0
   17.5825   -9.4114   14.9719 N   0  0  0  0  0  0  0  0  0  0  0  0
   16.8214   -8.8494   13.9174 C   0  0  0  0  0  0  0  0  0  0  0  0
   15.8971   -8.0152   14.1170 O   0  0  0  0  0  0  0  0  0  0  0  0
   17.2139   -9.3253   12.5951 C   0  0  0  0  0  0  0  0  0  0  0  0
   16.6149   -8.8932   11.4792 C   0  0  0  0  0  0  0  0  0  0  0  0
   18.5675  -10.5178   12.6743 S   0  0  0  0  0  0  0  0  0  0  0  0
   18.5712  -10.2968   14.4569 C   0  0  0  0  0  0  0  0  0  0  0  0
   19.4078  -10.8734   15.2009 O   0  0  0  0  0  0  0  0  0  0  0  0
   16.9228   -9.2948   10.0960 C   0  0  0  0  0  0  0  0  0  0  0  0
   18.0131   -8.9284    9.3197 C   0  0  0  0  0  0  0  0  0  0  0  0
   17.9906   -9.4995    8.0391 C   0  0  0  0  0  0  0  0  0  0  0  0
   16.8905  -10.3167    7.7930 C   0  0  0  0  0  0  0  0  0  0  0  0
   15.9535  -10.3149    9.1893 S   0  0  0  0  0  0  0  0  0  0  0  0
 11 12  1  0  0  0
 12  5  1  0  0  0
  5  6  2  0  0  0
  6  7  1  0  0  0
  7  8  2  0  0  0
  7  1  1  0  0  0
  8  9  1  0  0  0
  9 10  2  0  0  0
  9 15  1  0  0  0
 10 13  1  0  0  0
 10  5  1  0  0  0
 13 14  1  0  0  0
 15 16  1  0  0  0
  1  2  2  0  0  0
  1  3  1  0  0  0
  3 17  1  0  0  0
 17 18  1  0  0  0
 18 19  1  0  0  0
 19 20  1  0  0  0
 20 21  2  0  0  0
 20 22  1  0  0  0
 22 23  2  0  0  0
 22 24  1  0  0  0
 23 27  1  0  0  0
 27 28  2  0  0  0
 28 29  1  0  0  0
 29 30  2  0  0  0
 30 31  1  0  0  0
 31 27  1  0  0  0
 24 25  1  0  0  0
 25 26  2  0  0  0
 25 19  1  0  0  0
  3  4  1  0  0  0
M  END
>  <minimizedAffinity>
-5.55847

>  <minimizedRMSD>
1.71937

$$$$
CHEMBL4546429 PubChem-155552671


 35 37  0  0  0  0  0  0  0  0999 V2000
   17.4203   -9.6636   13.6229 C   0  0  0  0  0  0  0  0  0  0  0  0
   18.5246  -10.2669   13.7157 O   0  0  0  0  0  0  0  0  0  0  0  0
   16.8290   -9.4945   12.3342 N   0  0  0  0  0  0  0  0  0  0  0  0
   15.9674   -9.0247   12.2557 H   0  0  0  0  0  0  0  0  0  0  0  0
   15.5816   -8.2701   17.2386 C   0  0  0  0  0  0  0  0  0  0  0  0
   15.3844   -7.5994   16.0703 N   0  0  0  0  0  0  0  0  0  0  0  0
   15.9403   -7.9924   14.8921 C   0  0  0  0  0  0  0  0  0  0  0  0
   16.7637   -9.1455   14.8527 C   0  0  0  0  0  0  0  0  0  0  0  0
   16.9715   -9.8413   16.0512 C   0  0  0  0  0  0  0  0  0  0  0  0
   16.3876   -9.4122   17.2401 C   0  0  0  0  0  0  0  0  0  0  0  0
   15.6444   -7.1690   13.6848 C   0  0  0  0  0  0  0  0  0  0  0  0
   14.9686   -7.4918   20.8948 C   0  0  0  0  0  0  0  0  0  0  0  0
   13.7161   -6.8598   20.8442 C   0  0  0  0  0  0  0  0  0  0  0  0
   13.0759   -6.6910   19.6075 C   0  0  0  0  0  0  0  0  0  0  0  0
   13.6961   -7.1564   18.4366 C   0  0  0  0  0  0  0  0  0  0  0  0
   14.9466   -7.7878   18.4840 C   0  0  0  0  0  0  0  0  0  0  0  0
   15.5774   -7.9511   19.7256 C   0  0  0  0  0  0  0  0  0  0  0  0
   11.8278   -6.0603   19.5644 O   0  0  0  0  0  0  0  0  0  0  0  0
   11.5606   -4.9396   18.7322 C   0  0  0  0  0  0  0  0  0  0  0  0
   13.0918   -6.3936   22.0064 O   0  0  0  0  0  0  0  0  0  0  0  0
   13.5877   -5.2942   22.7582 C   0  0  0  0  0  0  0  0  0  0  0  0
   17.4525   -9.9850   11.1796 N   0  0  0  0  0  0  0  0  0  0  0  0
   17.7429   -9.1248   10.0803 C   0  0  0  0  0  0  0  0  0  0  0  0
   17.4368   -7.9034   10.1406 O   0  0  0  0  0  0  0  0  0  0  0  0
   18.3818   -9.6698    8.9191 N   0  0  0  0  0  0  0  0  0  0  0  0
   17.6939  -10.9380   11.1265 H   0  0  0  0  0  0  0  0  0  0  0  0
   18.5916  -10.6314    8.9419 H   0  0  0  0  0  0  0  0  0  0  0  0
   18.7478   -8.9609    7.7272 C   0  0  0  0  0  0  0  0  0  0  0  0
   18.1575   -9.2398    6.4856 C   0  0  0  0  0  0  0  0  0  0  0  0
   18.5400   -8.5277    5.3457 C   0  0  0  0  0  0  0  0  0  0  0  0
   19.5196   -7.5260    5.4337 C   0  0  0  0  0  0  0  0  0  0  0  0
   20.1073   -7.2489    6.6717 C   0  0  0  0  0  0  0  0  0  0  0  0
   19.7234   -7.9621    7.8112 C   0  0  0  0  0  0  0  0  0  0  0  0
   19.9248   -6.7956    4.3132 O   0  0  0  0  0  0  0  0  0  0  0  0
   19.5754   -7.1674    2.9869 C   0  0  0  0  0  0  0  0  0  0  0  0
 12 13  2  0  0  0
 13 14  1  0  0  0
 14 15  2  0  0  0
 15 16  1  0  0  0
 16 17  2  0  0  0
 16  5  1  0  0  0
  5  6  2  0  0  0
  6  7  1  0  0  0
  7  8  2  0  0  0
  8  9  1  0  0  0
  9 10  2  0  0  0
  8  1  1  0  0  0
  1  2  2  0  0  0
  1  3  1  0  0  0
  3 22  1  0  0  0
 22 23  1  0  0  0
 23 24  2  0  0  0
 23 25  1  0  0  0
 25 28  1  0  0  0
 28 29  2  0  0  0
 29 30  1  0  0  0
 30 31  2  0  0  0
 31 32  1  0  0  0
 32 33  2  0  0  0
 31 34  1  0  0  0
 34 35  1  0  0  0
  7 11  1  0  0  0
 14 18  1  0  0  0
 18 19  1  0  0  0
 13 20  1  0  0  0
 20 21  1  0  0  0
 17 12  1  0  0  0
 10  5  1  0  0  0
 33 28  1  0  0  0
  3  4  1  0  0  0
 22 26  1  0  0  0
 25 27  1  0  0  0
M  END
>  <minimizedAffinity>
-5.55317

>  <minimizedRMSD>
1.66346

$$$$
CHEMBL212657 PubChem-44416314


 33 37  0  0  0  0  0  0  0  0999 V2000
   15.7442   -8.3828   17.4718 N   0  0  0  0  0  0  0  0  0  0  0  0
   16.7555   -9.3100   17.5364 C   0  0  0  0  0  0  0  0  0  0  0  0
   17.3131   -9.8299   16.4052 N   0  0  0  0  0  0  0  0  0  0  0  0
   16.8652   -9.4261   15.1932 C   0  0  0  0  0  0  0  0  0  0  0  0
   17.3581   -9.8803   13.9681 C   0  0  0  0  0  0  0  0  0  0  0  0
   16.6981   -9.2697   12.8953 C   0  0  0  0  0  0  0  0  0  0  0  0
   15.5284   -8.1863   13.4817 S   0  0  0  0  0  0  0  0  0  0  0  0
   15.8570   -8.4955   15.0976 C   0  0  0  0  0  0  0  0  0  0  0  0
   15.2855   -7.9577   16.2441 C   0  0  0  0  0  0  0  0  0  0  0  0
   14.3802   -7.0847   16.1452 O   0  0  0  0  0  0  0  0  0  0  0  0
   16.9805   -9.5246   11.4715 C   0  0  0  0  0  0  0  0  0  0  0  0
   18.2484   -9.2470   10.9385 C   0  0  0  0  0  0  0  0  0  0  0  0
   18.5158   -9.4890    9.5880 C   0  0  0  0  0  0  0  0  0  0  0  0
   17.5169  -10.0087    8.7598 C   0  0  0  0  0  0  0  0  0  0  0  0
   17.7772  -10.2437    7.4514 F   0  0  0  0  0  0  0  0  0  0  0  0
   16.2512  -10.2879    9.2822 C   0  0  0  0  0  0  0  0  0  0  0  0
   15.9846  -10.0473   10.6330 C   0  0  0  0  0  0  0  0  0  0  0  0
   13.2497   -7.2277   20.0508 C   0  0  0  0  0  0  0  0  0  0  0  0
   13.8077   -7.6796   18.8437 C   0  0  0  0  0  0  0  0  0  0  0  0
   15.1870   -7.8921   18.7102 C   0  0  0  0  0  0  0  0  0  0  0  0
   16.0131   -7.6626   19.8189 C   0  0  0  0  0  0  0  0  0  0  0  0
   15.4744   -7.2037   21.0213 C   0  0  0  0  0  0  0  0  0  0  0  0
   14.1016   -6.9706   21.1519 C   0  0  0  0  0  0  0  0  0  0  0  0
   11.1724   -5.9622   19.5736 C   0  0  0  0  0  0  0  0  0  0  0  0
   11.8659   -7.0538   20.1640 O   0  0  0  0  0  0  0  0  0  0  0  0
   13.6469   -6.5001   22.3942 O   0  0  0  0  0  0  0  0  0  0  0  0
   13.4258   -5.1324   22.7226 C   0  0  0  0  0  0  0  0  0  0  0  0
   14.3604   -4.6913   23.8403 C   0  0  0  0  0  0  0  0  0  0  0  0
   15.0676   -5.8388   24.3863 N   0  0  0  0  0  0  0  0  0  0  0  0
   14.7554   -5.8875   25.8093 C   0  0  0  0  0  0  0  0  0  0  0  0
   16.0523   -6.0464   26.5632 C   0  0  0  0  0  0  0  0  0  0  0  0
   17.0685   -5.4003   25.6683 C   0  0  0  0  0  0  0  0  0  0  0  0
   16.4966   -5.5562   24.2761 C   0  0  0  0  0  0  0  0  0  0  0  0
 24 25  1  0  0  0
 25 18  1  0  0  0
 18 19  2  0  0  0
 19 20  1  0  0  0
 20  1  1  0  0  0
 20 21  2  0  0  0
  1  2  1  0  0  0
  2  3  2  0  0  0
  3  4  1  0  0  0
  4  5  1  0  0  0
  5  6  2  0  0  0
  6 11  1  0  0  0
  6  7  1  0  0  0
 11 12  2  0  0  0
 12 13  1  0  0  0
 13 14  2  0  0  0
 14 15  1  0  0  0
 14 16  1  0  0  0
 16 17  2  0  0  0
 17 11  1  0  0  0
  7  8  1  0  0  0
  8  9  1  0  0  0
  8  4  2  0  0  0
  9 10  2  0  0  0
  9  1  1  0  0  0
 21 22  1  0  0  0
 22 23  2  0  0  0
 23 26  1  0  0  0
 23 18  1  0  0  0
 26 27  1  0  0  0
 27 28  1  0  0  0
 28 29  1  0  0  0
 29 30  1  0  0  0
 30 31  1  0  0  0
 31 32  1  0  0  0
 32 33  1  0  0  0
 33 29  1  0  0  0
M  END
>  <minimizedAffinity>
-5.50136

>  <minimizedRMSD>
1.84500

$$$$
CHEMBL4177197 CHEMBL4301418 PubChem-145947212 PubChem-145971756


 37 39  0  0  0  0  0  0  0  0999 V2000
   14.9673   -8.1771   17.2645 C   0  0  0  0  0  0  0  0  0  0  0  0
   15.6430   -7.1548   16.9708 O   0  0  0  0  0  0  0  0  0  0  0  0
   13.8791   -8.0950   18.1893 N   0  0  0  0  0  0  0  0  0  0  0  0
   13.2175   -8.8239   18.1791 H   0  0  0  0  0  0  0  0  0  0  0  0
   13.6789   -7.0318   19.1300 C   0  0  0  0  0  0  0  0  0  0  0  0
   14.2212   -7.0625   20.4411 C   0  0  0  0  0  0  0  0  0  0  0  0
   13.9529   -5.9791   21.2621 C   0  0  0  0  0  0  0  0  0  0  0  0
   14.3600   -5.8842   22.5610 C   0  0  0  0  0  0  0  0  0  0  0  0
   13.7886   -4.6321   23.0521 C   0  0  0  0  0  0  0  0  0  0  0  0
   13.8924   -4.1793   24.2238 O   0  0  0  0  0  0  0  0  0  0  0  0
   13.0530   -3.9957   21.9939 N   0  0  0  0  0  0  0  0  0  0  0  0
   13.1797   -4.9124   20.9009 C   0  0  0  0  0  0  0  0  0  0  0  0
   12.5903   -4.8679   19.6371 C   0  0  0  0  0  0  0  0  0  0  0  0
   12.8500   -5.9415   18.7527 C   0  0  0  0  0  0  0  0  0  0  0  0
   15.0894   -6.9125   23.1572 C   0  0  0  0  0  0  0  0  0  0  0  0
   15.3942   -8.0403   22.3589 C   0  0  0  0  0  0  0  0  0  0  0  0
   14.9583   -8.1209   21.0105 C   0  0  0  0  0  0  0  0  0  0  0  0
   12.0668   -2.9316   22.1351 C   0  0  0  0  0  0  0  0  0  0  0  0
   10.6603   -3.5050   22.2179 C   0  0  0  0  0  0  0  0  0  0  0  0
   10.4039   -4.0865   23.5955 C   0  0  0  0  0  0  0  0  0  0  0  0
   10.4118   -5.6003   23.5189 C   0  0  0  0  0  0  0  0  0  0  0  0
   15.2604   -9.4695   16.5869 C   0  0  0  0  0  0  0  0  0  0  0  0
   16.6902   -9.6003   16.3688 N   0  0  0  0  0  0  0  0  0  0  0  0
   17.0786  -10.3062   16.9944 H   0  0  0  0  0  0  0  0  0  0  0  0
   16.8628  -10.0068   14.9858 C   0  0  0  0  0  0  0  0  0  0  0  0
   16.4884   -8.8612   14.0628 C   0  0  0  0  0  0  0  0  0  0  0  0
   16.1128   -9.3989   12.6895 C   0  0  0  0  0  0  0  0  0  0  0  0
   17.3421   -9.8861   11.9391 C   0  0  0  0  0  0  0  0  0  0  0  0
   17.2963   -9.4204   10.5633 N   0  0  0  0  0  0  0  0  0  0  0  0
   16.7408   -8.5673   10.4989 H   0  0  0  0  0  0  0  0  0  0  0  0
   18.6682   -9.1557   10.1686 C   0  0  0  0  0  0  0  0  0  0  0  0
   18.7141   -7.9993    9.1853 C   0  0  0  0  0  0  0  0  0  0  0  0
   18.0197   -8.3852    7.8952 C   0  0  0  0  0  0  0  0  0  0  0  0
   18.7433   -7.7553    6.7233 C   0  0  0  0  0  0  0  0  0  0  0  0
   18.3853   -8.4544    5.5020 N   0  0  0  0  0  0  0  0  0  0  0  0
   18.6539   -9.4353    5.5806 H   0  0  0  0  0  0  0  0  0  0  0  0
   18.8726   -8.0307    4.7124 H   0  0  0  0  0  0  0  0  0  0  0  0
  1  2  2  0  0  0
  1 22  1  0  0  0
 22 23  1  0  0  0
 23 25  1  0  0  0
 25 26  1  0  0  0
 26 27  1  0  0  0
 27 28  1  0  0  0
 28 29  1  0  0  0
 29 31  1  0  0  0
 31 32  1  0  0  0
 32 33  1  0  0  0
 33 34  1  0  0  0
 34 35  1  0  0  0
  1  3  1  0  0  0
  3  5  1  0  0  0
  5  6  2  0  0  0
  6  7  1  0  0  0
  7  8  1  0  0  0
  8  9  1  0  0  0
  9 10  2  0  0  0
  9 11  1  0  0  0
 11 12  1  0  0  0
 12 13  1  0  0  0
 13 14  2  0  0  0
 11 18  1  0  0  0
 18 19  1  0  0  0
 19 20  1  0  0  0
 20 21  1  0  0  0
  8 15  2  0  0  0
 15 16  1  0  0  0
 16 17  2  0  0  0
 14  5  1  0  0  0
 17  6  1  0  0  0
 12  7  2  0  0  0
 23 24  1  0  0  0
 29 30  1  0  0  0
 35 36  1  0  0  0
 35 37  1  0  0  0
  3  4  1  0  0  0
M  END
>  <minimizedAffinity>
-5.48932

>  <minimizedRMSD>
1.85070

$$$$
CHEMBL5190786


 37 40  0  0  0  0  0  0  0  0999 V2000
   15.9405   -8.7097   17.3458 N   0  0  0  0  0  0  0  0  0  0  0  0
   15.7111   -8.1716   16.0267 C   0  0  0  0  0  0  0  0  0  0  0  0
   15.1531   -7.0489   15.8816 O   0  0  0  0  0  0  0  0  0  0  0  0
   16.8772   -9.8195   17.4937 C   0  0  0  0  0  0  0  0  0  0  0  0
   14.0307   -7.2078   20.8500 C   0  0  0  0  0  0  0  0  0  0  0  0
   15.4245   -7.2857   20.7814 C   0  0  0  0  0  0  0  0  0  0  0  0
   16.0478   -7.7744   19.6312 C   0  0  0  0  0  0  0  0  0  0  0  0
   15.2885   -8.1853   18.5236 C   0  0  0  0  0  0  0  0  0  0  0  0
   13.8885   -8.1066   18.6018 C   0  0  0  0  0  0  0  0  0  0  0  0
   13.2571   -7.6182   19.7490 C   0  0  0  0  0  0  0  0  0  0  0  0
   11.7672   -7.5552   19.7739 C   0  0  0  0  0  0  0  0  0  0  0  0
   13.4003   -6.6557   22.0877 C   0  0  0  0  0  0  0  0  0  0  0  0
   15.8402   -6.9701   24.8870 C   0  0  0  0  0  0  0  0  0  0  0  0
   16.0552   -5.5236   24.9313 N   0  0  0  0  0  0  0  0  0  0  0  0
   14.7603   -4.8493   25.0537 C   0  0  0  0  0  0  0  0  0  0  0  0
   13.7724   -5.3131   23.9720 C   0  0  0  0  0  0  0  0  0  0  0  0
   14.4296   -6.1859   22.9994 N   0  0  0  0  0  0  0  0  0  0  0  0
   14.9510   -7.3636   23.6968 C   0  0  0  0  0  0  0  0  0  0  0  0
   14.9611   -3.3521   24.9450 C   0  0  0  0  0  0  0  0  0  0  0  0
   16.5182   -5.2209   24.0744 H   0  0  0  0  0  0  0  0  0  0  0  0
   16.1575   -8.9249   14.8099 C   0  0  0  0  0  0  0  0  0  0  0  0
   15.5596   -8.3071   13.5458 C   0  0  0  0  0  0  0  0  0  0  0  0
   16.0146   -9.0846   12.3140 C   0  0  0  0  0  0  0  0  0  0  0  0
   17.5386   -9.0912   12.2288 C   0  0  0  0  0  0  0  0  0  0  0  0
   18.1270   -9.7285   13.4886 C   0  0  0  0  0  0  0  0  0  0  0  0
   17.6836   -8.9546   14.7262 C   0  0  0  0  0  0  0  0  0  0  0  0
   17.9435   -9.8232   11.0775 O   0  0  0  0  0  0  0  0  0  0  0  0
   18.4000   -9.2136    9.9038 C   0  0  0  0  0  0  0  0  0  0  0  0
   19.5156   -8.3608    9.9017 C   0  0  0  0  0  0  0  0  0  0  0  0
   19.9472   -7.7682    8.7123 C   0  0  0  0  0  0  0  0  0  0  0  0
   19.2678   -8.0193    7.5171 C   0  0  0  0  0  0  0  0  0  0  0  0
   18.1466   -8.8624    7.5138 C   0  0  0  0  0  0  0  0  0  0  0  0
   17.7223   -9.4601    8.7055 C   0  0  0  0  0  0  0  0  0  0  0  0
   19.7011   -7.4404    6.3696 F   0  0  0  0  0  0  0  0  0  0  0  0
   17.4212   -9.1606    6.2465 C   0  0  0  0  0  0  0  0  0  0  0  0
   18.1146   -8.6136    5.1670 O   0  0  0  0  0  0  0  0  0  0  0  0
   18.1809   -7.6523    5.2789 H   0  0  0  0  0  0  0  0  0  0  0  0
 13 14  1  0  0  0
 14 15  1  0  0  0
 15 16  1  0  0  0
 16 17  1  0  0  0
 17 18  1  0  0  0
 17 12  1  0  0  0
 12  5  1  0  0  0
  5  6  2  0  0  0
  6  7  1  0  0  0
  7  8  2  0  0  0
  8  9  1  0  0  0
  9 10  2  0  0  0
 10 11  1  0  0  0
  8  1  1  0  0  0
  1  2  1  0  0  0
  2  3  2  0  0  0
 21  2  1  0  0  0
 21 22  1  0  0  0
 22 23  1  0  0  0
 23 24  1  0  0  0
 24 25  1  0  0  0
 25 26  1  0  0  0
 24 27  1  0  0  0
 27 28  1  0  0  0
 28 29  2  0  0  0
 29 30  1  0  0  0
 30 31  2  0  0  0
 31 32  1  0  0  0
 32 33  2  0  0  0
 32 35  1  0  0  0
 35 36  1  0  0  0
 31 34  1  0  0  0
  1  4  1  0  0  0
 15 19  1  0  0  0
 18 13  1  0  0  0
 10  5  1  0  0  0
 26 21  1  0  0  0
 33 28  1  0  0  0
 14 20  1  0  0  0
 36 37  1  0  0  0
M  END
>  <minimizedAffinity>
-5.48649

>  <minimizedRMSD>
1.84786

$$$$
CHEMBL395320 PubChem-44428235


 38 42  0  0  0  0  0  0  0  0999 V2000
   15.5199   -7.7389   18.2490 C   0  0  0  0  0  0  0  0  0  0  0  0
   16.3423   -7.4568   19.3552 C   0  0  0  0  0  0  0  0  0  0  0  0
   17.6790   -7.6789   19.3025 F   0  0  0  0  0  0  0  0  0  0  0  0
   15.7994   -6.9097   20.5172 C   0  0  0  0  0  0  0  0  0  0  0  0
   14.4310   -6.6296   20.6056 C   0  0  0  0  0  0  0  0  0  0  0  0
   13.8880   -6.0539   21.7638 C   0  0  0  0  0  0  0  0  0  0  0  0
   14.6329   -5.8127   22.7540 O   0  0  0  0  0  0  0  0  0  0  0  0
   12.5165   -5.7406   21.8061 C   0  0  0  0  0  0  0  0  0  0  0  0
   11.7316   -6.0197   20.6817 C   0  0  0  0  0  0  0  0  0  0  0  0
   12.2481   -6.6163   19.5678 N   0  0  0  0  0  0  0  0  0  0  0  0
   13.5888   -6.9102   19.5067 C   0  0  0  0  0  0  0  0  0  0  0  0
   14.1363   -7.4839   18.3419 C   0  0  0  0  0  0  0  0  0  0  0  0
   13.2843   -7.8129   17.2864 O   0  0  0  0  0  0  0  0  0  0  0  0
   11.8819   -7.9221   17.4896 C   0  0  0  0  0  0  0  0  0  0  0  0
   11.3840   -6.7866   18.3791 C   0  0  0  0  0  0  0  0  0  0  0  0
    9.9358   -7.0815   18.7509 C   0  0  0  0  0  0  0  0  0  0  0  0
   16.0559   -9.7441   14.6079 N   0  0  0  0  0  0  0  0  0  0  0  0
   15.4741   -8.3961   14.6960 C   0  0  0  0  0  0  0  0  0  0  0  0
   16.1185   -7.5544   15.8010 C   0  0  0  0  0  0  0  0  0  0  0  0
   16.0840   -8.3018   17.0506 N   0  0  0  0  0  0  0  0  0  0  0  0
   16.6366   -9.6492   17.0349 C   0  0  0  0  0  0  0  0  0  0  0  0
   15.9849  -10.4450   15.9003 C   0  0  0  0  0  0  0  0  0  0  0  0
   17.4414   -9.6587   14.1515 C   0  0  0  0  0  0  0  0  0  0  0  0
   17.6548  -10.5674   12.9756 C   0  0  0  0  0  0  0  0  0  0  0  0
   17.9241  -11.8233   13.1660 N   0  0  0  0  0  0  0  0  0  0  0  0
   18.0413  -12.3586   14.4289 O   0  0  0  0  0  0  0  0  0  0  0  0
   18.2364  -13.2688   14.5357 H   0  0  0  0  0  0  0  0  0  0  0  0
   17.1666   -8.5250    7.5956 C   0  0  0  0  0  0  0  0  0  0  0  0
   17.2926   -9.0506    8.9798 C   0  0  0  0  0  0  0  0  0  0  0  0
   18.4782   -8.8606    9.6939 C   0  0  0  0  0  0  0  0  0  0  0  0
   18.5967   -9.3549   10.9959 C   0  0  0  0  0  0  0  0  0  0  0  0
   17.5308  -10.0433   11.5973 C   0  0  0  0  0  0  0  0  0  0  0  0
   16.3442  -10.2290   10.8695 C   0  0  0  0  0  0  0  0  0  0  0  0
   16.2256   -9.7348    9.5672 C   0  0  0  0  0  0  0  0  0  0  0  0
   11.8740   -5.1137   22.9855 C   0  0  0  0  0  0  0  0  0  0  0  0
   10.7951   -4.4762   22.8531 O   0  0  0  0  0  0  0  0  0  0  0  0
   12.4410   -5.2146   24.2506 O   0  0  0  0  0  0  0  0  0  0  0  0
   13.2429   -5.6847   24.3685 H   0  0  0  0  0  0  0  0  0  0  0  0
 28 29  1  0  0  0
 29 30  2  0  0  0
 30 31  1  0  0  0
 31 32  2  0  0  0
 32 24  1  0  0  0
 32 33  1  0  0  0
 24 23  1  0  0  0
 24 25  2  0  0  0
 23 17  1  0  0  0
 17 18  1  0  0  0
 18 19  1  0  0  0
 19 20  1  0  0  0
 20  1  1  0  0  0
 20 21  1  0  0  0
  1  2  2  0  0  0
  2  3  1  0  0  0
  2  4  1  0  0  0
  4  5  2  0  0  0
  5  6  1  0  0  0
  6  7  2  0  0  0
  6  8  1  0  0  0
  8 35  1  0  0  0
  8  9  2  0  0  0
 35 36  2  0  0  0
 35 37  1  0  0  0
  9 10  1  0  0  0
 10 11  1  0  0  0
 11 12  2  0  0  0
 11  5  1  0  0  0
 12 13  1  0  0  0
 12  1  1  0  0  0
 13 14  1  0  0  0
 14 15  1  0  0  0
 15 16  1  0  0  0
 15 10  1  0  0  0
 21 22  1  0  0  0
 22 17  1  0  0  0
 25 26  1  0  0  0
 33 34  2  0  0  0
 34 29  1  0  0  0
 37 38  1  0  0  0
 26 27  1  0  0  0
M  END
>  <minimizedAffinity>
-5.47203

>  <minimizedRMSD>
1.80008

$$$$
CHEMBL2409597 PubChem-73350669


 35 37  0  0  0  0  0  0  0  0999 V2000
   16.7554   -8.9494   16.8559 C   0  0  0  0  0  0  0  0  0  0  0  0
   18.0799   -9.0982   16.6019 N   0  0  0  0  0  0  0  0  0  0  0  0
   18.5059   -9.3880   15.3473 C   0  0  0  0  0  0  0  0  0  0  0  0
   20.2153   -9.5792   15.0249 Cl  0  0  0  0  0  0  0  0  0  0  0  0
   17.6070   -9.5298   14.3421 N   0  0  0  0  0  0  0  0  0  0  0  0
   16.2789   -9.3825   14.5867 C   0  0  0  0  0  0  0  0  0  0  0  0
   15.8591   -9.0926   15.8442 N   0  0  0  0  0  0  0  0  0  0  0  0
   16.3298   -8.6429   18.1906 N   0  0  0  0  0  0  0  0  0  0  0  0
   16.9026   -8.9762   18.9187 H   0  0  0  0  0  0  0  0  0  0  0  0
   12.8984   -7.1081   18.1811 C   0  0  0  0  0  0  0  0  0  0  0  0
   14.0253   -7.8300   17.7822 C   0  0  0  0  0  0  0  0  0  0  0  0
   15.1641   -7.9057   18.5852 C   0  0  0  0  0  0  0  0  0  0  0  0
   15.1726   -7.2457   19.8097 C   0  0  0  0  0  0  0  0  0  0  0  0
   14.0622   -6.5092   20.2491 C   0  0  0  0  0  0  0  0  0  0  0  0
   12.9031   -6.4325   19.4310 C   0  0  0  0  0  0  0  0  0  0  0  0
   10.5677   -7.7507   17.5119 C   0  0  0  0  0  0  0  0  0  0  0  0
   11.8124   -7.1032   17.2912 O   0  0  0  0  0  0  0  0  0  0  0  0
   14.1080   -5.8584   21.4879 O   0  0  0  0  0  0  0  0  0  0  0  0
   15.1371   -6.0785   22.4439 C   0  0  0  0  0  0  0  0  0  0  0  0
   11.7588   -5.7113   19.8141 O   0  0  0  0  0  0  0  0  0  0  0  0
   11.3511   -4.4617   19.2754 C   0  0  0  0  0  0  0  0  0  0  0  0
   15.3075   -9.5272   13.5419 N   0  0  0  0  0  0  0  0  0  0  0  0
   14.3632   -9.5234   13.8204 H   0  0  0  0  0  0  0  0  0  0  0  0
   15.5556   -9.6769   12.1369 C   0  0  0  0  0  0  0  0  0  0  0  0
   14.5580  -10.2418   11.3354 C   0  0  0  0  0  0  0  0  0  0  0  0
   14.7607  -10.4044    9.9624 C   0  0  0  0  0  0  0  0  0  0  0  0
   15.9658  -10.0018    9.3822 C   0  0  0  0  0  0  0  0  0  0  0  0
   16.9743   -9.4341   10.1732 C   0  0  0  0  0  0  0  0  0  0  0  0
   16.7631   -9.2749   11.5460 C   0  0  0  0  0  0  0  0  0  0  0  0
   18.2179   -9.0122    9.6069 N   0  0  0  0  0  0  0  0  0  0  0  0
   19.0276   -9.0787   10.1629 H   0  0  0  0  0  0  0  0  0  0  0  0
   18.3805   -8.3906    7.9974 S   0  0  0  0  0  0  0  0  0  0  0  0
   16.9116   -7.4992    7.5412 C   0  0  0  0  0  0  0  0  0  0  0  0
   18.6151   -9.5224    7.0372 O   0  0  0  0  0  0  0  0  0  0  0  0
   19.5544   -7.4547    7.9496 O   0  0  0  0  0  0  0  0  0  0  0  0
 16 17  1  0  0  0
 17 10  1  0  0  0
 10 11  2  0  0  0
 11 12  1  0  0  0
 12  8  1  0  0  0
 12 13  2  0  0  0
  8  1  1  0  0  0
  1  2  2  0  0  0
  2  3  1  0  0  0
  3  4  1  0  0  0
  3  5  2  0  0  0
  5  6  1  0  0  0
  6 22  1  0  0  0
  6  7  2  0  0  0
 22 24  1  0  0  0
 24 25  2  0  0  0
 25 26  1  0  0  0
 26 27  2  0  0  0
 27 28  1  0  0  0
 28 30  1  0  0  0
 28 29  2  0  0  0
 30 32  1  0  0  0
 32 33  1  0  0  0
 32 34  2  0  0  0
 32 35  2  0  0  0
 29 24  1  0  0  0
  7  1  1  0  0  0
 13 14  1  0  0  0
 14 18  1  0  0  0
 14 15  2  0  0  0
 18 19  1  0  0  0
 15 20  1  0  0  0
 15 10  1  0  0  0
 20 21  1  0  0  0
  8  9  1  0  0  0
 22 23  1  0  0  0
 30 31  1  0  0  0
M  END
>  <minimizedAffinity>
-5.47092

>  <minimizedRMSD>
1.84906

$$$$
CHEMBL4520078 PubChem-135335342


 30 33  0  0  0  0  0  0  0  0999 V2000
   16.9521   -9.6812   14.0530 C   0  0  0  0  0  0  0  0  0  0  0  0
   15.8432   -8.9641   14.5512 C   0  0  0  0  0  0  0  0  0  0  0  0
   15.8118   -8.6707   15.9114 C   0  0  0  0  0  0  0  0  0  0  0  0
   14.8378   -7.9999   16.5495 N   0  0  0  0  0  0  0  0  0  0  0  0
   15.2699   -7.9789   17.8360 C   0  0  0  0  0  0  0  0  0  0  0  0
   16.4944   -8.6346   17.9586 C   0  0  0  0  0  0  0  0  0  0  0  0
   16.8035   -9.0567   16.7252 N   0  0  0  0  0  0  0  0  0  0  0  0
   17.8910   -9.7462   16.3060 C   0  0  0  0  0  0  0  0  0  0  0  0
   17.9793  -10.0713   14.9453 C   0  0  0  0  0  0  0  0  0  0  0  0
   19.7548  -10.4583   10.0932 C   0  0  0  0  0  0  0  0  0  0  0  0
   18.6990   -9.6984   10.8752 C   0  0  0  0  0  0  0  0  0  0  0  0
   18.2880  -10.5290   12.0912 C   0  0  0  0  0  0  0  0  0  0  0  0
   17.0372  -10.0122   12.6533 N   0  0  0  0  0  0  0  0  0  0  0  0
   15.8853   -9.7893   11.7683 C   0  0  0  0  0  0  0  0  0  0  0  0
   16.2526  -10.0275   10.3045 C   0  0  0  0  0  0  0  0  0  0  0  0
   17.5422   -9.3988   10.0170 N   0  0  0  0  0  0  0  0  0  0  0  0
   17.6243   -8.4038    8.9815 C   0  0  0  0  0  0  0  0  0  0  0  0
   16.6324   -8.1799    8.2375 O   0  0  0  0  0  0  0  0  0  0  0  0
   18.8702   -7.6111    8.7693 C   0  0  0  0  0  0  0  0  0  0  0  0
   14.5332   -7.3425   18.9540 C   0  0  0  0  0  0  0  0  0  0  0  0
   15.1907   -7.1690   20.1810 C   0  0  0  0  0  0  0  0  0  0  0  0
   14.5473   -6.5763   21.2682 C   0  0  0  0  0  0  0  0  0  0  0  0
   13.2220   -6.1419   21.1474 C   0  0  0  0  0  0  0  0  0  0  0  0
   12.5564   -6.3107   19.9253 C   0  0  0  0  0  0  0  0  0  0  0  0
   13.1951   -6.9061   18.8252 C   0  0  0  0  0  0  0  0  0  0  0  0
   15.4234   -6.3874   22.7764 Cl  0  0  0  0  0  0  0  0  0  0  0  0
   12.5128   -7.0658   17.6129 O   0  0  0  0  0  0  0  0  0  0  0  0
   11.1268   -7.3725   17.5398 C   0  0  0  0  0  0  0  0  0  0  0  0
   12.5862   -5.5488   22.2437 O   0  0  0  0  0  0  0  0  0  0  0  0
   11.4247   -4.7400   22.1146 C   0  0  0  0  0  0  0  0  0  0  0  0
 10 11  1  0  0  0
 11 12  1  0  0  0
 12 13  1  0  0  0
 13 14  1  0  0  0
 14 15  1  0  0  0
 15 16  1  0  0  0
 16 17  1  0  0  0
 17 18  2  0  0  0
 17 19  1  0  0  0
 13  1  1  0  0  0
  1  2  2  0  0  0
  2  3  1  0  0  0
  3  4  2  0  0  0
  4  5  1  0  0  0
  5  6  2  0  0  0
  6  7  1  0  0  0
  7  8  1  0  0  0
  8  9  2  0  0  0
  5 20  1  0  0  0
 20 21  2  0  0  0
 21 22  1  0  0  0
 22 23  2  0  0  0
 23 24  1  0  0  0
 24 25  2  0  0  0
 25 27  1  0  0  0
 27 28  1  0  0  0
 23 29  1  0  0  0
 29 30  1  0  0  0
 22 26  1  0  0  0
 16 11  1  0  0  0
  9  1  1  0  0  0
  7  3  1  0  0  0
 25 20  1  0  0  0
M  END
>  <minimizedAffinity>
-5.46796

>  <minimizedRMSD>
1.87371

$$$$
CHEMBL3318205 PubChem-73670363


 29 31  0  0  0  0  0  0  0  0999 V2000
   16.3281   -8.7631   15.2719 C   0  0  0  0  0  0  0  0  0  0  0  0
   15.6333   -7.9817   16.1244 N   0  0  0  0  0  0  0  0  0  0  0  0
   15.5957   -8.5042   17.3828 C   0  0  0  0  0  0  0  0  0  0  0  0
   16.2579   -9.7257   17.5498 C   0  0  0  0  0  0  0  0  0  0  0  0
   16.9024  -10.1372   16.0494 S   0  0  0  0  0  0  0  0  0  0  0  0
   14.8953   -7.8159   18.4844 C   0  0  0  0  0  0  0  0  0  0  0  0
   13.6481   -7.2268   18.2636 C   0  0  0  0  0  0  0  0  0  0  0  0
   12.9615   -6.5658   19.2945 C   0  0  0  0  0  0  0  0  0  0  0  0
   13.5463   -6.4946   20.5846 C   0  0  0  0  0  0  0  0  0  0  0  0
   14.8008   -7.0876   20.8068 C   0  0  0  0  0  0  0  0  0  0  0  0
   15.4638   -7.7418   19.7589 C   0  0  0  0  0  0  0  0  0  0  0  0
   15.3716   -7.0136   22.0826 O   0  0  0  0  0  0  0  0  0  0  0  0
   16.6588   -6.4600   22.3201 C   0  0  0  0  0  0  0  0  0  0  0  0
   12.9340   -5.8541   21.6753 O   0  0  0  0  0  0  0  0  0  0  0  0
   13.0240   -4.4661   21.9625 C   0  0  0  0  0  0  0  0  0  0  0  0
   11.7123   -5.9863   19.0432 O   0  0  0  0  0  0  0  0  0  0  0  0
   11.5580   -4.6781   18.5085 C   0  0  0  0  0  0  0  0  0  0  0  0
   15.9689   -7.1983   13.3675 C   0  0  0  0  0  0  0  0  0  0  0  0
   16.4890   -8.4609   13.8758 N   0  0  0  0  0  0  0  0  0  0  0  0
   17.2570   -9.3100   13.0040 C   0  0  0  0  0  0  0  0  0  0  0  0
   18.3310   -9.8200   13.4263 O   0  0  0  0  0  0  0  0  0  0  0  0
   16.8197   -9.5962   11.6194 C   0  0  0  0  0  0  0  0  0  0  0  0
   17.6762   -9.3227   10.5426 C   0  0  0  0  0  0  0  0  0  0  0  0
   17.2855   -9.6068    9.2239 C   0  0  0  0  0  0  0  0  0  0  0  0
   16.0301  -10.1741    8.9877 C   0  0  0  0  0  0  0  0  0  0  0  0
   15.1730  -10.4581   10.0535 C   0  0  0  0  0  0  0  0  0  0  0  0
   15.5676  -10.1728   11.3629 C   0  0  0  0  0  0  0  0  0  0  0  0
   18.1221   -9.3375    8.1374 O   0  0  0  0  0  0  0  0  0  0  0  0
   17.9447   -8.2079    7.2937 C   0  0  0  0  0  0  0  0  0  0  0  0
 18 19  1  0  0  0
 19  1  1  0  0  0
 19 20  1  0  0  0
  1  2  2  0  0  0
  2  3  1  0  0  0
  3  4  2  0  0  0
  3  6  1  0  0  0
  4  5  1  0  0  0
  5  1  1  0  0  0
  6  7  2  0  0  0
  7  8  1  0  0  0
  8  9  2  0  0  0
  8 16  1  0  0  0
  9 10  1  0  0  0
  9 14  1  0  0  0
 10 11  2  0  0  0
 10 12  1  0  0  0
 11  6  1  0  0  0
 12 13  1  0  0  0
 14 15  1  0  0  0
 16 17  1  0  0  0
 20 21  2  0  0  0
 20 22  1  0  0  0
 22 23  2  0  0  0
 23 24  1  0  0  0
 24 25  2  0  0  0
 24 28  1  0  0  0
 25 26  1  0  0  0
 26 27  2  0  0  0
 27 22  1  0  0  0
 28 29  1  0  0  0
M  END
>  <minimizedAffinity>
-5.46418

>  <minimizedRMSD>
1.40647

$$$$
CHEMBL4441711 MCULE-5123532209 MolPort-002-907-845 PubChem-2821844 ZINC000001039251 ZINC01039251


 31 34  0  0  0  0  0  0  0  0999 V2000
   16.3906  -10.0222   18.2131 C   0  0  0  0  0  0  0  0  0  0  0  0
   15.7254   -8.8926   17.5830 N   0  0  0  0  0  0  0  0  0  0  0  0
   14.6292   -8.2345   17.9967 C   0  0  0  0  0  0  0  0  0  0  0  0
   14.3185   -7.2250   17.1600 N   0  0  0  0  0  0  0  0  0  0  0  0
   15.2192   -7.2396   16.1861 N   0  0  0  0  0  0  0  0  0  0  0  0
   16.0653   -8.2534   16.4516 C   0  0  0  0  0  0  0  0  0  0  0  0
   13.8851   -8.5252   19.2586 C   0  0  0  0  0  0  0  0  0  0  0  0
   14.0845   -7.4170   20.2445 C   0  0  0  0  0  0  0  0  0  0  0  0
   15.2483   -7.3613   20.9431 N   0  0  0  0  0  0  0  0  0  0  0  0
   15.5081   -6.3902   21.8211 N   0  0  0  0  0  0  0  0  0  0  0  0
   16.7824   -6.4187   22.5225 C   0  0  0  0  0  0  0  0  0  0  0  0
   14.6066   -5.3910   22.0564 C   0  0  0  0  0  0  0  0  0  0  0  0
   14.8685   -4.4786   22.8901 O   0  0  0  0  0  0  0  0  0  0  0  0
   13.3881   -5.3860   21.3637 C   0  0  0  0  0  0  0  0  0  0  0  0
   12.4358   -4.3767   21.5719 C   0  0  0  0  0  0  0  0  0  0  0  0
   11.2287   -4.3904   20.8686 C   0  0  0  0  0  0  0  0  0  0  0  0
   10.9635   -5.4113   19.9531 C   0  0  0  0  0  0  0  0  0  0  0  0
   11.9045   -6.4212   19.7384 C   0  0  0  0  0  0  0  0  0  0  0  0
   13.1208   -6.4172   20.4388 C   0  0  0  0  0  0  0  0  0  0  0  0
   17.4669   -8.6748   15.4210 S   0  0  0  0  0  0  0  0  0  0  0  0
   16.4178   -8.8476   13.9466 C   0  0  0  0  0  0  0  0  0  0  0  0
   16.9462   -9.9239   13.0581 C   0  0  0  0  0  0  0  0  0  0  0  0
   17.2451  -11.0323   13.5801 O   0  0  0  0  0  0  0  0  0  0  0  0
   17.0536   -9.7596   11.5862 C   0  0  0  0  0  0  0  0  0  0  0  0
   15.9672   -9.9151   10.6847 C   0  0  0  0  0  0  0  0  0  0  0  0
   14.3144  -10.2388   11.1892 Cl  0  0  0  0  0  0  0  0  0  0  0  0
   16.1764   -9.7524    9.3108 C   0  0  0  0  0  0  0  0  0  0  0  0
   17.4412   -9.4381    8.8145 C   0  0  0  0  0  0  0  0  0  0  0  0
   17.6818   -9.2409    7.0924 Cl  0  0  0  0  0  0  0  0  0  0  0  0
   18.5101   -9.2693    9.6920 C   0  0  0  0  0  0  0  0  0  0  0  0
   18.3151   -9.4275   11.0645 C   0  0  0  0  0  0  0  0  0  0  0  0
  1  2  1  0  0  0
  2  3  1  0  0  0
  3  7  1  0  0  0
  3  4  2  0  0  0
  7  8  1  0  0  0
  8  9  2  0  0  0
  9 10  1  0  0  0
 10 11  1  0  0  0
 10 12  1  0  0  0
 12 13  2  0  0  0
 12 14  1  0  0  0
 14 15  2  0  0  0
 15 16  1  0  0  0
 16 17  2  0  0  0
 17 18  1  0  0  0
 18 19  2  0  0  0
 19  8  1  0  0  0
 19 14  1  0  0  0
  4  5  1  0  0  0
  5  6  2  0  0  0
  6 20  1  0  0  0
  6  2  1  0  0  0
 20 21  1  0  0  0
 21 22  1  0  0  0
 22 23  2  0  0  0
 22 24  1  0  0  0
 24 25  2  0  0  0
 25 26  1  0  0  0
 25 27  1  0  0  0
 27 28  2  0  0  0
 28 29  1  0  0  0
 28 30  1  0  0  0
 30 31  2  0  0  0
 31 24  1  0  0  0
M  END
>  <minimizedAffinity>
-5.46334

>  <minimizedRMSD>
1.78797

$$$$
CHEMBL1860608 PubChem-56669146


 30 33  0  0  0  0  0  0  0  0999 V2000
   15.1875   -8.1274   18.3133 C   0  0  0  0  0  0  0  0  0  0  0  0
   15.0042   -8.5840   17.0583 N   0  0  0  0  0  0  0  0  0  0  0  0
   16.1862   -9.1637   16.7833 C   0  0  0  0  0  0  0  0  0  0  0  0
   17.0521   -9.0400   17.8486 C   0  0  0  0  0  0  0  0  0  0  0  0
   16.3881   -8.3939   18.7776 O   0  0  0  0  0  0  0  0  0  0  0  0
   13.5482   -6.0097   20.9723 C   0  0  0  0  0  0  0  0  0  0  0  0
   14.5062   -6.7018   20.2275 C   0  0  0  0  0  0  0  0  0  0  0  0
   14.1587   -7.4077   19.0778 C   0  0  0  0  0  0  0  0  0  0  0  0
   12.8287   -7.4233   18.6627 C   0  0  0  0  0  0  0  0  0  0  0  0
   11.8361   -6.7412   19.3818 C   0  0  0  0  0  0  0  0  0  0  0  0
   12.1896   -6.0208   20.5546 C   0  0  0  0  0  0  0  0  0  0  0  0
   14.0531   -5.8728   23.4259 C   0  0  0  0  0  0  0  0  0  0  0  0
   14.0121   -5.3340   22.1125 O   0  0  0  0  0  0  0  0  0  0  0  0
   10.5091   -6.7776   18.9368 O   0  0  0  0  0  0  0  0  0  0  0  0
   10.0112   -7.7789   18.0587 C   0  0  0  0  0  0  0  0  0  0  0  0
   11.2421   -5.3168   21.3184 O   0  0  0  0  0  0  0  0  0  0  0  0
   11.1928   -3.9061   21.4777 C   0  0  0  0  0  0  0  0  0  0  0  0
   16.5157   -9.7957   15.4749 C   0  0  0  0  0  0  0  0  0  0  0  0
   17.3985   -8.9228   14.7043 N   0  0  0  0  0  0  0  0  0  0  0  0
   16.6009   -8.0614   13.8181 C   0  0  0  0  0  0  0  0  0  0  0  0
   15.8986   -8.8540   12.7123 C   0  0  0  0  0  0  0  0  0  0  0  0
   16.8818   -9.6729   12.0144 N   0  0  0  0  0  0  0  0  0  0  0  0
   17.7107  -10.5484   12.8337 C   0  0  0  0  0  0  0  0  0  0  0  0
   18.3713   -9.7224   13.9414 C   0  0  0  0  0  0  0  0  0  0  0  0
   17.0504   -9.5949   10.5871 C   0  0  0  0  0  0  0  0  0  0  0  0
   16.1528  -10.2466    9.7251 C   0  0  0  0  0  0  0  0  0  0  0  0
   16.3164  -10.1707    8.3390 C   0  0  0  0  0  0  0  0  0  0  0  0
   17.3794   -9.4421    7.7999 C   0  0  0  0  0  0  0  0  0  0  0  0
   18.2789   -8.7897    8.6464 C   0  0  0  0  0  0  0  0  0  0  0  0
   18.1154   -8.8656   10.0324 C   0  0  0  0  0  0  0  0  0  0  0  0
 12 13  1  0  0  0
 13  6  1  0  0  0
  6  7  2  0  0  0
  7  8  1  0  0  0
  8  1  1  0  0  0
  8  9  2  0  0  0
  1  2  2  0  0  0
  2  3  1  0  0  0
  3 18  1  0  0  0
  3  4  2  0  0  0
 18 19  1  0  0  0
 19 20  1  0  0  0
 20 21  1  0  0  0
 21 22  1  0  0  0
 22 25  1  0  0  0
 22 23  1  0  0  0
 25 26  2  0  0  0
 26 27  1  0  0  0
 27 28  2  0  0  0
 28 29  1  0  0  0
 29 30  2  0  0  0
 30 25  1  0  0  0
 23 24  1  0  0  0
 24 19  1  0  0  0
  4  5  1  0  0  0
  5  1  1  0  0  0
  9 10  1  0  0  0
 10 14  1  0  0  0
 10 11  2  0  0  0
 14 15  1  0  0  0
 11 16  1  0  0  0
 11  6  1  0  0  0
 16 17  1  0  0  0
M  END
>  <minimizedAffinity>
-5.44306

>  <minimizedRMSD>
1.78469

$$$$
CHEMBL2260209 PubChem-71588626


 33 36  0  0  0  0  0  0  0  0999 V2000
   17.2088   -8.9760   13.9455 C   0  0  0  0  0  0  0  0  0  0  0  0
   16.3055   -8.9242   15.1283 C   0  0  0  0  0  0  0  0  0  0  0  0
   15.7819   -9.9904   15.5458 O   0  0  0  0  0  0  0  0  0  0  0  0
   16.0639   -7.6693   15.7824 N   0  0  0  0  0  0  0  0  0  0  0  0
   16.5268   -6.8786   15.4222 H   0  0  0  0  0  0  0  0  0  0  0  0
   15.2229   -7.4700   16.8940 N   0  0  0  0  0  0  0  0  0  0  0  0
   15.5769   -7.7301   18.1126 C   0  0  0  0  0  0  0  0  0  0  0  0
   14.6824   -7.5153   19.2632 C   0  0  0  0  0  0  0  0  0  0  0  0
   15.2831   -7.3855   20.5195 C   0  0  0  0  0  0  0  0  0  0  0  0
   14.5092   -7.1797   21.6623 C   0  0  0  0  0  0  0  0  0  0  0  0
   13.1137   -7.1003   21.5645 C   0  0  0  0  0  0  0  0  0  0  0  0
   12.5073   -7.2292   20.3131 C   0  0  0  0  0  0  0  0  0  0  0  0
   13.2745   -7.4367   19.1539 C   0  0  0  0  0  0  0  0  0  0  0  0
   12.6526   -7.5642   17.9057 O   0  0  0  0  0  0  0  0  0  0  0  0
   11.2475   -7.4476   17.7264 C   0  0  0  0  0  0  0  0  0  0  0  0
   12.3095   -6.8951   22.6888 O   0  0  0  0  0  0  0  0  0  0  0  0
   11.8947   -5.6031   23.1107 C   0  0  0  0  0  0  0  0  0  0  0  0
   17.2737  -10.6630   13.2691 S   0  0  0  0  0  0  0  0  0  0  0  0
   16.4558   -9.6902   10.7627 N   0  0  0  0  0  0  0  0  0  0  0  0
   16.1370  -10.2714   11.9371 C   0  0  0  0  0  0  0  0  0  0  0  0
   14.8325  -10.5986   11.9537 N   0  0  0  0  0  0  0  0  0  0  0  0
   14.3613  -10.1959   10.7817 N   0  0  0  0  0  0  0  0  0  0  0  0
   15.3329   -9.6498   10.0657 N   0  0  0  0  0  0  0  0  0  0  0  0
   17.0597   -8.1926    6.7700 C   0  0  0  0  0  0  0  0  0  0  0  0
   18.2999   -7.6643    6.4051 C   0  0  0  0  0  0  0  0  0  0  0  0
   19.3475   -7.6353    7.3283 C   0  0  0  0  0  0  0  0  0  0  0  0
   19.1580   -8.1319    8.6209 C   0  0  0  0  0  0  0  0  0  0  0  0
   17.8996   -8.6620    9.0053 C   0  0  0  0  0  0  0  0  0  0  0  0
   16.8619   -8.6902    8.0606 C   0  0  0  0  0  0  0  0  0  0  0  0
   17.7241   -9.1699   10.3153 C   0  0  0  0  0  0  0  0  0  0  0  0
   18.8085   -9.1333   11.2051 C   0  0  0  0  0  0  0  0  0  0  0  0
   20.0431   -8.6105   10.8178 C   0  0  0  0  0  0  0  0  0  0  0  0
   20.2173   -8.1098    9.5285 C   0  0  0  0  0  0  0  0  0  0  0  0
 24 25  2  0  0  0
 25 26  1  0  0  0
 26 27  2  0  0  0
 27 28  1  0  0  0
 28 29  2  0  0  0
 28 30  1  0  0  0
 30 31  2  0  0  0
 31 32  1  0  0  0
 32 33  2  0  0  0
 30 19  1  0  0  0
 19 20  1  0  0  0
 20 21  2  0  0  0
 21 22  1  0  0  0
 22 23  2  0  0  0
 20 18  1  0  0  0
 18  1  1  0  0  0
  1  2  1  0  0  0
  2  3  2  0  0  0
  2  4  1  0  0  0
  4  6  1  0  0  0
  6  7  2  0  0  0
  7  8  1  0  0  0
  8  9  2  0  0  0
  9 10  1  0  0  0
 10 11  2  0  0  0
 11 12  1  0  0  0
 12 13  2  0  0  0
 13 14  1  0  0  0
 14 15  1  0  0  0
 11 16  1  0  0  0
 16 17  1  0  0  0
 29 24  1  0  0  0
 23 19  1  0  0  0
 13  8  1  0  0  0
 33 27  1  0  0  0
  4  5  1  0  0  0
M  END
>  <minimizedAffinity>
-5.41931

>  <minimizedRMSD>
1.59236

$$$$
CHEMBL3657546 PubChem-71698815


 32 36  0  0  0  0  0  0  0  0999 V2000
   16.3307   -9.6065   14.9493 C   0  0  0  0  0  0  0  0  0  0  0  0
   17.4783  -10.1345   15.4547 N   0  0  0  0  0  0  0  0  0  0  0  0
   17.8061   -9.9758   16.7627 C   0  0  0  0  0  0  0  0  0  0  0  0
   16.9615   -9.2628   17.6102 C   0  0  0  0  0  0  0  0  0  0  0  0
   15.7836   -8.7234   17.0822 C   0  0  0  0  0  0  0  0  0  0  0  0
   15.4970   -8.9084   15.7648 N   0  0  0  0  0  0  0  0  0  0  0  0
   14.8801   -7.9810   17.9122 N   0  0  0  0  0  0  0  0  0  0  0  0
   14.9369   -7.8894   19.2596 C   0  0  0  0  0  0  0  0  0  0  0  0
   13.8849   -7.0859   19.6489 C   0  0  0  0  0  0  0  0  0  0  0  0
   13.2436   -6.7142   18.4870 C   0  0  0  0  0  0  0  0  0  0  0  0
   13.8645   -7.2750   17.4361 N   0  0  0  0  0  0  0  0  0  0  0  0
   12.0532   -5.8276   18.3746 C   0  0  0  0  0  0  0  0  0  0  0  0
   13.5684   -6.6511   21.0404 C   0  0  0  0  0  0  0  0  0  0  0  0
   14.3239   -5.4504   21.3703 N   0  0  0  0  0  0  0  0  0  0  0  0
   13.3641   -4.3862   21.6380 C   0  0  0  0  0  0  0  0  0  0  0  0
   13.6458   -4.3815   23.1221 C   0  0  0  0  0  0  0  0  0  0  0  0
   14.6088   -5.4997   22.7980 C   0  0  0  0  0  0  0  0  0  0  0  0
   14.3642   -3.2330   23.4534 O   0  0  0  0  0  0  0  0  0  0  0  0
   15.0794   -3.1026   22.8112 H   0  0  0  0  0  0  0  0  0  0  0  0
   15.9792   -9.7709   13.5688 N   0  0  0  0  0  0  0  0  0  0  0  0
   15.0348   -9.9765   13.3814 H   0  0  0  0  0  0  0  0  0  0  0  0
   18.3887   -8.6807    6.7181 C   0  0  0  0  0  0  0  0  0  0  0  0
   18.1246   -8.9517    8.1574 C   0  0  0  0  0  0  0  0  0  0  0  0
   16.8858   -8.8744    8.7827 C   0  0  0  0  0  0  0  0  0  0  0  0
   17.1328   -9.2059   10.0934 C   0  0  0  0  0  0  0  0  0  0  0  0
   18.4762   -9.4597   10.1868 C   0  0  0  0  0  0  0  0  0  0  0  0
   19.0591   -9.3043    9.0215 O   0  0  0  0  0  0  0  0  0  0  0  0
   19.0688   -9.8276   11.3906 C   0  0  0  0  0  0  0  0  0  0  0  0
   18.2356   -9.9315   12.5191 C   0  0  0  0  0  0  0  0  0  0  0  0
   16.8449   -9.6703   12.4293 C   0  0  0  0  0  0  0  0  0  0  0  0
   16.2832   -9.3004   11.1924 C   0  0  0  0  0  0  0  0  0  0  0  0
   15.3436   -8.4479    8.0621 Cl  0  0  0  0  0  0  0  0  0  0  0  0
 22 23  1  0  0  0
 23 24  2  0  0  0
 24 25  1  0  0  0
 24 32  1  0  0  0
 25 26  2  0  0  0
 26 27  1  0  0  0
 26 28  1  0  0  0
 27 23  1  0  0  0
 28 29  2  0  0  0
 29 30  1  0  0  0
 30 31  2  0  0  0
 30 20  1  0  0  0
 31 25  1  0  0  0
 20  1  1  0  0  0
  1  2  2  0  0  0
  2  3  1  0  0  0
  3  4  2  0  0  0
  4  5  1  0  0  0
  5  6  2  0  0  0
  5  7  1  0  0  0
  6  1  1  0  0  0
  7  8  1  0  0  0
  8  9  2  0  0  0
  9 10  1  0  0  0
  9 13  1  0  0  0
 10 11  2  0  0  0
 10 12  1  0  0  0
 11  7  1  0  0  0
 13 14  1  0  0  0
 14 15  1  0  0  0
 15 16  1  0  0  0
 16 17  1  0  0  0
 16 18  1  0  0  0
 17 14  1  0  0  0
 20 21  1  0  0  0
 18 19  1  0  0  0
M  END
>  <minimizedAffinity>
-5.41540

>  <minimizedRMSD>
1.75924

$$$$
CHEMBL1214309


 37 40  0  0  0  0  0  0  0  0999 V2000
   16.3875   -9.3661   15.5473 C   0  0  0  0  0  0  0  0  0  0  0  0
   16.3564   -8.9735   14.1884 C   0  0  0  0  0  0  0  0  0  0  0  0
   17.0643   -9.6984   13.2132 C   0  0  0  0  0  0  0  0  0  0  0  0
   17.8176  -10.8270   13.5906 C   0  0  0  0  0  0  0  0  0  0  0  0
   17.8472  -11.2131   14.9336 C   0  0  0  0  0  0  0  0  0  0  0  0
   17.1438  -10.5032   15.9141 C   0  0  0  0  0  0  0  0  0  0  0  0
   15.6333   -7.8488   13.7976 O   0  0  0  0  0  0  0  0  0  0  0  0
   15.1560   -7.3541   14.4343 H   0  0  0  0  0  0  0  0  0  0  0  0
   15.6308   -8.5903   16.5694 C   0  0  0  0  0  0  0  0  0  0  0  0
   14.5590   -7.8230   16.2910 N   0  0  0  0  0  0  0  0  0  0  0  0
   14.1326   -7.2749   17.4149 N   0  0  0  0  0  0  0  0  0  0  0  0
   14.9309   -7.6890   18.4161 C   0  0  0  0  0  0  0  0  0  0  0  0
   15.9109   -8.5357   17.9255 C   0  0  0  0  0  0  0  0  0  0  0  0
   13.3628   -6.6678   17.5046 H   0  0  0  0  0  0  0  0  0  0  0  0
   14.7760   -7.2911   19.8354 C   0  0  0  0  0  0  0  0  0  0  0  0
   13.5079   -7.1362   20.4421 C   0  0  0  0  0  0  0  0  0  0  0  0
   13.4314   -6.7568   21.7934 C   0  0  0  0  0  0  0  0  0  0  0  0
   14.5856   -6.5307   22.5452 C   0  0  0  0  0  0  0  0  0  0  0  0
   15.8391   -6.6852   21.9404 C   0  0  0  0  0  0  0  0  0  0  0  0
   15.9301   -7.0614   20.6001 C   0  0  0  0  0  0  0  0  0  0  0  0
   14.4582   -6.1551   23.8852 O   0  0  0  0  0  0  0  0  0  0  0  0
   15.2579   -6.7136   24.9188 C   0  0  0  0  0  0  0  0  0  0  0  0
   12.3395   -7.3588   19.7032 O   0  0  0  0  0  0  0  0  0  0  0  0
   11.4015   -6.3317   19.4110 C   0  0  0  0  0  0  0  0  0  0  0  0
   16.9925   -9.2356   11.7793 C   0  0  0  0  0  0  0  0  0  0  0  0
   16.0877  -10.1011   10.9313 C   0  0  0  0  0  0  0  0  0  0  0  0
   16.6238  -10.1025    9.5636 N   0  0  0  0  0  0  0  0  0  0  0  0
   18.0655   -9.9430    9.7336 C   0  0  0  0  0  0  0  0  0  0  0  0
   18.3345   -9.2952   11.0869 C   0  0  0  0  0  0  0  0  0  0  0  0
   16.1746   -8.9324    8.8108 C   0  0  0  0  0  0  0  0  0  0  0  0
   14.6158   -9.7035   11.0431 C   0  0  0  0  0  0  0  0  0  0  0  0
   13.8707  -10.7809   11.5218 O   0  0  0  0  0  0  0  0  0  0  0  0
   13.9534  -11.5287   10.9095 H   0  0  0  0  0  0  0  0  0  0  0  0
   17.1786  -10.9298   17.2480 O   0  0  0  0  0  0  0  0  0  0  0  0
   18.2779  -11.6361   17.8082 C   0  0  0  0  0  0  0  0  0  0  0  0
   18.5267  -11.5514   12.6241 O   0  0  0  0  0  0  0  0  0  0  0  0
   19.8371  -12.0559   12.8436 C   0  0  0  0  0  0  0  0  0  0  0  0
  1  9  1  0  0  0
  9 10  2  0  0  0
 10 11  1  0  0  0
 11 12  1  0  0  0
 12 13  2  0  0  0
 12 15  1  0  0  0
 15 16  2  0  0  0
 16 17  1  0  0  0
 17 18  2  0  0  0
 18 19  1  0  0  0
 19 20  2  0  0  0
 18 21  1  0  0  0
 21 22  1  0  0  0
 16 23  1  0  0  0
 23 24  1  0  0  0
  1  2  2  0  0  0
  2  3  1  0  0  0
  3 25  1  0  0  0
 25 26  1  0  0  0
 26 27  1  0  0  0
 27 28  1  0  0  0
 28 29  1  0  0  0
 27 30  1  0  0  0
 26 31  1  0  0  0
 31 32  1  0  0  0
  3  4  2  0  0  0
  4  5  1  0  0  0
  5  6  2  0  0  0
  6 34  1  0  0  0
 34 35  1  0  0  0
  4 36  1  0  0  0
 36 37  1  0  0  0
  2  7  1  0  0  0
  6  1  1  0  0  0
 13  9  1  0  0  0
 20 15  1  0  0  0
 29 25  1  0  0  0
 11 14  1  0  0  0
 32 33  1  0  0  0
  7  8  1  0  0  0
M  END
>  <minimizedAffinity>
-5.41115

>  <minimizedRMSD>
1.95254

$$$$
CHEMBL4759455 PubChem-162657772


 31 34  0  0  0  0  0  0  0  0999 V2000
   18.0758  -10.7161   12.6360 C   0  0  0  0  0  0  0  0  0  0  0  0
   17.5548   -9.7626   11.6530 N   0  0  0  0  0  0  0  0  0  0  0  0
   16.2549   -9.1276   11.8835 C   0  0  0  0  0  0  0  0  0  0  0  0
   16.0796   -8.8280   13.3393 C   0  0  0  0  0  0  0  0  0  0  0  0
   16.9385   -9.2954   14.3353 C   0  0  0  0  0  0  0  0  0  0  0  0
   18.1970  -10.0452   14.0062 C   0  0  0  0  0  0  0  0  0  0  0  0
   16.5272   -8.9024   15.6178 C   0  0  0  0  0  0  0  0  0  0  0  0
   15.3559   -8.1691   15.6000 C   0  0  0  0  0  0  0  0  0  0  0  0
   14.7963   -7.9687   14.0275 S   0  0  0  0  0  0  0  0  0  0  0  0
   14.7831   -7.6939   16.7306 N   0  0  0  0  0  0  0  0  0  0  0  0
   15.3788   -7.9443   17.9340 C   0  0  0  0  0  0  0  0  0  0  0  0
   16.5411   -8.6674   17.9813 N   0  0  0  0  0  0  0  0  0  0  0  0
   17.1313   -9.1531   16.8528 C   0  0  0  0  0  0  0  0  0  0  0  0
   18.1992   -9.8148   16.9376 O   0  0  0  0  0  0  0  0  0  0  0  0
   18.2781   -9.4949   10.4460 C   0  0  0  0  0  0  0  0  0  0  0  0
   19.3858  -10.0619   10.2345 O   0  0  0  0  0  0  0  0  0  0  0  0
   16.9617   -8.8411   18.8543 H   0  0  0  0  0  0  0  0  0  0  0  0
   14.7725   -7.4367   19.1789 C   0  0  0  0  0  0  0  0  0  0  0  0
   13.4513   -6.9790   19.1887 C   0  0  0  0  0  0  0  0  0  0  0  0
   12.8571   -6.4921   20.3645 C   0  0  0  0  0  0  0  0  0  0  0  0
   13.6128   -6.4647   21.5644 C   0  0  0  0  0  0  0  0  0  0  0  0
   14.9402   -6.9268   21.5455 C   0  0  0  0  0  0  0  0  0  0  0  0
   15.5097   -7.4063   20.3654 C   0  0  0  0  0  0  0  0  0  0  0  0
   16.0084   -6.9148   23.1308 Br  0  0  0  0  0  0  0  0  0  0  0  0
   13.1030   -5.9957   22.7869 O   0  0  0  0  0  0  0  0  0  0  0  0
   12.9941   -4.6283   23.1553 C   0  0  0  0  0  0  0  0  0  0  0  0
   11.5324   -6.0404   20.3436 O   0  0  0  0  0  0  0  0  0  0  0  0
   11.1306   -4.8471   19.6835 C   0  0  0  0  0  0  0  0  0  0  0  0
   17.7548   -8.6026    9.5070 O   0  0  0  0  0  0  0  0  0  0  0  0
   18.5074   -8.1660    8.3855 C   0  0  0  0  0  0  0  0  0  0  0  0
   17.9496   -8.7969    7.1274 C   0  0  0  0  0  0  0  0  0  0  0  0
  1  2  1  0  0  0
  2  3  1  0  0  0
  3  4  1  0  0  0
  4  5  2  0  0  0
  5  6  1  0  0  0
  5  7  1  0  0  0
  7  8  2  0  0  0
  8  9  1  0  0  0
  8 10  1  0  0  0
 10 11  2  0  0  0
 11 12  1  0  0  0
 12 13  1  0  0  0
 13 14  2  0  0  0
 11 18  1  0  0  0
 18 19  2  0  0  0
 19 20  1  0  0  0
 20 21  2  0  0  0
 21 22  1  0  0  0
 22 23  2  0  0  0
 22 24  1  0  0  0
 21 25  1  0  0  0
 25 26  1  0  0  0
 20 27  1  0  0  0
 27 28  1  0  0  0
  2 15  1  0  0  0
 15 16  2  0  0  0
 15 29  1  0  0  0
 29 30  1  0  0  0
 30 31  1  0  0  0
  6  1  1  0  0  0
 13  7  1  0  0  0
 23 18  1  0  0  0
  9  4  1  0  0  0
 12 17  1  0  0  0
M  END
>  <minimizedAffinity>
-5.39910

>  <minimizedRMSD>
0.67065

$$$$
CHEMBL1871233 CHEMBL1907278 CSC026925187 MCULE-1283263364 MCULE-2374888510 MolPort-005-330-387 PubChem-16247590 PubChem-4846760 PubChem-53356599 Z89267134


 34 36  0  0  0  0  0  0  0  0999 V2000
   15.3769   -9.6398   15.1848 N   0  0  0  0  0  0  0  0  0  0  0  0
   15.8772  -10.5259   15.2542 H   0  0  0  0  0  0  0  0  0  0  0  0
   16.1594   -8.4447   16.1666 S   0  0  0  0  0  0  0  0  0  0  0  0
   17.4012   -9.0182   16.7905 O   0  0  0  0  0  0  0  0  0  0  0  0
   16.5276   -7.2641   15.3111 O   0  0  0  0  0  0  0  0  0  0  0  0
   15.0609   -7.9328   17.4336 C   0  0  0  0  0  0  0  0  0  0  0  0
   15.5003   -7.8807   18.7578 C   0  0  0  0  0  0  0  0  0  0  0  0
   14.6319   -7.4607   19.7668 C   0  0  0  0  0  0  0  0  0  0  0  0
   13.3208   -7.0766   19.4649 C   0  0  0  0  0  0  0  0  0  0  0  0
   12.8586   -7.1637   18.1331 C   0  0  0  0  0  0  0  0  0  0  0  0
   13.7444   -7.5810   17.1254 C   0  0  0  0  0  0  0  0  0  0  0  0
   12.4708   -6.6649   20.5434 N   0  0  0  0  0  0  0  0  0  0  0  0
   12.1945   -5.3098   20.9110 C   0  0  0  0  0  0  0  0  0  0  0  0
   11.1021   -5.0219   21.8760 C   0  0  0  0  0  0  0  0  0  0  0  0
   12.8976   -4.3627   20.4687 O   0  0  0  0  0  0  0  0  0  0  0  0
   12.0415   -7.3734   21.0754 H   0  0  0  0  0  0  0  0  0  0  0  0
   11.5239   -6.8688   17.8315 O   0  0  0  0  0  0  0  0  0  0  0  0
   10.5054   -7.8593   17.7859 C   0  0  0  0  0  0  0  0  0  0  0  0
   15.3906   -9.1721   13.8069 C   0  0  0  0  0  0  0  0  0  0  0  0
   16.7910   -9.3153   13.2160 C   0  0  0  0  0  0  0  0  0  0  0  0
   16.7935   -9.6832    8.9101 C   0  0  0  0  0  0  0  0  0  0  0  0
   17.9250   -9.2072    9.5921 C   0  0  0  0  0  0  0  0  0  0  0  0
   17.9117   -9.0909   10.9846 C   0  0  0  0  0  0  0  0  0  0  0  0
   16.7708   -9.4473   11.7114 C   0  0  0  0  0  0  0  0  0  0  0  0
   15.6401   -9.9232   11.0299 C   0  0  0  0  0  0  0  0  0  0  0  0
   15.6535  -10.0395    9.6374 C   0  0  0  0  0  0  0  0  0  0  0  0
   17.6836   -9.1186    6.6724 C   0  0  0  0  0  0  0  0  0  0  0  0
   16.7756   -9.8107    7.5185 O   0  0  0  0  0  0  0  0  0  0  0  0
   17.5748  -10.3469   13.9173 N   0  0  0  0  0  0  0  0  0  0  0  0
   17.5636  -11.6230   13.1903 C   0  0  0  0  0  0  0  0  0  0  0  0
   18.3007  -12.6896   13.9954 C   0  0  0  0  0  0  0  0  0  0  0  0
   19.7370  -12.2404   14.2424 C   0  0  0  0  0  0  0  0  0  0  0  0
   19.7530  -10.8704   14.9126 C   0  0  0  0  0  0  0  0  0  0  0  0
   18.9552   -9.8795   14.0694 C   0  0  0  0  0  0  0  0  0  0  0  0
 27 28  1  0  0  0
 28 21  1  0  0  0
 21 22  2  0  0  0
 22 23  1  0  0  0
 23 24  2  0  0  0
 24 25  1  0  0  0
 25 26  2  0  0  0
 26 21  1  0  0  0
 20 24  1  0  0  0
 20 19  1  0  0  0
 20 29  1  0  0  0
 19  1  1  0  0  0
  1  3  1  0  0  0
  3  4  2  0  0  0
  3  5  2  0  0  0
  3  6  1  0  0  0
  6  7  2  0  0  0
  7  8  1  0  0  0
  8  9  2  0  0  0
  9 12  1  0  0  0
  9 10  1  0  0  0
 12 13  1  0  0  0
 13 14  1  0  0  0
 13 15  2  0  0  0
 10 17  1  0  0  0
 10 11  2  0  0  0
 17 18  1  0  0  0
 11  6  1  0  0  0
 29 30  1  0  0  0
 30 31  1  0  0  0
 31 32  1  0  0  0
 32 33  1  0  0  0
 33 34  1  0  0  0
 34 29  1  0  0  0
  1  2  1  0  0  0
 12 16  1  0  0  0
M  END
>  <minimizedAffinity>
-5.39686

>  <minimizedRMSD>
1.98780

$$$$
CHEMBL3344429 PubChem-118717787


 33 36  0  0  0  0  0  0  0  0999 V2000
   16.3738   -9.3122   15.5048 C   0  0  0  0  0  0  0  0  0  0  0  0
   15.2741   -8.6893   15.9757 N   0  0  0  0  0  0  0  0  0  0  0  0
   15.6454   -8.4215   17.2449 C   0  0  0  0  0  0  0  0  0  0  0  0
   16.8603   -8.8543   17.4865 O   0  0  0  0  0  0  0  0  0  0  0  0
   17.3508   -9.4176   16.4251 N   0  0  0  0  0  0  0  0  0  0  0  0
   16.4969   -9.7819   10.0222 C   0  0  0  0  0  0  0  0  0  0  0  0
   15.4382  -10.0690    9.3970 O   0  0  0  0  0  0  0  0  0  0  0  0
   16.4397   -9.5241   11.4341 N   0  0  0  0  0  0  0  0  0  0  0  0
   17.6089   -9.0195   12.1544 C   0  0  0  0  0  0  0  0  0  0  0  0
   17.7698   -9.7791   13.4668 C   0  0  0  0  0  0  0  0  0  0  0  0
   16.4898   -9.8083   14.1669 N   0  0  0  0  0  0  0  0  0  0  0  0
   15.3232  -10.3238   13.4577 C   0  0  0  0  0  0  0  0  0  0  0  0
   15.1591   -9.5730   12.1393 C   0  0  0  0  0  0  0  0  0  0  0  0
   19.3524   -8.3155    6.8032 C   0  0  0  0  0  0  0  0  0  0  0  0
   18.0684   -8.3976    7.6055 C   0  0  0  0  0  0  0  0  0  0  0  0
   16.9841   -7.4653    7.1009 C   0  0  0  0  0  0  0  0  0  0  0  0
   17.5802   -9.8196    7.7851 C   0  0  0  0  0  0  0  0  0  0  0  0
   17.8106   -9.7041    9.2853 C   0  0  0  0  0  0  0  0  0  0  0  0
   18.3007   -8.2719    9.0960 C   0  0  0  0  0  0  0  0  0  0  0  0
   14.7786   -7.7267   18.2225 C   0  0  0  0  0  0  0  0  0  0  0  0
   15.2559   -7.2085   19.4495 C   0  0  0  0  0  0  0  0  0  0  0  0
   14.3727   -6.5647   20.3213 C   0  0  0  0  0  0  0  0  0  0  0  0
   13.0162   -6.4213   19.9982 C   0  0  0  0  0  0  0  0  0  0  0  0
   12.5443   -6.9358   18.7874 C   0  0  0  0  0  0  0  0  0  0  0  0
   13.4189   -7.5801   17.9109 C   0  0  0  0  0  0  0  0  0  0  0  0
   11.2361   -6.8105   18.4549 F   0  0  0  0  0  0  0  0  0  0  0  0
   16.9347   -7.3266   19.9575 Cl  0  0  0  0  0  0  0  0  0  0  0  0
   12.1227   -5.7807   20.8646 O   0  0  0  0  0  0  0  0  0  0  0  0
   12.4454   -5.4505   22.2134 C   0  0  0  0  0  0  0  0  0  0  0  0
   12.3781   -3.9455   22.4464 C   0  0  0  0  0  0  0  0  0  0  0  0
   13.4424   -3.3024   21.8145 O   0  0  0  0  0  0  0  0  0  0  0  0
   11.0635   -3.3832   21.9412 C   0  0  0  0  0  0  0  0  0  0  0  0
   13.3903   -3.4547   20.8580 H   0  0  0  0  0  0  0  0  0  0  0  0
 14 15  1  0  0  0
 15 16  1  0  0  0
 15 17  1  0  0  0
 17 18  1  0  0  0
 18  6  1  0  0  0
  6  7  2  0  0  0
  6  8  1  0  0  0
  8  9  1  0  0  0
  9 10  1  0  0  0
 10 11  1  0  0  0
 11  1  1  0  0  0
  1  2  1  0  0  0
  2  3  2  0  0  0
  3  4  1  0  0  0
  4  5  1  0  0  0
  3 20  1  0  0  0
 20 21  2  0  0  0
 21 22  1  0  0  0
 22 23  2  0  0  0
 23 24  1  0  0  0
 24 25  2  0  0  0
 24 26  1  0  0  0
 23 28  1  0  0  0
 28 29  1  0  0  0
 30 29  1  0  0  0
 30 31  1  0  0  0
 30 32  1  0  0  0
 21 27  1  0  0  0
 11 12  1  0  0  0
 12 13  1  0  0  0
 18 19  1  0  0  0
 19 15  1  0  0  0
 13  8  1  0  0  0
  5  1  2  0  0  0
 25 20  1  0  0  0
 31 33  1  0  0  0
M  END
>  <minimizedAffinity>
-5.37188

>  <minimizedRMSD>
1.90839

$$$$
CHEMBL1405196 6899812 ChemDiv-E713-0263 MCULE-2938726878 MolPort-007-755-321 PubChem-16021713 ZINC000006899812 ZINC06899812


 28 31  0  0  0  0  0  0  0  0999 V2000
   15.4943   -8.3379   17.7759 C   0  0  0  0  0  0  0  0  0  0  0  0
   16.4002   -9.3154   17.9865 N   0  0  0  0  0  0  0  0  0  0  0  0
   16.7905   -9.6715   16.8012 O   0  0  0  0  0  0  0  0  0  0  0  0
   16.1616   -8.9555   15.9028 C   0  0  0  0  0  0  0  0  0  0  0  0
   15.3105   -8.0747   16.4634 N   0  0  0  0  0  0  0  0  0  0  0  0
   13.4302   -6.2826   20.9186 C   0  0  0  0  0  0  0  0  0  0  0  0
   12.8738   -6.3351   19.6313 C   0  0  0  0  0  0  0  0  0  0  0  0
   13.5574   -7.0116   18.6075 C   0  0  0  0  0  0  0  0  0  0  0  0
   14.7866   -7.6339   18.8565 C   0  0  0  0  0  0  0  0  0  0  0  0
   15.3356   -7.5778   20.1423 C   0  0  0  0  0  0  0  0  0  0  0  0
   14.6634   -6.9073   21.1662 C   0  0  0  0  0  0  0  0  0  0  0  0
   13.3026   -5.3748   23.2184 C   0  0  0  0  0  0  0  0  0  0  0  0
   12.7429   -5.6074   21.9331 O   0  0  0  0  0  0  0  0  0  0  0  0
   11.6450   -5.7104   19.3916 O   0  0  0  0  0  0  0  0  0  0  0  0
   11.5001   -4.6163   18.4965 C   0  0  0  0  0  0  0  0  0  0  0  0
   16.3594   -9.0882   14.4923 N   0  0  0  0  0  0  0  0  0  0  0  0
   15.7362   -8.1441   13.5672 C   0  0  0  0  0  0  0  0  0  0  0  0
   16.7288   -7.7697   12.4713 C   0  0  0  0  0  0  0  0  0  0  0  0
   17.3232   -8.9853   11.9179 N   0  0  0  0  0  0  0  0  0  0  0  0
   17.9783   -9.8994   12.8522 C   0  0  0  0  0  0  0  0  0  0  0  0
   16.9986  -10.2873   13.9558 C   0  0  0  0  0  0  0  0  0  0  0  0
   17.2431   -9.2840   10.5119 C   0  0  0  0  0  0  0  0  0  0  0  0
   18.0456   -8.5934    9.5885 C   0  0  0  0  0  0  0  0  0  0  0  0
   17.9684   -8.8836    8.2236 C   0  0  0  0  0  0  0  0  0  0  0  0
   18.9764   -8.0149    7.0870 Cl  0  0  0  0  0  0  0  0  0  0  0  0
   17.0880   -9.8671    7.7666 C   0  0  0  0  0  0  0  0  0  0  0  0
   16.2843  -10.5605    8.6745 C   0  0  0  0  0  0  0  0  0  0  0  0
   16.3614  -10.2705   10.0397 C   0  0  0  0  0  0  0  0  0  0  0  0
 12 13  1  0  0  0
 13  6  1  0  0  0
  6  7  2  0  0  0
  7 14  1  0  0  0
  7  8  1  0  0  0
 14 15  1  0  0  0
  8  9  2  0  0  0
  9 10  1  0  0  0
  9  1  1  0  0  0
 10 11  2  0  0  0
 11  6  1  0  0  0
  1  2  2  0  0  0
  2  3  1  0  0  0
  3  4  1  0  0  0
  4  5  2  0  0  0
  4 16  1  0  0  0
  5  1  1  0  0  0
 16 17  1  0  0  0
 17 18  1  0  0  0
 18 19  1  0  0  0
 19 20  1  0  0  0
 19 22  1  0  0  0
 20 21  1  0  0  0
 21 16  1  0  0  0
 22 23  2  0  0  0
 23 24  1  0  0  0
 24 25  1  0  0  0
 24 26  2  0  0  0
 26 27  1  0  0  0
 27 28  2  0  0  0
 28 22  1  0  0  0
M  END
>  <minimizedAffinity>
-5.36510

>  <minimizedRMSD>
1.88047

$$$$
CHEMBL4553838 PubChem-135335041


 32 35  0  0  0  0  0  0  0  0999 V2000
   16.9774   -9.6816   13.9617 C   0  0  0  0  0  0  0  0  0  0  0  0
   15.8620   -8.9909   14.4821 C   0  0  0  0  0  0  0  0  0  0  0  0
   15.8560   -8.6881   15.8407 C   0  0  0  0  0  0  0  0  0  0  0  0
   14.8802   -8.0389   16.4980 N   0  0  0  0  0  0  0  0  0  0  0  0
   15.3430   -7.9967   17.7733 C   0  0  0  0  0  0  0  0  0  0  0  0
   16.5874   -8.6182   17.8701 C   0  0  0  0  0  0  0  0  0  0  0  0
   16.8775   -9.0412   16.6323 N   0  0  0  0  0  0  0  0  0  0  0  0
   17.9726   -9.7045   16.1911 C   0  0  0  0  0  0  0  0  0  0  0  0
   18.0363  -10.0373   14.8308 C   0  0  0  0  0  0  0  0  0  0  0  0
   19.7034  -10.4856    9.9543 C   0  0  0  0  0  0  0  0  0  0  0  0
   18.6679   -9.7163   10.7538 C   0  0  0  0  0  0  0  0  0  0  0  0
   18.2774  -10.5407   11.9807 C   0  0  0  0  0  0  0  0  0  0  0  0
   17.0371  -10.0206   12.5626 N   0  0  0  0  0  0  0  0  0  0  0  0
   15.8693   -9.8031   11.6973 C   0  0  0  0  0  0  0  0  0  0  0  0
   16.2116  -10.0432   10.2278 C   0  0  0  0  0  0  0  0  0  0  0  0
   17.4956   -9.4140    9.9177 N   0  0  0  0  0  0  0  0  0  0  0  0
   17.5553   -8.4080    8.8912 C   0  0  0  0  0  0  0  0  0  0  0  0
   16.5486   -8.1816    8.1673 O   0  0  0  0  0  0  0  0  0  0  0  0
   18.8037   -7.6257    8.6474 C   0  0  0  0  0  0  0  0  0  0  0  0
   18.6938   -6.9276    7.4452 O   0  0  0  0  0  0  0  0  0  0  0  0
   19.6113   -7.5454    6.5969 C   0  0  0  0  0  0  0  0  0  0  0  0
   14.6170   -7.3719   18.9047 C   0  0  0  0  0  0  0  0  0  0  0  0
   15.2872   -7.2080   20.1261 C   0  0  0  0  0  0  0  0  0  0  0  0
   14.6543   -6.6263   21.2254 C   0  0  0  0  0  0  0  0  0  0  0  0
   13.3269   -6.1938   21.1227 C   0  0  0  0  0  0  0  0  0  0  0  0
   12.6486   -6.3533   19.9063 C   0  0  0  0  0  0  0  0  0  0  0  0
   13.2767   -6.9374   18.7941 C   0  0  0  0  0  0  0  0  0  0  0  0
   15.5462   -6.4490   22.7258 Cl  0  0  0  0  0  0  0  0  0  0  0  0
   12.5817   -7.0876   17.5878 O   0  0  0  0  0  0  0  0  0  0  0  0
   11.1879   -7.3589   17.5266 C   0  0  0  0  0  0  0  0  0  0  0  0
   12.7017   -5.6119   22.2311 O   0  0  0  0  0  0  0  0  0  0  0  0
   11.4721   -4.9055   22.1379 C   0  0  0  0  0  0  0  0  0  0  0  0
 10 11  1  0  0  0
 11 12  1  0  0  0
 12 13  1  0  0  0
 13 14  1  0  0  0
 14 15  1  0  0  0
 15 16  1  0  0  0
 16 17  1  0  0  0
 17 18  2  0  0  0
 17 19  1  0  0  0
 19 20  1  0  0  0
 20 21  1  0  0  0
 13  1  1  0  0  0
  1  2  2  0  0  0
  2  3  1  0  0  0
  3  4  2  0  0  0
  4  5  1  0  0  0
  5  6  2  0  0  0
  6  7  1  0  0  0
  7  8  1  0  0  0
  8  9  2  0  0  0
  5 22  1  0  0  0
 22 23  2  0  0  0
 23 24  1  0  0  0
 24 25  2  0  0  0
 25 26  1  0  0  0
 26 27  2  0  0  0
 27 29  1  0  0  0
 29 30  1  0  0  0
 25 31  1  0  0  0
 31 32  1  0  0  0
 24 28  1  0  0  0
 16 11  1  0  0  0
  9  1  1  0  0  0
  7  3  1  0  0  0
 27 22  1  0  0  0
M  END
>  <minimizedAffinity>
-5.36046

>  <minimizedRMSD>
1.87026

$$$$
CHEMBL2205435 PubChem-24864855


 34 36  0  0  0  0  0  0  0  0999 V2000
   15.3824   -8.2320   16.7487 C   0  0  0  0  0  0  0  0  0  0  0  0
   15.3781   -8.3207   15.3923 N   0  0  0  0  0  0  0  0  0  0  0  0
   16.3561   -8.9839   14.7203 C   0  0  0  0  0  0  0  0  0  0  0  0
   17.3902   -9.5876   15.4393 C   0  0  0  0  0  0  0  0  0  0  0  0
   17.3844   -9.4900   16.8286 C   0  0  0  0  0  0  0  0  0  0  0  0
   16.3860   -8.8176   17.4566 N   0  0  0  0  0  0  0  0  0  0  0  0
   16.2975   -9.0413   13.2904 N   0  0  0  0  0  0  0  0  0  0  0  0
   15.5413   -8.5786   12.8620 H   0  0  0  0  0  0  0  0  0  0  0  0
   17.2225   -9.7004   12.4172 C   0  0  0  0  0  0  0  0  0  0  0  0
   17.6805   -9.4195   11.1441 C   0  0  0  0  0  0  0  0  0  0  0  0
   18.4689  -10.5566   11.1769 C   0  0  0  0  0  0  0  0  0  0  0  0
   19.2648  -11.1187   10.3799 O   0  0  0  0  0  0  0  0  0  0  0  0
   18.0201  -10.8338   12.4500 C   0  0  0  0  0  0  0  0  0  0  0  0
   18.2494  -11.7500   13.2820 O   0  0  0  0  0  0  0  0  0  0  0  0
   17.4049   -8.3734   10.2063 N   0  0  0  0  0  0  0  0  0  0  0  0
   17.2603   -7.4704   10.5707 H   0  0  0  0  0  0  0  0  0  0  0  0
   17.3192   -8.5286    8.7530 C   0  0  0  0  0  0  0  0  0  0  0  0
   16.9279   -9.9488    8.3567 C   0  0  0  0  0  0  0  0  0  0  0  0
   18.5520   -7.9750    8.0094 C   0  0  0  0  0  0  0  0  0  0  0  0
   19.7796   -7.9168    8.9013 C   0  0  0  0  0  0  0  0  0  0  0  0
   18.8663   -8.8526    6.8114 C   0  0  0  0  0  0  0  0  0  0  0  0
   18.2611   -6.5771    7.4935 C   0  0  0  0  0  0  0  0  0  0  0  0
   14.3245   -7.5197   17.4045 N   0  0  0  0  0  0  0  0  0  0  0  0
   13.6021   -7.1849   16.8254 H   0  0  0  0  0  0  0  0  0  0  0  0
   14.1951   -7.2373   18.8071 C   0  0  0  0  0  0  0  0  0  0  0  0
   13.1320   -6.4297   19.2451 C   0  0  0  0  0  0  0  0  0  0  0  0
   12.9927   -6.1463   20.6142 C   0  0  0  0  0  0  0  0  0  0  0  0
   13.8984   -6.6574   21.5467 C   0  0  0  0  0  0  0  0  0  0  0  0
   14.9577   -7.4620   21.1049 C   0  0  0  0  0  0  0  0  0  0  0  0
   15.1028   -7.7483   19.7465 C   0  0  0  0  0  0  0  0  0  0  0  0
   13.7236   -6.3510   22.8989 O   0  0  0  0  0  0  0  0  0  0  0  0
   14.7691   -6.4688   23.8543 C   0  0  0  0  0  0  0  0  0  0  0  0
   12.2266   -5.9205   18.3069 O   0  0  0  0  0  0  0  0  0  0  0  0
   11.5385   -4.6906   18.4897 C   0  0  0  0  0  0  0  0  0  0  0  0
  1  2  2  0  0  0
  2  3  1  0  0  0
  3  4  2  0  0  0
  4  5  1  0  0  0
  5  6  2  0  0  0
  3  7  1  0  0  0
  7  9  1  0  0  0
  9 10  2  0  0  0
 10 11  1  0  0  0
 11 12  2  0  0  0
 11 13  1  0  0  0
 13 14  2  0  0  0
 10 15  1  0  0  0
 15 17  1  0  0  0
 17 19  1  0  0  0
 19 20  1  0  0  0
 19 21  1  0  0  0
 19 22  1  0  0  0
 17 18  1  0  0  0
  1 23  1  0  0  0
 23 25  1  0  0  0
 25 26  2  0  0  0
 26 27  1  0  0  0
 27 28  2  0  0  0
 28 29  1  0  0  0
 29 30  2  0  0  0
 28 31  1  0  0  0
 31 32  1  0  0  0
 26 33  1  0  0  0
 33 34  1  0  0  0
  6  1  1  0  0  0
 13  9  1  0  0  0
 30 25  1  0  0  0
  7  8  1  0  0  0
 15 16  1  0  0  0
 23 24  1  0  0  0
M  END
>  <minimizedAffinity>
-5.31914

>  <minimizedRMSD>
1.15965

$$$$
CHEMBL1532246 19890931 ChemDiv-D144-0754 LN00377876 MCULE-4038347561 MolPort-000-685-901 PubChem-4913899 ZINC000019890931 ZINC19890931


 32 35  0  0  0  0  0  0  0  0999 V2000
   14.8127   -5.0257   23.7373 C   0  0  0  0  0  0  0  0  0  0  0  0
   15.2923   -6.1090   22.9799 C   0  0  0  0  0  0  0  0  0  0  0  0
   16.3760   -6.9920   23.5224 C   0  0  0  0  0  0  0  0  0  0  0  0
   14.7465   -6.3463   21.7077 C   0  0  0  0  0  0  0  0  0  0  0  0
   15.1870   -7.4078   20.9045 C   0  0  0  0  0  0  0  0  0  0  0  0
   14.6295   -7.6142   19.6428 C   0  0  0  0  0  0  0  0  0  0  0  0
   13.6106   -6.7754   19.1761 C   0  0  0  0  0  0  0  0  0  0  0  0
   13.0725   -7.0046   17.9077 O   0  0  0  0  0  0  0  0  0  0  0  0
   13.3891   -8.1892   17.1731 C   0  0  0  0  0  0  0  0  0  0  0  0
   14.7912   -8.5815   17.3628 N   0  0  0  0  0  0  0  0  0  0  0  0
   15.0908   -8.7655   18.7926 C   0  0  0  0  0  0  0  0  0  0  0  0
   13.1626   -5.7047   19.9644 C   0  0  0  0  0  0  0  0  0  0  0  0
   12.0864   -4.8029   19.4548 C   0  0  0  0  0  0  0  0  0  0  0  0
   13.7281   -5.4875   21.2331 C   0  0  0  0  0  0  0  0  0  0  0  0
   13.3057   -4.4760   21.9866 O   0  0  0  0  0  0  0  0  0  0  0  0
   13.7983   -4.2188   23.1936 C   0  0  0  0  0  0  0  0  0  0  0  0
   13.3452   -3.2400   23.8450 O   0  0  0  0  0  0  0  0  0  0  0  0
   15.3501   -4.7417   25.1109 C   0  0  0  0  0  0  0  0  0  0  0  0
   14.6669   -5.5929   26.1266 C   0  0  0  0  0  0  0  0  0  0  0  0
   15.3544   -6.3173   26.8958 O   0  0  0  0  0  0  0  0  0  0  0  0
   12.5771   -5.1275   27.3374 C   0  0  0  0  0  0  0  0  0  0  0  0
   13.2734   -5.5988   26.1938 O   0  0  0  0  0  0  0  0  0  0  0  0
   15.6637   -7.5543   16.7993 C   0  0  0  0  0  0  0  0  0  0  0  0
   17.0158   -8.1471   16.4231 C   0  0  0  0  0  0  0  0  0  0  0  0
   16.9814   -8.7680   15.0654 C   0  0  0  0  0  0  0  0  0  0  0  0
   17.9372   -9.7196   14.6883 C   0  0  0  0  0  0  0  0  0  0  0  0
   17.9030  -10.2797   13.4082 C   0  0  0  0  0  0  0  0  0  0  0  0
   16.9192   -9.8908   12.4930 C   0  0  0  0  0  0  0  0  0  0  0  0
   15.9676   -8.9291   12.8711 C   0  0  0  0  0  0  0  0  0  0  0  0
   16.0017   -8.3692   14.1512 C   0  0  0  0  0  0  0  0  0  0  0  0
   16.9113  -10.4700   11.2212 O   0  0  0  0  0  0  0  0  0  0  0  0
   15.9705  -10.1089   10.2193 C   0  0  0  0  0  0  0  0  0  0  0  0
 21 22  1  0  0  0
 22 19  1  0  0  0
 19 20  2  0  0  0
 19 18  1  0  0  0
 18  1  1  0  0  0
  1  2  2  0  0  0
  2  3  1  0  0  0
  2  4  1  0  0  0
  4  5  2  0  0  0
  5  6  1  0  0  0
  6  7  2  0  0  0
  7  8  1  0  0  0
  7 12  1  0  0  0
  8  9  1  0  0  0
  9 10  1  0  0  0
 10 23  1  0  0  0
 10 11  1  0  0  0
 23 24  1  0  0  0
 24 25  1  0  0  0
 25 26  2  0  0  0
 26 27  1  0  0  0
 27 28  2  0  0  0
 28 31  1  0  0  0
 28 29  1  0  0  0
 31 32  1  0  0  0
 29 30  2  0  0  0
 30 25  1  0  0  0
 11  6  1  0  0  0
 12 13  1  0  0  0
 12 14  2  0  0  0
 14 15  1  0  0  0
 14  4  1  0  0  0
 15 16  1  0  0  0
 16 17  2  0  0  0
 16  1  1  0  0  0
M  END
>  <minimizedAffinity>
-5.30937

>  <minimizedRMSD>
1.77221

$$$$
CHEMBL3208240 PubChem-5856155


 33 35  0  0  0  0  0  0  0  0999 V2000
   15.3069   -7.7344   16.0263 N   0  0  0  0  0  0  0  0  0  0  0  0
   15.7041   -9.0565   15.6606 C   0  0  0  0  0  0  0  0  0  0  0  0
   15.5102  -10.0119   16.4614 O   0  0  0  0  0  0  0  0  0  0  0  0
   15.4436   -6.9941   15.3919 H   0  0  0  0  0  0  0  0  0  0  0  0
   16.3261   -9.3066   14.3487 C   0  0  0  0  0  0  0  0  0  0  0  0
   15.6562   -8.9547   13.1678 C   0  0  0  0  0  0  0  0  0  0  0  0
   16.2476   -9.1889   11.9233 C   0  0  0  0  0  0  0  0  0  0  0  0
   17.5120   -9.7813   11.8490 C   0  0  0  0  0  0  0  0  0  0  0  0
   18.1844  -10.1368   13.0221 C   0  0  0  0  0  0  0  0  0  0  0  0
   17.5944   -9.8991   14.2668 C   0  0  0  0  0  0  0  0  0  0  0  0
   18.1491  -10.0172   10.5237 C   0  0  0  0  0  0  0  0  0  0  0  0
   16.9173   -9.9021    9.1888 S   0  0  0  0  0  0  0  0  0  0  0  0
   17.9977   -8.9288    8.1409 C   0  0  0  0  0  0  0  0  0  0  0  0
   18.1214   -9.1153    6.8157 N   0  0  0  0  0  0  0  0  0  0  0  0
   18.9958   -8.2141    6.3878 N   0  0  0  0  0  0  0  0  0  0  0  0
   19.3950   -7.4843    7.4520 C   0  0  0  0  0  0  0  0  0  0  0  0
   18.7776   -7.9210    8.5620 N   0  0  0  0  0  0  0  0  0  0  0  0
   18.9093   -7.3828    9.9042 C   0  0  0  0  0  0  0  0  0  0  0  0
   15.3987   -7.5579   18.3833 C   0  0  0  0  0  0  0  0  0  0  0  0
   16.8493   -7.9343   18.3603 C   0  0  0  0  0  0  0  0  0  0  0  0
   14.7251   -7.4749   17.2755 N   0  0  0  0  0  0  0  0  0  0  0  0
   14.6943   -7.3863   22.1107 C   0  0  0  0  0  0  0  0  0  0  0  0
   15.3161   -7.6536   20.8809 C   0  0  0  0  0  0  0  0  0  0  0  0
   14.7292   -7.2718   19.6707 C   0  0  0  0  0  0  0  0  0  0  0  0
   13.4966   -6.6124   19.6975 C   0  0  0  0  0  0  0  0  0  0  0  0
   12.8516   -6.3349   20.9109 C   0  0  0  0  0  0  0  0  0  0  0  0
   13.4436   -6.7181   22.1260 C   0  0  0  0  0  0  0  0  0  0  0  0
   16.3070   -7.0011   23.9561 C   0  0  0  0  0  0  0  0  0  0  0  0
   15.3094   -7.7780   23.3055 O   0  0  0  0  0  0  0  0  0  0  0  0
   11.6150   -5.6793   20.9333 O   0  0  0  0  0  0  0  0  0  0  0  0
   11.0899   -4.9851   19.8088 C   0  0  0  0  0  0  0  0  0  0  0  0
   12.7478   -6.4101   23.3073 O   0  0  0  0  0  0  0  0  0  0  0  0
   12.9615   -5.2526   24.1015 C   0  0  0  0  0  0  0  0  0  0  0  0
 28 29  1  0  0  0
 29 22  1  0  0  0
 22 23  2  0  0  0
 23 24  1  0  0  0
 24 19  1  0  0  0
 24 25  2  0  0  0
 19 20  1  0  0  0
 19 21  2  0  0  0
 21  1  1  0  0  0
  1  2  1  0  0  0
  2  3  2  0  0  0
  2  5  1  0  0  0
  5  6  2  0  0  0
  6  7  1  0  0  0
  7  8  2  0  0  0
  8 11  1  0  0  0
  8  9  1  0  0  0
 11 12  1  0  0  0
 12 13  1  0  0  0
 13 14  2  0  0  0
 14 15  1  0  0  0
 15 16  2  0  0  0
 16 17  1  0  0  0
 17 18  1  0  0  0
 17 13  1  0  0  0
  9 10  2  0  0  0
 10  5  1  0  0  0
 25 26  1  0  0  0
 26 30  1  0  0  0
 26 27  2  0  0  0
 30 31  1  0  0  0
 27 32  1  0  0  0
 27 22  1  0  0  0
 32 33  1  0  0  0
  1  4  1  0  0  0
M  END
>  <minimizedAffinity>
-5.30103

>  <minimizedRMSD>
1.97259

$$$$
CHEMBL5004360 PubChem-93297065 ZINC000037357095


 32 35  0  0  0  0  0  0  0  0999 V2000
   16.8343   -6.5662   15.5434 C   0  0  0  0  0  0  0  0  0  0  0  0
   15.6547   -7.4244   15.9702 C   0  0  0  0  0  0  0  0  0  0  0  0
   15.3179   -8.4659   14.8961 C   0  0  0  0  0  0  0  0  0  0  0  0
   16.2890   -9.5521   14.9391 N   0  0  0  0  0  0  0  0  0  0  0  0
   16.5060  -10.1948   16.2258 C   0  0  0  0  0  0  0  0  0  0  0  0
   16.8722   -9.1267   17.2570 C   0  0  0  0  0  0  0  0  0  0  0  0
   15.8973   -8.0213   17.2962 N   0  0  0  0  0  0  0  0  0  0  0  0
   17.0516   -9.9334   13.7828 C   0  0  0  0  0  0  0  0  0  0  0  0
   16.6138   -9.5997   12.4958 C   0  0  0  0  0  0  0  0  0  0  0  0
   17.3820   -9.9844   11.3976 C   0  0  0  0  0  0  0  0  0  0  0  0
   18.5358  -10.6774   11.5998 N   0  0  0  0  0  0  0  0  0  0  0  0
   18.9524  -10.9970   12.8521 C   0  0  0  0  0  0  0  0  0  0  0  0
   18.2142  -10.6259   13.9298 N   0  0  0  0  0  0  0  0  0  0  0  0
   16.9326   -9.6494   10.1113 O   0  0  0  0  0  0  0  0  0  0  0  0
   17.6712   -9.0119    9.1016 C   0  0  0  0  0  0  0  0  0  0  0  0
   18.6445   -8.0353    9.3720 C   0  0  0  0  0  0  0  0  0  0  0  0
   19.3479   -7.4264    8.3290 C   0  0  0  0  0  0  0  0  0  0  0  0
   19.0837   -7.7875    7.0057 C   0  0  0  0  0  0  0  0  0  0  0  0
   18.1162   -8.7558    6.7265 C   0  0  0  0  0  0  0  0  0  0  0  0
   17.4137   -9.3635    7.7713 C   0  0  0  0  0  0  0  0  0  0  0  0
   19.9636   -7.0261    5.6983 Cl  0  0  0  0  0  0  0  0  0  0  0  0
   14.6319   -8.4940   17.8521 C   0  0  0  0  0  0  0  0  0  0  0  0
   14.1849   -7.5996   18.9631 C   0  0  0  0  0  0  0  0  0  0  0  0
   12.9976   -6.8514   18.8661 C   0  0  0  0  0  0  0  0  0  0  0  0
   12.6164   -6.0282   19.9384 C   0  0  0  0  0  0  0  0  0  0  0  0
   13.4023   -5.9516   21.0986 C   0  0  0  0  0  0  0  0  0  0  0  0
   14.5748   -6.7064   21.1832 C   0  0  0  0  0  0  0  0  0  0  0  0
   14.9634   -7.5270   20.1221 C   0  0  0  0  0  0  0  0  0  0  0  0
   13.0413   -5.1385   22.1763 O   0  0  0  0  0  0  0  0  0  0  0  0
   13.0982   -3.7197   22.1200 C   0  0  0  0  0  0  0  0  0  0  0  0
   12.2152   -6.9383   17.7084 O   0  0  0  0  0  0  0  0  0  0  0  0
   10.8861   -7.4409   17.7133 C   0  0  0  0  0  0  0  0  0  0  0  0
  2  1  1  0  0  0
  2  3  1  0  0  0
  3  4  1  0  0  0
  4  5  1  0  0  0
  5  6  1  0  0  0
  6  7  1  0  0  0
  7 22  1  0  0  0
 22 23  1  0  0  0
 23 24  2  0  0  0
 24 25  1  0  0  0
 25 26  2  0  0  0
 26 27  1  0  0  0
 27 28  2  0  0  0
 26 29  1  0  0  0
 29 30  1  0  0  0
 24 31  1  0  0  0
 31 32  1  0  0  0
  4  8  1  0  0  0
  8  9  2  0  0  0
  9 10  1  0  0  0
 10 11  2  0  0  0
 11 12  1  0  0  0
 12 13  2  0  0  0
 10 14  1  0  0  0
 14 15  1  0  0  0
 15 16  2  0  0  0
 16 17  1  0  0  0
 17 18  2  0  0  0
 18 19  1  0  0  0
 19 20  2  0  0  0
 18 21  1  0  0  0
  7  2  1  0  0  0
 28 23  1  0  0  0
 13  8  1  0  0  0
 20 15  1  0  0  0
M  END
>  <minimizedAffinity>
-5.27813

>  <minimizedRMSD>
1.62511

$$$$
CHEMBL3344412 PubChem-118717770


 36 39  0  0  0  0  0  0  0  0999 V2000
   16.9009   -9.3412   16.7082 N   0  0  0  0  0  0  0  0  0  0  0  0
   16.3736   -8.8561   17.7904 O   0  0  0  0  0  0  0  0  0  0  0  0
   15.2576   -8.2282   17.5041 C   0  0  0  0  0  0  0  0  0  0  0  0
   14.9956   -8.2749   16.1813 N   0  0  0  0  0  0  0  0  0  0  0  0
   16.0507   -8.9826   15.7278 C   0  0  0  0  0  0  0  0  0  0  0  0
   16.2512   -9.3076   14.3478 N   0  0  0  0  0  0  0  0  0  0  0  0
   17.5998   -9.3234   13.7843 C   0  0  0  0  0  0  0  0  0  0  0  0
   17.5869   -8.6750   12.4040 C   0  0  0  0  0  0  0  0  0  0  0  0
   16.5005   -9.2453   11.6118 N   0  0  0  0  0  0  0  0  0  0  0  0
   15.1509   -9.1965   12.1671 C   0  0  0  0  0  0  0  0  0  0  0  0
   15.1478   -9.8406   13.5505 C   0  0  0  0  0  0  0  0  0  0  0  0
   16.7491   -9.8661   10.3421 C   0  0  0  0  0  0  0  0  0  0  0  0
   15.7914  -10.3614    9.6868 O   0  0  0  0  0  0  0  0  0  0  0  0
   18.1466   -9.9373    9.7910 C   0  0  0  0  0  0  0  0  0  0  0  0
   18.9674   -8.6783   10.0949 C   0  0  0  0  0  0  0  0  0  0  0  0
   18.5735   -7.5124    9.1883 C   0  0  0  0  0  0  0  0  0  0  0  0
   18.7030   -7.9143    7.7233 C   0  0  0  0  0  0  0  0  0  0  0  0
   17.7905   -9.0990    7.4265 C   0  0  0  0  0  0  0  0  0  0  0  0
   18.1726  -10.2934    8.3001 C   0  0  0  0  0  0  0  0  0  0  0  0
   14.3852   -7.5498   18.4882 C   0  0  0  0  0  0  0  0  0  0  0  0
   13.0257   -7.4055   18.1752 C   0  0  0  0  0  0  0  0  0  0  0  0
   12.1462   -6.7754   19.0573 C   0  0  0  0  0  0  0  0  0  0  0  0
   12.6128   -6.2740   20.2757 C   0  0  0  0  0  0  0  0  0  0  0  0
   13.9695   -6.4144   20.5996 C   0  0  0  0  0  0  0  0  0  0  0  0
   14.8576   -7.0438   19.7224 C   0  0  0  0  0  0  0  0  0  0  0  0
   16.5357   -7.1611   20.2330 Cl  0  0  0  0  0  0  0  0  0  0  0  0
   10.8381   -6.6525   18.7234 F   0  0  0  0  0  0  0  0  0  0  0  0
   11.7143   -5.6463   21.1471 O   0  0  0  0  0  0  0  0  0  0  0  0
   11.9227   -5.5581   22.5536 C   0  0  0  0  0  0  0  0  0  0  0  0
   12.0338   -4.1030   22.9875 C   0  0  0  0  0  0  0  0  0  0  0  0
   11.1637   -3.8496   24.1239 N   0  0  0  0  0  0  0  0  0  0  0  0
   11.4490   -4.4362   24.9081 H   0  0  0  0  0  0  0  0  0  0  0  0
   10.2001   -4.0671   23.8696 H   0  0  0  0  0  0  0  0  0  0  0  0
   13.4733   -3.7542   23.3387 C   0  0  0  0  0  0  0  0  0  0  0  0
   13.5985   -3.4725   24.7012 O   0  0  0  0  0  0  0  0  0  0  0  0
   13.0382   -2.7136   24.9273 H   0  0  0  0  0  0  0  0  0  0  0  0
  1  2  1  0  0  0
  2  3  1  0  0  0
  3  4  2  0  0  0
  4  5  1  0  0  0
  5  6  1  0  0  0
  6  7  1  0  0  0
  7  8  1  0  0  0
  8  9  1  0  0  0
  9 10  1  0  0  0
 10 11  1  0  0  0
  9 12  1  0  0  0
 12 13  2  0  0  0
 12 14  1  0  0  0
 14 15  1  0  0  0
 15 16  1  0  0  0
 16 17  1  0  0  0
 17 18  1  0  0  0
 18 19  1  0  0  0
  3 20  1  0  0  0
 20 21  2  0  0  0
 21 22  1  0  0  0
 22 23  2  0  0  0
 23 24  1  0  0  0
 24 25  2  0  0  0
 25 26  1  0  0  0
 23 28  1  0  0  0
 28 29  1  0  0  0
 29 30  1  0  0  0
 30 34  1  0  0  0
 34 35  1  0  0  0
 30 31  1  0  0  0
 22 27  1  0  0  0
  5  1  2  0  0  0
 11  6  1  0  0  0
 19 14  1  0  0  0
 25 20  1  0  0  0
 35 36  1  0  0  0
 31 32  1  0  0  0
 31 33  1  0  0  0
M  END
>  <minimizedAffinity>
-5.27072

>  <minimizedRMSD>
1.79838

$$$$
CHEMBL3126592 LN01344218 MCULE-4803260729 MCULE-7206589915 PubChem-25074253 PubChem-87668682


 39 41  0  0  0  0  0  0  0  0999 V2000
   14.4785   -6.9645   20.7018 C   0  0  0  0  0  0  0  0  0  0  0  0
   15.1665   -7.6035   19.6625 C   0  0  0  0  0  0  0  0  0  0  0  0
   14.6524   -7.6238   18.3637 C   0  0  0  0  0  0  0  0  0  0  0  0
   13.4289   -7.0029   18.1032 C   0  0  0  0  0  0  0  0  0  0  0  0
   12.7288   -6.3564   19.1230 C   0  0  0  0  0  0  0  0  0  0  0  0
   11.4319   -5.7012   18.7925 C   0  0  0  0  0  0  0  0  0  0  0  0
   13.2478   -6.3086   20.4300 C   0  0  0  0  0  0  0  0  0  0  0  0
   15.3878   -8.2996   17.2836 C   0  0  0  0  0  0  0  0  0  0  0  0
   16.5714   -8.9213   17.4578 N   0  0  0  0  0  0  0  0  0  0  0  0
   16.8825   -9.3813   16.2849 O   0  0  0  0  0  0  0  0  0  0  0  0
   15.9461   -9.0653   15.4237 C   0  0  0  0  0  0  0  0  0  0  0  0
   14.9525   -8.3658   16.0070 N   0  0  0  0  0  0  0  0  0  0  0  0
   15.9755   -9.4283   14.0005 C   0  0  0  0  0  0  0  0  0  0  0  0
   14.7876   -9.6777   13.3068 C   0  0  0  0  0  0  0  0  0  0  0  0
   14.8418  -10.0206   11.9555 C   0  0  0  0  0  0  0  0  0  0  0  0
   13.5863  -10.2874   11.2070 C   0  0  0  0  0  0  0  0  0  0  0  0
   16.0418  -10.1108   11.3226 N   0  0  0  0  0  0  0  0  0  0  0  0
   17.2198   -9.8761   11.9682 C   0  0  0  0  0  0  0  0  0  0  0  0
   17.1963   -9.5274   13.3270 C   0  0  0  0  0  0  0  0  0  0  0  0
   18.4681   -9.9814   11.2551 N   0  0  0  0  0  0  0  0  0  0  0  0
   19.5075  -10.9169   11.6691 C   0  0  0  0  0  0  0  0  0  0  0  0
   19.0784  -11.6566   12.9231 C   0  0  0  0  0  0  0  0  0  0  0  0
   18.8058   -9.0320   10.2025 C   0  0  0  0  0  0  0  0  0  0  0  0
   17.9130   -9.2489    8.9943 C   0  0  0  0  0  0  0  0  0  0  0  0
   14.6810   -8.3029   22.7801 C   0  0  0  0  0  0  0  0  0  0  0  0
   15.0797   -7.0220   22.0700 C   0  0  0  0  0  0  0  0  0  0  0  0
   12.5013   -5.6203   21.4050 O   0  0  0  0  0  0  0  0  0  0  0  0
   12.9609   -5.2894   22.7106 C   0  0  0  0  0  0  0  0  0  0  0  0
   13.9322   -4.1244   22.6460 C   0  0  0  0  0  0  0  0  0  0  0  0
   13.4217   -3.1309   21.8094 O   0  0  0  0  0  0  0  0  0  0  0  0
   12.5722   -2.8192   22.1587 H   0  0  0  0  0  0  0  0  0  0  0  0
   14.1431   -3.5639   24.0415 C   0  0  0  0  0  0  0  0  0  0  0  0
   15.5202   -3.1196   24.2093 N   0  0  0  0  0  0  0  0  0  0  0  0
   16.5660   -3.9891   24.6496 C   0  0  0  0  0  0  0  0  0  0  0  0
   16.3248   -5.1928   24.9336 O   0  0  0  0  0  0  0  0  0  0  0  0
   15.7399   -2.1806   24.0111 H   0  0  0  0  0  0  0  0  0  0  0  0
   17.9582   -3.4761   24.7420 C   0  0  0  0  0  0  0  0  0  0  0  0
   18.3632   -2.9948   23.4975 O   0  0  0  0  0  0  0  0  0  0  0  0
   18.3278   -3.7127   22.8461 H   0  0  0  0  0  0  0  0  0  0  0  0
 25 26  1  0  0  0
 26  1  1  0  0  0
  1  2  2  0  0  0
  2  3  1  0  0  0
  3  8  1  0  0  0
  3  4  2  0  0  0
  8  9  2  0  0  0
  9 10  1  0  0  0
 10 11  1  0  0  0
 11 13  1  0  0  0
 11 12  2  0  0  0
 13 14  2  0  0  0
 14 15  1  0  0  0
 15 16  1  0  0  0
 15 17  2  0  0  0
 17 18  1  0  0  0
 18 20  1  0  0  0
 18 19  2  0  0  0
 20 21  1  0  0  0
 20 23  1  0  0  0
 21 22  1  0  0  0
 23 24  1  0  0  0
 19 13  1  0  0  0
 12  8  1  0  0  0
  4  5  1  0  0  0
  5  6  1  0  0  0
  5  7  2  0  0  0
  7 27  1  0  0  0
  7  1  1  0  0  0
 27 28  1  0  0  0
 29 28  1  0  0  0
 29 30  1  0  0  0
 29 32  1  0  0  0
 32 33  1  0  0  0
 33 34  1  0  0  0
 34 35  2  0  0  0
 34 37  1  0  0  0
 37 38  1  0  0  0
 30 31  1  0  0  0
 33 36  1  0  0  0
 38 39  1  0  0  0
M  END
>  <minimizedAffinity>
-5.26056

>  <minimizedRMSD>
1.97151

$$$$
CHEMBL4639114


 38 41  0  0  0  0  0  0  0  0999 V2000
   18.3903   -9.5067   14.2670 C   0  0  0  0  0  0  0  0  0  0  0  0
   17.5271  -10.4799   13.5810 N   0  0  0  0  0  0  0  0  0  0  0  0
   17.1493  -11.5580   14.5093 C   0  0  0  0  0  0  0  0  0  0  0  0
   16.3801  -11.0288   15.7358 C   0  0  0  0  0  0  0  0  0  0  0  0
   17.1420   -9.9099   16.4525 C   0  0  0  0  0  0  0  0  0  0  0  0
   17.6932   -8.8616   15.4813 C   0  0  0  0  0  0  0  0  0  0  0  0
   18.4048  -12.3518   14.9001 C   0  0  0  0  0  0  0  0  0  0  0  0
   19.4928  -11.4447   15.4897 C   0  0  0  0  0  0  0  0  0  0  0  0
   19.7164  -10.1842   14.6435 C   0  0  0  0  0  0  0  0  0  0  0  0
   16.3085   -9.2840   17.4734 N   0  0  0  0  0  0  0  0  0  0  0  0
   15.4448   -8.1634   17.2376 C   0  0  0  0  0  0  0  0  0  0  0  0
   15.3596   -7.6622   16.0828 O   0  0  0  0  0  0  0  0  0  0  0  0
   16.3411   -9.6555   18.3846 H   0  0  0  0  0  0  0  0  0  0  0  0
   14.6574   -7.5957   18.3453 C   0  0  0  0  0  0  0  0  0  0  0  0
   13.3092   -7.2785   18.1662 C   0  0  0  0  0  0  0  0  0  0  0  0
   12.5527   -6.7342   19.2138 C   0  0  0  0  0  0  0  0  0  0  0  0
   13.1488   -6.4999   20.4647 C   0  0  0  0  0  0  0  0  0  0  0  0
   14.5170   -6.8219   20.6551 C   0  0  0  0  0  0  0  0  0  0  0  0
   15.2505   -7.3650   19.5885 C   0  0  0  0  0  0  0  0  0  0  0  0
   15.1370   -6.6051   21.8912 O   0  0  0  0  0  0  0  0  0  0  0  0
   16.5479   -6.5290   22.0481 C   0  0  0  0  0  0  0  0  0  0  0  0
   12.3377   -5.9504   21.4722 O   0  0  0  0  0  0  0  0  0  0  0  0
   12.2628   -4.5696   21.7971 C   0  0  0  0  0  0  0  0  0  0  0  0
   11.2017   -6.4156   19.0339 O   0  0  0  0  0  0  0  0  0  0  0  0
   10.2634   -7.3249   18.4749 C   0  0  0  0  0  0  0  0  0  0  0  0
   16.3423   -9.8199   13.0359 C   0  0  0  0  0  0  0  0  0  0  0  0
   16.4868   -9.6518   11.5642 C   0  0  0  0  0  0  0  0  0  0  0  0
   15.5853  -10.0879   10.8007 O   0  0  0  0  0  0  0  0  0  0  0  0
   17.6643   -9.0225   11.0439 N   0  0  0  0  0  0  0  0  0  0  0  0
   18.3145   -8.6908   11.7045 H   0  0  0  0  0  0  0  0  0  0  0  0
   17.9968   -8.8244    9.6601 C   0  0  0  0  0  0  0  0  0  0  0  0
   19.1655   -8.1178    9.3195 C   0  0  0  0  0  0  0  0  0  0  0  0
   19.5017   -7.9234    7.9759 C   0  0  0  0  0  0  0  0  0  0  0  0
   18.6821   -8.4289    6.9646 C   0  0  0  0  0  0  0  0  0  0  0  0
   17.5215   -9.1314    7.2940 C   0  0  0  0  0  0  0  0  0  0  0  0
   17.1815   -9.3281    8.6343 C   0  0  0  0  0  0  0  0  0  0  0  0
   16.6483   -9.6702    6.2194 C   0  0  0  0  0  0  0  0  0  0  0  0
   20.0644   -7.5641   10.3714 C   0  0  0  0  0  0  0  0  0  0  0  0
  1  2  1  0  0  0
  2  3  1  0  0  0
  3  4  1  0  0  0
  4  5  1  0  0  0
  5  6  1  0  0  0
  5 10  1  0  0  0
 10 11  1  0  0  0
 11 12  2  0  0  0
 11 14  1  0  0  0
 14 15  2  0  0  0
 15 16  1  0  0  0
 16 17  2  0  0  0
 17 18  1  0  0  0
 18 19  2  0  0  0
 18 20  1  0  0  0
 20 21  1  0  0  0
 17 22  1  0  0  0
 22 23  1  0  0  0
 16 24  1  0  0  0
 24 25  1  0  0  0
  3  7  1  0  0  0
  7  8  1  0  0  0
  8  9  1  0  0  0
  2 26  1  0  0  0
 26 27  1  0  0  0
 27 28  2  0  0  0
 27 29  1  0  0  0
 29 31  1  0  0  0
 31 32  2  0  0  0
 32 33  1  0  0  0
 33 34  2  0  0  0
 34 35  1  0  0  0
 35 36  2  0  0  0
 35 37  1  0  0  0
 32 38  1  0  0  0
  1  6  1  0  0  0
 19 14  1  0  0  0
 36 31  1  0  0  0
  9  1  1  0  0  0
 10 13  1  0  0  0
 29 30  1  0  0  0
M  END
>  <minimizedAffinity>
-5.24861

>  <minimizedRMSD>
1.81763

$$$$
CHEMBL4568319 PubChem-135335200


 35 39  0  0  0  0  0  0  0  0999 V2000
   16.4893   -9.2286   15.5515 C   0  0  0  0  0  0  0  0  0  0  0  0
   15.3994   -8.3754   15.8285 C   0  0  0  0  0  0  0  0  0  0  0  0
   15.1351   -8.0627   17.1588 C   0  0  0  0  0  0  0  0  0  0  0  0
   14.1431   -7.2706   17.5994 N   0  0  0  0  0  0  0  0  0  0  0  0
   14.3106   -7.2850   18.9470 C   0  0  0  0  0  0  0  0  0  0  0  0
   15.3978   -8.0828   19.3003 C   0  0  0  0  0  0  0  0  0  0  0  0
   15.8916   -8.5554   18.1482 N   0  0  0  0  0  0  0  0  0  0  0  0
   16.9490   -9.3767   17.9450 C   0  0  0  0  0  0  0  0  0  0  0  0
   17.2649   -9.7278   16.6252 C   0  0  0  0  0  0  0  0  0  0  0  0
   13.4307   -6.5372   19.8770 C   0  0  0  0  0  0  0  0  0  0  0  0
   12.1063   -6.2982   19.4836 C   0  0  0  0  0  0  0  0  0  0  0  0
   11.2216   -5.6013   20.3073 C   0  0  0  0  0  0  0  0  0  0  0  0
   11.6492   -5.1257   21.5523 C   0  0  0  0  0  0  0  0  0  0  0  0
   12.9713   -5.3590   21.9553 C   0  0  0  0  0  0  0  0  0  0  0  0
   13.8699   -6.0594   21.1338 C   0  0  0  0  0  0  0  0  0  0  0  0
    9.5770   -5.3350   19.7575 Cl  0  0  0  0  0  0  0  0  0  0  0  0
   15.1862   -6.2811   21.5567 O   0  0  0  0  0  0  0  0  0  0  0  0
   15.5977   -6.1441   22.9103 C   0  0  0  0  0  0  0  0  0  0  0  0
   10.7539   -4.4279   22.3707 O   0  0  0  0  0  0  0  0  0  0  0  0
   11.0099   -4.1670   23.7441 C   0  0  0  0  0  0  0  0  0  0  0  0
   17.5948   -9.3621   11.5315 N   0  0  0  0  0  0  0  0  0  0  0  0
   18.3006  -10.3410   12.3591 C   0  0  0  0  0  0  0  0  0  0  0  0
   18.1854   -9.9595   13.8341 C   0  0  0  0  0  0  0  0  0  0  0  0
   16.8108   -9.5838   14.1923 N   0  0  0  0  0  0  0  0  0  0  0  0
   15.7602   -9.6146   13.1713 C   0  0  0  0  0  0  0  0  0  0  0  0
   16.2451   -8.9213   11.8998 C   0  0  0  0  0  0  0  0  0  0  0  0
   18.0134   -8.2878    8.0336 C   0  0  0  0  0  0  0  0  0  0  0  0
   17.4600   -8.7486    9.1883 N   0  0  0  0  0  0  0  0  0  0  0  0
   18.2004   -8.8762   10.3243 C   0  0  0  0  0  0  0  0  0  0  0  0
   19.5188   -8.5354   10.3061 N   0  0  0  0  0  0  0  0  0  0  0  0
   20.1079   -8.0717    9.1735 C   0  0  0  0  0  0  0  0  0  0  0  0
   19.3619   -7.9373    8.0046 C   0  0  0  0  0  0  0  0  0  0  0  0
   16.1379   -7.2023    6.7447 C   0  0  0  0  0  0  0  0  0  0  0  0
   17.2268   -8.1589    6.8492 N   0  0  0  0  0  0  0  0  0  0  0  0
   17.4287   -8.7368    6.0782 H   0  0  0  0  0  0  0  0  0  0  0  0
 33 34  1  0  0  0
 34 27  1  0  0  0
 27 28  2  0  0  0
 28 29  1  0  0  0
 29 30  2  0  0  0
 30 31  1  0  0  0
 31 32  2  0  0  0
 29 21  1  0  0  0
 21 22  1  0  0  0
 22 23  1  0  0  0
 23 24  1  0  0  0
 24 25  1  0  0  0
 25 26  1  0  0  0
 24  1  1  0  0  0
  1  2  2  0  0  0
  2  3  1  0  0  0
  3  4  2  0  0  0
  4  5  1  0  0  0
  5  6  2  0  0  0
  6  7  1  0  0  0
  7  8  1  0  0  0
  8  9  2  0  0  0
  5 10  1  0  0  0
 10 11  2  0  0  0
 11 12  1  0  0  0
 12 13  2  0  0  0
 13 14  1  0  0  0
 14 15  2  0  0  0
 15 17  1  0  0  0
 17 18  1  0  0  0
 13 19  1  0  0  0
 19 20  1  0  0  0
 12 16  1  0  0  0
 32 27  1  0  0  0
 26 21  1  0  0  0
  9  1  1  0  0  0
  7  3  1  0  0  0
 15 10  1  0  0  0
 34 35  1  0  0  0
M  END
>  <minimizedAffinity>
-5.21662

>  <minimizedRMSD>
1.85563

$$$$
CHEMBL3799560 PubChem-58280028


 34 36  0  0  0  0  0  0  0  0999 V2000
   17.2367   -9.5762   15.2568 N   0  0  0  0  0  0  0  0  0  0  0  0
   16.7120   -8.7331   14.3204 C   0  0  0  0  0  0  0  0  0  0  0  0
   15.8695   -7.6956   14.7109 C   0  0  0  0  0  0  0  0  0  0  0  0
   15.5740   -7.5330   16.0243 N   0  0  0  0  0  0  0  0  0  0  0  0
   16.0841   -8.3625   16.9738 C   0  0  0  0  0  0  0  0  0  0  0  0
   16.9335   -9.4084   16.5812 C   0  0  0  0  0  0  0  0  0  0  0  0
   17.4131  -10.1872   17.4514 O   0  0  0  0  0  0  0  0  0  0  0  0
   15.1971   -6.6081   13.5165 Cl  0  0  0  0  0  0  0  0  0  0  0  0
   15.7640   -8.1863   18.3629 N   0  0  0  0  0  0  0  0  0  0  0  0
   16.4215   -8.5327   19.0085 H   0  0  0  0  0  0  0  0  0  0  0  0
   14.5945   -7.5626   18.9191 C   0  0  0  0  0  0  0  0  0  0  0  0
   14.6531   -6.9759   20.1901 C   0  0  0  0  0  0  0  0  0  0  0  0
   13.5490   -6.3851   20.7183 N   0  0  0  0  0  0  0  0  0  0  0  0
   12.3558   -6.3275   20.0661 C   0  0  0  0  0  0  0  0  0  0  0  0
   12.2570   -6.9098   18.7773 C   0  0  0  0  0  0  0  0  0  0  0  0
   13.3826   -7.5198   18.2244 C   0  0  0  0  0  0  0  0  0  0  0  0
   11.0108   -6.9143   17.9606 C   0  0  0  0  0  0  0  0  0  0  0  0
   15.9154   -6.9875   20.9828 C   0  0  0  0  0  0  0  0  0  0  0  0
   11.2952   -5.6860   20.7277 O   0  0  0  0  0  0  0  0  0  0  0  0
   11.3439   -4.3916   21.3099 C   0  0  0  0  0  0  0  0  0  0  0  0
   18.1177  -10.6751   14.8438 C   0  0  0  0  0  0  0  0  0  0  0  0
   17.4891  -12.0382   15.1164 C   0  0  0  0  0  0  0  0  0  0  0  0
   18.4348  -12.8728   15.9569 C   0  0  0  0  0  0  0  0  0  0  0  0
   18.3305  -13.1184   14.4672 C   0  0  0  0  0  0  0  0  0  0  0  0
   18.5679  -10.5305   13.3901 C   0  0  0  0  0  0  0  0  0  0  0  0
   17.5291  -10.9036   12.4936 O   0  0  0  0  0  0  0  0  0  0  0  0
   16.1581  -10.5641   10.5126 N   0  0  0  0  0  0  0  0  0  0  0  0
   17.2508  -10.1695   11.3418 C   0  0  0  0  0  0  0  0  0  0  0  0
   17.9557   -9.1695   11.0321 O   0  0  0  0  0  0  0  0  0  0  0  0
   15.6191  -11.3456   10.7736 H   0  0  0  0  0  0  0  0  0  0  0  0
   15.8162   -9.8472    9.2936 C   0  0  0  0  0  0  0  0  0  0  0  0
   16.9474   -9.9609    8.2879 C   0  0  0  0  0  0  0  0  0  0  0  0
   18.3543   -8.7446    6.6557 C   0  0  0  0  0  0  0  0  0  0  0  0
   17.2630   -8.6010    7.6950 C   0  0  0  0  0  0  0  0  0  0  0  0
 33 34  1  0  0  0
 34 32  1  0  0  0
 32 31  1  0  0  0
 31 27  1  0  0  0
 27 28  1  0  0  0
 28 29  2  0  0  0
 28 26  1  0  0  0
 26 25  1  0  0  0
 21 25  1  0  0  0
 21 22  1  0  0  0
 21  1  1  0  0  0
 22 23  1  0  0  0
 23 24  1  0  0  0
 24 22  1  0  0  0
  1  2  1  0  0  0
  2  3  2  0  0  0
  3  4  1  0  0  0
  3  8  1  0  0  0
  4  5  2  0  0  0
  5  6  1  0  0  0
  5  9  1  0  0  0
  6  7  2  0  0  0
  6  1  1  0  0  0
  9 11  1  0  0  0
 11 12  2  0  0  0
 12 13  1  0  0  0
 12 18  1  0  0  0
 13 14  2  0  0  0
 14 15  1  0  0  0
 14 19  1  0  0  0
 15 16  2  0  0  0
 15 17  1  0  0  0
 16 11  1  0  0  0
 19 20  1  0  0  0
 27 30  1  0  0  0
  9 10  1  0  0  0
M  END
>  <minimizedAffinity>
-5.19367

>  <minimizedRMSD>
1.91905

$$$$
CHEMBL3897230 PubChem-89941028


 34 38  0  0  0  0  0  0  0  0999 V2000
   15.9828   -8.5941   16.8009 N   0  0  0  0  0  0  0  0  0  0  0  0
   15.5569   -9.9622   16.5007 C   0  0  0  0  0  0  0  0  0  0  0  0
   15.6894  -10.2764   15.0036 C   0  0  0  0  0  0  0  0  0  0  0  0
   16.5870   -9.2853   14.2457 C   0  0  0  0  0  0  0  0  0  0  0  0
   17.7694   -8.7761   15.0845 C   0  0  0  0  0  0  0  0  0  0  0  0
   17.4330   -8.5914   16.5715 C   0  0  0  0  0  0  0  0  0  0  0  0
   15.7478   -8.1005   13.7490 C   0  0  0  0  0  0  0  0  0  0  0  0
   15.7435   -8.1367   12.2147 C   0  0  0  0  0  0  0  0  0  0  0  0
   16.6389   -9.2103   11.8327 N   0  0  0  0  0  0  0  0  0  0  0  0
   17.0782   -9.8967   12.9911 C   0  0  0  0  0  0  0  0  0  0  0  0
   17.7607  -10.9561   12.9507 O   0  0  0  0  0  0  0  0  0  0  0  0
   16.8380   -9.6193   10.4718 C   0  0  0  0  0  0  0  0  0  0  0  0
   17.8493   -9.2414    9.6938 C   0  0  0  0  0  0  0  0  0  0  0  0
   17.5941   -9.7920    8.3857 C   0  0  0  0  0  0  0  0  0  0  0  0
   18.3229   -9.6452    7.3700 O   0  0  0  0  0  0  0  0  0  0  0  0
   16.4096  -10.5025    8.3925 O   0  0  0  0  0  0  0  0  0  0  0  0
   15.8373  -10.4342    9.6953 C   0  0  0  0  0  0  0  0  0  0  0  0
   18.9417   -8.2859   10.0357 C   0  0  0  0  0  0  0  0  0  0  0  0
   15.6796   -8.3222   18.2203 C   0  0  0  0  0  0  0  0  0  0  0  0
   16.8102   -7.5396   18.8983 C   0  0  0  0  0  0  0  0  0  0  0  0
   14.3842   -7.4948   18.3697 C   0  0  0  0  0  0  0  0  0  0  0  0
   13.2570   -8.2027   17.9463 O   0  0  0  0  0  0  0  0  0  0  0  0
   13.1327   -8.9810   18.5117 H   0  0  0  0  0  0  0  0  0  0  0  0
   12.5672   -5.2329   18.9803 C   0  0  0  0  0  0  0  0  0  0  0  0
   13.3045   -5.9468   20.0663 C   0  0  0  0  0  0  0  0  0  0  0  0
   14.1739   -7.0282   19.7842 C   0  0  0  0  0  0  0  0  0  0  0  0
   14.8522   -7.6790   20.8410 C   0  0  0  0  0  0  0  0  0  0  0  0
   14.6787   -7.2669   22.1706 C   0  0  0  0  0  0  0  0  0  0  0  0
   13.8185   -6.2000   22.4090 C   0  0  0  0  0  0  0  0  0  0  0  0
   13.1477   -5.5532   21.3994 C   0  0  0  0  0  0  0  0  0  0  0  0
   12.2970   -4.4487   21.9625 C   0  0  0  0  0  0  0  0  0  0  0  0
   12.5471   -4.5308   23.3705 O   0  0  0  0  0  0  0  0  0  0  0  0
   13.4404   -5.5581   23.6385 C   0  0  0  0  0  0  0  0  0  0  0  0
   13.8454   -5.8651   24.7900 O   0  0  0  0  0  0  0  0  0  0  0  0
 24 25  1  0  0  0
 25 26  2  0  0  0
 26 27  1  0  0  0
 27 28  2  0  0  0
 28 29  1  0  0  0
 29 30  2  0  0  0
 30 31  1  0  0  0
 30 25  1  0  0  0
 31 32  1  0  0  0
 32 33  1  0  0  0
 33 34  2  0  0  0
 33 29  1  0  0  0
 21 26  1  0  0  0
 21 19  1  0  0  0
 21 22  1  0  0  0
 19 20  1  0  0  0
 19  1  1  0  0  0
  1  2  1  0  0  0
  2  3  1  0  0  0
  4  3  1  0  0  0
  4  5  1  0  0  0
  4  7  1  0  0  0
  5  6  1  0  0  0
  6  1  1  0  0  0
  7  8  1  0  0  0
  8  9  1  0  0  0
  9 10  1  0  0  0
  9 12  1  0  0  0
 10 11  2  0  0  0
 10  4  1  0  0  0
 12 13  2  0  0  0
 13 14  1  0  0  0
 13 18  1  0  0  0
 14 15  2  0  0  0
 14 16  1  0  0  0
 16 17  1  0  0  0
 17 12  1  0  0  0
 22 23  1  0  0  0
M  END
>  <minimizedAffinity>
-5.18575

>  <minimizedRMSD>
1.73644

$$$$
CHEMBL3605275 PubChem-122186360


 36 38  0  0  0  0  0  0  0  0999 V2000
   17.4500   -9.3205   12.3930 C   0  0  0  0  0  0  0  0  0  0  0  0
   16.0510   -9.3101   12.4859 C   0  0  0  0  0  0  0  0  0  0  0  0
   15.2825   -9.6475   11.3678 C   0  0  0  0  0  0  0  0  0  0  0  0
   15.9049   -9.9906   10.1645 C   0  0  0  0  0  0  0  0  0  0  0  0
   17.3060   -9.9979   10.0687 C   0  0  0  0  0  0  0  0  0  0  0  0
   18.0725   -9.6636   11.1895 C   0  0  0  0  0  0  0  0  0  0  0  0
   15.3722   -8.9531   13.7359 C   0  0  0  0  0  0  0  0  0  0  0  0
   15.8701   -8.0793   14.5477 N   0  0  0  0  0  0  0  0  0  0  0  0
   15.1968   -7.7615   15.7325 N   0  0  0  0  0  0  0  0  0  0  0  0
   15.6473   -8.2605   16.9932 C   0  0  0  0  0  0  0  0  0  0  0  0
   16.6676   -9.0003   17.0453 O   0  0  0  0  0  0  0  0  0  0  0  0
   14.3997   -7.1847   15.6968 H   0  0  0  0  0  0  0  0  0  0  0  0
   14.9229   -7.9124   18.2278 C   0  0  0  0  0  0  0  0  0  0  0  0
   13.5512   -7.6550   18.1934 C   0  0  0  0  0  0  0  0  0  0  0  0
   12.8514   -7.3227   19.3623 C   0  0  0  0  0  0  0  0  0  0  0  0
   13.5299   -7.2445   20.5905 C   0  0  0  0  0  0  0  0  0  0  0  0
   14.9234   -7.5049   20.6340 C   0  0  0  0  0  0  0  0  0  0  0  0
   15.5986   -7.8355   19.4482 C   0  0  0  0  0  0  0  0  0  0  0  0
   15.6258   -7.4356   21.8429 O   0  0  0  0  0  0  0  0  0  0  0  0
   16.6522   -6.4834   22.0897 C   0  0  0  0  0  0  0  0  0  0  0  0
   12.7721   -6.9062   21.7246 O   0  0  0  0  0  0  0  0  0  0  0  0
   12.6627   -5.6008   22.2737 C   0  0  0  0  0  0  0  0  0  0  0  0
   11.4761   -7.0649   19.3273 O   0  0  0  0  0  0  0  0  0  0  0  0
   10.5965   -7.6967   18.4067 C   0  0  0  0  0  0  0  0  0  0  0  0
   17.9589  -10.3322    8.8778 O   0  0  0  0  0  0  0  0  0  0  0  0
   17.3544  -10.2093    7.5938 C   0  0  0  0  0  0  0  0  0  0  0  0
   17.2111   -8.7421    7.2079 C   0  0  0  0  0  0  0  0  0  0  0  0
   18.4655   -8.2261    6.6675 N   0  0  0  0  0  0  0  0  0  0  0  0
   18.8494   -8.1925    5.3762 C   0  0  0  0  0  0  0  0  0  0  0  0
   20.0678   -7.6382    5.2068 N   0  0  0  0  0  0  0  0  0  0  0  0
   20.4789   -7.2978    6.4483 C   0  0  0  0  0  0  0  0  0  0  0  0
   19.4861   -7.6584    7.3378 C   0  0  0  0  0  0  0  0  0  0  0  0
   18.0250   -8.6958    4.2407 C   0  0  0  0  0  0  0  0  0  0  0  0
   19.5418   -7.4547    8.7564 N   0  0  0  0  0  0  0  0  0  0  0  0
   18.7326   -6.6977    9.3295 O   0  0  0  0  0  0  0  0  0  0  0  0
   20.5160   -8.0799    9.4993 O   0  0  0  0  0  0  0  0  0  0  0  0
  1  2  2  0  0  0
  2  3  1  0  0  0
  3  4  2  0  0  0
  4  5  1  0  0  0
  5  6  2  0  0  0
  5 25  1  0  0  0
 25 26  1  0  0  0
 26 27  1  0  0  0
 27 28  1  0  0  0
 28 29  1  0  0  0
 29 30  2  0  0  0
 30 31  1  0  0  0
 31 32  2  0  0  0
 32 34  1  0  0  0
 34 35  2  0  0  0
 34 36  1  0  0  0
 29 33  1  0  0  0
  2  7  1  0  0  0
  7  8  2  0  0  0
  8  9  1  0  0  0
  9 10  1  0  0  0
 10 11  2  0  0  0
 10 13  1  0  0  0
 13 14  2  0  0  0
 14 15  1  0  0  0
 15 16  2  0  0  0
 16 17  1  0  0  0
 17 18  2  0  0  0
 17 19  1  0  0  0
 19 20  1  0  0  0
 16 21  1  0  0  0
 21 22  1  0  0  0
 15 23  1  0  0  0
 23 24  1  0  0  0
  6  1  1  0  0  0
 32 28  1  0  0  0
 18 13  1  0  0  0
  9 12  1  0  0  0
M  CHG 1  34   1
M  CHG 1  36  -1
M  END
>  <minimizedAffinity>
-5.16203

>  <minimizedRMSD>
1.82832

$$$$
CHEMBL3885271 PubChem-134131197


 33 34  0  0  0  0  0  0  0  0999 V2000
   17.2264   -8.2977   16.4244 C   0  0  0  0  0  0  0  0  0  0  0  0
   15.5103   -9.6990   12.7301 C   0  0  0  0  0  0  0  0  0  0  0  0
   15.7114   -8.3273   12.9520 C   0  0  0  0  0  0  0  0  0  0  0  0
   16.2640   -7.8812   14.1551 C   0  0  0  0  0  0  0  0  0  0  0  0
   16.6178   -8.7990   15.1492 C   0  0  0  0  0  0  0  0  0  0  0  0
   16.4238  -10.1701   14.9271 C   0  0  0  0  0  0  0  0  0  0  0  0
   15.8702  -10.6147   13.7233 C   0  0  0  0  0  0  0  0  0  0  0  0
   14.9576  -10.1749   11.5381 O   0  0  0  0  0  0  0  0  0  0  0  0
   15.3001   -9.6374   10.2667 C   0  0  0  0  0  0  0  0  0  0  0  0
   16.6828  -10.1171    9.8486 C   0  0  0  0  0  0  0  0  0  0  0  0
   17.7771   -9.3116   10.5314 C   0  0  0  0  0  0  0  0  0  0  0  0
   16.8369  -10.1169    8.3268 C   0  0  0  0  0  0  0  0  0  0  0  0
   17.0343   -8.7245    7.7337 C   0  0  0  0  0  0  0  0  0  0  0  0
   18.2302   -8.7127    6.7982 C   0  0  0  0  0  0  0  0  0  0  0  0
   16.4372   -8.7008   17.5812 N   0  0  0  0  0  0  0  0  0  0  0  0
   15.1886   -8.0922   17.9169 C   0  0  0  0  0  0  0  0  0  0  0  0
   14.7324   -7.1402   17.2285 O   0  0  0  0  0  0  0  0  0  0  0  0
   16.7788   -9.4234   18.1560 H   0  0  0  0  0  0  0  0  0  0  0  0
   14.4451   -8.5569   19.1237 C   0  0  0  0  0  0  0  0  0  0  0  0
   14.3931   -7.4768   20.1495 C   0  0  0  0  0  0  0  0  0  0  0  0
   15.4689   -7.2863   21.0194 C   0  0  0  0  0  0  0  0  0  0  0  0
   15.4311   -6.2573   21.9625 C   0  0  0  0  0  0  0  0  0  0  0  0
   14.3186   -5.4038   22.0414 C   0  0  0  0  0  0  0  0  0  0  0  0
   13.2395   -5.5888   21.1626 C   0  0  0  0  0  0  0  0  0  0  0  0
   13.2859   -6.6271   20.2176 C   0  0  0  0  0  0  0  0  0  0  0  0
   12.1360   -4.7312   21.2450 O   0  0  0  0  0  0  0  0  0  0  0  0
   10.9494   -4.9295   20.4875 C   0  0  0  0  0  0  0  0  0  0  0  0
   14.2643   -4.3678   22.9806 O   0  0  0  0  0  0  0  0  0  0  0  0
   14.9608   -4.4132   24.2180 C   0  0  0  0  0  0  0  0  0  0  0  0
   18.6355   -8.7684   16.5718 C   0  0  0  0  0  0  0  0  0  0  0  0
   19.4650   -8.0420   17.1819 O   0  0  0  0  0  0  0  0  0  0  0  0
   19.0269   -9.9924   16.0241 O   0  0  0  0  0  0  0  0  0  0  0  0
   19.6706  -10.0753   14.7617 C   0  0  0  0  0  0  0  0  0  0  0  0
 10 12  1  0  0  0
 12 13  1  0  0  0
 13 14  1  0  0  0
 10  9  1  0  0  0
  9  8  1  0  0  0
  8  2  1  0  0  0
  2  3  2  0  0  0
  3  4  1  0  0  0
  4  5  2  0  0  0
  5  6  1  0  0  0
  6  7  2  0  0  0
  1  5  1  0  0  0
  1 30  1  0  0  0
 30 31  2  0  0  0
 30 32  1  0  0  0
 32 33  1  0  0  0
  1 15  1  0  0  0
 15 16  1  0  0  0
 16 17  2  0  0  0
 16 19  1  0  0  0
 19 20  1  0  0  0
 20 21  2  0  0  0
 21 22  1  0  0  0
 22 23  2  0  0  0
 23 24  1  0  0  0
 24 25  2  0  0  0
 24 26  1  0  0  0
 26 27  1  0  0  0
 23 28  1  0  0  0
 28 29  1  0  0  0
 10 11  1  0  0  0
  7  2  1  0  0  0
 25 20  1  0  0  0
 15 18  1  0  0  0
M  END
>  <minimizedAffinity>
-5.15913

>  <minimizedRMSD>
1.80863

$$$$
CHEMBL5273827


 37 42  0  0  0  0  0  0  0  0999 V2000
   12.2548   -5.8545   20.5649 C   0  0  0  0  0  0  0  0  0  0  0  0
   13.5680   -6.1853   20.7220 N   0  0  0  0  0  0  0  0  0  0  0  0
   14.2390   -6.9460   19.8138 C   0  0  0  0  0  0  0  0  0  0  0  0
   13.5728   -7.3827   18.6530 C   0  0  0  0  0  0  0  0  0  0  0  0
   12.2289   -7.0642   18.4712 C   0  0  0  0  0  0  0  0  0  0  0  0
   11.5576   -6.3083   19.4314 C   0  0  0  0  0  0  0  0  0  0  0  0
   10.2525   -5.9938   19.2371 F   0  0  0  0  0  0  0  0  0  0  0  0
   14.2360   -8.1014   17.7145 N   0  0  0  0  0  0  0  0  0  0  0  0
   15.5486   -8.4145   17.8733 C   0  0  0  0  0  0  0  0  0  0  0  0
   16.2051   -8.0182   18.9948 N   0  0  0  0  0  0  0  0  0  0  0  0
   15.5943   -7.3075   19.9805 C   0  0  0  0  0  0  0  0  0  0  0  0
   11.5794   -5.0440   21.5994 C   0  0  0  0  0  0  0  0  0  0  0  0
   10.3539   -5.4699   22.1215 C   0  0  0  0  0  0  0  0  0  0  0  0
    9.7321   -4.7497   23.0896 N   0  0  0  0  0  0  0  0  0  0  0  0
   10.2837   -3.6054   23.5675 C   0  0  0  0  0  0  0  0  0  0  0  0
   11.4690   -3.1636   23.0740 N   0  0  0  0  0  0  0  0  0  0  0  0
   12.1296   -3.8513   22.1058 C   0  0  0  0  0  0  0  0  0  0  0  0
   13.3970   -3.2812   21.5651 C   0  0  0  0  0  0  0  0  0  0  0  0
   16.2544   -9.1659   16.8792 N   0  0  0  0  0  0  0  0  0  0  0  0
   16.7582   -9.9536   17.1873 H   0  0  0  0  0  0  0  0  0  0  0  0
   16.2937   -8.8750   15.4775 C   0  0  0  0  0  0  0  0  0  0  0  0
   16.0730   -7.6542   14.8662 C   0  0  0  0  0  0  0  0  0  0  0  0
   16.2118   -7.8437   13.5398 N   0  0  0  0  0  0  0  0  0  0  0  0
   16.5050   -9.1191   13.3313 N   0  0  0  0  0  0  0  0  0  0  0  0
   16.5669   -9.7955   14.4914 C   0  0  0  0  0  0  0  0  0  0  0  0
   16.7294   -9.7053   12.0183 C   0  0  0  0  0  0  0  0  0  0  0  0
   17.7735   -8.9015   11.2402 C   0  0  0  0  0  0  0  0  0  0  0  0
   17.9447   -9.4148    9.7998 C   0  0  0  0  0  0  0  0  0  0  0  0
   16.9717  -10.4537    9.4496 N   0  0  0  0  0  0  0  0  0  0  0  0
   15.6298   -9.9524    9.7359 C   0  0  0  0  0  0  0  0  0  0  0  0
   15.4089   -9.8195   11.2473 C   0  0  0  0  0  0  0  0  0  0  0  0
   17.0540  -10.6353    8.0122 C   0  0  0  0  0  0  0  0  0  0  0  0
   16.3610   -6.9802   21.1114 O   0  0  0  0  0  0  0  0  0  0  0  0
   15.9048   -6.9812   22.4601 C   0  0  0  0  0  0  0  0  0  0  0  0
   17.0272   -6.7047   23.4314 C   0  0  0  0  0  0  0  0  0  0  0  0
   15.9404   -5.6650   23.2003 C   0  0  0  0  0  0  0  0  0  0  0  0
   14.9856   -8.0909   22.9352 C   0  0  0  0  0  0  0  0  0  0  0  0
  1  2  2  0  0  0
  2  3  1  0  0  0
  3  4  2  0  0  0
  4  5  1  0  0  0
  5  6  2  0  0  0
  6  7  1  0  0  0
  4  8  1  0  0  0
  8  9  2  0  0  0
  9 10  1  0  0  0
 10 11  2  0  0  0
 11 33  1  0  0  0
 33 34  1  0  0  0
 34 35  1  0  0  0
 35 36  1  0  0  0
 34 37  1  0  0  0
  9 19  1  0  0  0
 19 21  1  0  0  0
 21 22  1  0  0  0
 22 23  2  0  0  0
 23 24  1  0  0  0
 24 25  1  0  0  0
 24 26  1  0  0  0
 26 27  1  0  0  0
 27 28  1  0  0  0
 28 29  1  0  0  0
 29 30  1  0  0  0
 30 31  1  0  0  0
 29 32  1  0  0  0
  1 12  1  0  0  0
 12 13  2  0  0  0
 13 14  1  0  0  0
 14 15  2  0  0  0
 15 16  1  0  0  0
 16 17  2  0  0  0
 17 18  1  0  0  0
  6  1  1  0  0  0
 36 34  1  0  0  0
 25 21  2  0  0  0
 31 26  1  0  0  0
 17 12  1  0  0  0
 11  3  1  0  0  0
 19 20  1  0  0  0
M  END
>  <minimizedAffinity>
-5.15239

>  <minimizedRMSD>
1.69188

$$$$
CHEMBL3126623 PubChem-68762699


 39 41  0  0  0  0  0  0  0  0999 V2000
   14.3266   -7.4536   19.1710 C   0  0  0  0  0  0  0  0  0  0  0  0
   13.2214   -6.6926   18.7835 C   0  0  0  0  0  0  0  0  0  0  0  0
   12.3806   -6.1223   19.7408 C   0  0  0  0  0  0  0  0  0  0  0  0
   11.2169   -5.3145   19.2782 C   0  0  0  0  0  0  0  0  0  0  0  0
   12.6392   -6.2931   21.1130 C   0  0  0  0  0  0  0  0  0  0  0  0
   13.7518   -7.0811   21.5074 C   0  0  0  0  0  0  0  0  0  0  0  0
   14.5785   -7.6502   20.5312 C   0  0  0  0  0  0  0  0  0  0  0  0
   16.0581   -8.6271   16.3390 C   0  0  0  0  0  0  0  0  0  0  0  0
   15.0118   -7.9314   16.8268 N   0  0  0  0  0  0  0  0  0  0  0  0
   15.2098   -8.0502   18.1571 C   0  0  0  0  0  0  0  0  0  0  0  0
   16.3085   -8.7739   18.4522 N   0  0  0  0  0  0  0  0  0  0  0  0
   16.8047   -9.1116   17.3014 O   0  0  0  0  0  0  0  0  0  0  0  0
   17.4604   -9.9965   13.1185 C   0  0  0  0  0  0  0  0  0  0  0  0
   17.1964   -9.8232   14.4786 C   0  0  0  0  0  0  0  0  0  0  0  0
   16.3282   -8.8163   14.9075 C   0  0  0  0  0  0  0  0  0  0  0  0
   15.7218   -7.9955   13.9519 C   0  0  0  0  0  0  0  0  0  0  0  0
   15.9780   -8.1792   12.6297 N   0  0  0  0  0  0  0  0  0  0  0  0
   16.8255   -9.1485   12.1883 C   0  0  0  0  0  0  0  0  0  0  0  0
   19.4543  -10.5688   11.7608 C   0  0  0  0  0  0  0  0  0  0  0  0
   18.3859  -11.0955   12.7022 C   0  0  0  0  0  0  0  0  0  0  0  0
   17.0360   -9.3078   10.7154 C   0  0  0  0  0  0  0  0  0  0  0  0
   16.0806  -10.3392   10.1371 C   0  0  0  0  0  0  0  0  0  0  0  0
   16.1753  -10.3153    8.6265 C   0  0  0  0  0  0  0  0  0  0  0  0
   14.6552  -10.0260   10.5506 C   0  0  0  0  0  0  0  0  0  0  0  0
   14.0463   -7.4024   22.9374 C   0  0  0  0  0  0  0  0  0  0  0  0
   15.5132   -7.1629   23.2477 C   0  0  0  0  0  0  0  0  0  0  0  0
   11.7594   -5.6884   22.0284 O   0  0  0  0  0  0  0  0  0  0  0  0
   12.1446   -5.1367   23.2816 C   0  0  0  0  0  0  0  0  0  0  0  0
   13.0874   -3.9607   23.0717 C   0  0  0  0  0  0  0  0  0  0  0  0
   12.3597   -2.7768   22.9386 O   0  0  0  0  0  0  0  0  0  0  0  0
   11.8542   -2.6150   23.7505 H   0  0  0  0  0  0  0  0  0  0  0  0
   14.0761   -3.8471   24.2236 C   0  0  0  0  0  0  0  0  0  0  0  0
   13.3811   -3.7974   25.5023 N   0  0  0  0  0  0  0  0  0  0  0  0
   13.6241   -4.7562   26.5313 C   0  0  0  0  0  0  0  0  0  0  0  0
   14.4387   -5.7000   26.3504 O   0  0  0  0  0  0  0  0  0  0  0  0
   12.7244   -3.0814   25.6617 H   0  0  0  0  0  0  0  0  0  0  0  0
   12.8908   -4.6545   27.8212 C   0  0  0  0  0  0  0  0  0  0  0  0
   12.1227   -5.8021   28.0161 O   0  0  0  0  0  0  0  0  0  0  0  0
   11.4848   -5.8912   27.2908 H   0  0  0  0  0  0  0  0  0  0  0  0
 19 20  1  0  0  0
 20 13  1  0  0  0
 13 14  2  0  0  0
 14 15  1  0  0  0
 15  8  1  0  0  0
 15 16  2  0  0  0
  8  9  2  0  0  0
  9 10  1  0  0  0
 10  1  1  0  0  0
 10 11  2  0  0  0
  1  2  2  0  0  0
  2  3  1  0  0  0
  3  4  1  0  0  0
  3  5  2  0  0  0
  5 27  1  0  0  0
  5  6  1  0  0  0
 27 28  1  0  0  0
 29 28  1  0  0  0
 29 30  1  0  0  0
 29 32  1  0  0  0
 32 33  1  0  0  0
 33 34  1  0  0  0
 34 35  2  0  0  0
 34 37  1  0  0  0
 37 38  1  0  0  0
  6 25  1  0  0  0
  6  7  2  0  0  0
 25 26  1  0  0  0
  7  1  1  0  0  0
 11 12  1  0  0  0
 12  8  1  0  0  0
 16 17  1  0  0  0
 17 18  2  0  0  0
 18 21  1  0  0  0
 18 13  1  0  0  0
 21 22  1  0  0  0
 22 23  1  0  0  0
 22 24  1  0  0  0
 30 31  1  0  0  0
 33 36  1  0  0  0
 38 39  1  0  0  0
M  END
>  <minimizedAffinity>
-5.10684

>  <minimizedRMSD>
1.97317

$$$$
CHEMBL3919441 PubChem-134139579


 29 32  0  0  0  0  0  0  0  0999 V2000
   16.4456   -9.8081   16.3606 C   0  0  0  0  0  0  0  0  0  0  0  0
   15.0015   -7.7922   16.6121 C   0  0  0  0  0  0  0  0  0  0  0  0
   14.5305   -7.5375   15.4722 O   0  0  0  0  0  0  0  0  0  0  0  0
   16.3570   -8.3766   16.8717 C   0  0  0  0  0  0  0  0  0  0  0  0
   16.4667   -8.3913   18.4120 C   0  0  0  0  0  0  0  0  0  0  0  0
   15.1590   -7.8490   18.8885 C   0  0  0  0  0  0  0  0  0  0  0  0
   14.7600   -7.6688   20.2095 C   0  0  0  0  0  0  0  0  0  0  0  0
   13.4862   -7.1376   20.4805 C   0  0  0  0  0  0  0  0  0  0  0  0
   12.6261   -6.7834   19.3967 C   0  0  0  0  0  0  0  0  0  0  0  0
   13.0660   -6.9777   18.0701 C   0  0  0  0  0  0  0  0  0  0  0  0
   14.3319   -7.5129   17.8549 C   0  0  0  0  0  0  0  0  0  0  0  0
   11.3579   -6.2445   19.6421 O   0  0  0  0  0  0  0  0  0  0  0  0
   11.0985   -4.8472   19.6524 C   0  0  0  0  0  0  0  0  0  0  0  0
   13.1365   -6.9873   21.8308 O   0  0  0  0  0  0  0  0  0  0  0  0
   13.3524   -5.8126   22.5999 C   0  0  0  0  0  0  0  0  0  0  0  0
   17.0924   -9.8561   14.9883 C   0  0  0  0  0  0  0  0  0  0  0  0
   16.0218   -9.8472   13.8961 C   0  0  0  0  0  0  0  0  0  0  0  0
   16.6194  -10.0687   12.4966 C   0  0  0  0  0  0  0  0  0  0  0  0
   18.0649  -10.3108   12.5379 N   0  0  0  0  0  0  0  0  0  0  0  0
   18.3154  -11.4478   13.4213 C   0  0  0  0  0  0  0  0  0  0  0  0
   17.9782  -11.0988   14.8778 C   0  0  0  0  0  0  0  0  0  0  0  0
   18.4684  -10.7199   11.1998 C   0  0  0  0  0  0  0  0  0  0  0  0
   18.6063   -9.5508   10.2673 C   0  0  0  0  0  0  0  0  0  0  0  0
   17.7226   -9.4260    9.2394 N   0  0  0  0  0  0  0  0  0  0  0  0
   17.7899   -8.3941    8.3552 C   0  0  0  0  0  0  0  0  0  0  0  0
   18.7853   -7.4240    8.4855 C   0  0  0  0  0  0  0  0  0  0  0  0
   19.7050   -7.5276    9.5296 C   0  0  0  0  0  0  0  0  0  0  0  0
   19.6195   -8.5931   10.4260 C   0  0  0  0  0  0  0  0  0  0  0  0
   16.8035   -8.2999    7.2476 C   0  0  0  0  0  0  0  0  0  0  0  0
  2  3  2  0  0  0
  2  4  1  0  0  0
  4  5  1  0  0  0
  5  6  1  0  0  0
  6  7  2  0  0  0
  7  8  1  0  0  0
  8  9  2  0  0  0
  9 10  1  0  0  0
 10 11  2  0  0  0
  9 12  1  0  0  0
 12 13  1  0  0  0
  8 14  1  0  0  0
 14 15  1  0  0  0
  4  1  1  0  0  0
  1 16  1  0  0  0
 16 17  1  0  0  0
 17 18  1  0  0  0
 18 19  1  0  0  0
 19 20  1  0  0  0
 20 21  1  0  0  0
 19 22  1  0  0  0
 22 23  1  0  0  0
 23 24  2  0  0  0
 24 25  1  0  0  0
 25 26  2  0  0  0
 26 27  1  0  0  0
 27 28  2  0  0  0
 25 29  1  0  0  0
 11  2  1  0  0  0
 21 16  1  0  0  0
 28 23  1  0  0  0
 11  6  1  0  0  0
M  END
>  <minimizedAffinity>
-5.10487

>  <minimizedRMSD>
1.49839

$$$$
CHEMBL246179 PubChem-44439983


 34 35  0  0  0  0  0  0  0  0999 V2000
   16.4553   -9.7587   13.7380 N   0  0  0  0  0  0  0  0  0  0  0  0
   17.2560  -10.6848   14.4920 C   0  0  0  0  0  0  0  0  0  0  0  0
   17.3885  -11.8784   14.1089 O   0  0  0  0  0  0  0  0  0  0  0  0
   17.8818  -10.2599   15.7811 C   0  0  0  0  0  0  0  0  0  0  0  0
   18.3367   -8.8096   15.6909 C   0  0  0  0  0  0  0  0  0  0  0  0
   17.2015   -7.8620   15.2880 C   0  0  0  0  0  0  0  0  0  0  0  0
   16.3619   -8.3840   14.1522 C   0  0  0  0  0  0  0  0  0  0  0  0
   15.5777   -7.5935   13.5602 O   0  0  0  0  0  0  0  0  0  0  0  0
   16.3953   -7.4569   16.4396 N   0  0  0  0  0  0  0  0  0  0  0  0
   15.3111   -8.2005   17.0150 C   0  0  0  0  0  0  0  0  0  0  0  0
   14.8714   -9.2335   16.4402 O   0  0  0  0  0  0  0  0  0  0  0  0
   16.6172   -6.5942   16.8587 H   0  0  0  0  0  0  0  0  0  0  0  0
   14.7074   -7.7533   18.2816 C   0  0  0  0  0  0  0  0  0  0  0  0
   13.3914   -7.2858   18.3140 C   0  0  0  0  0  0  0  0  0  0  0  0
   12.8014   -6.8800   19.5195 C   0  0  0  0  0  0  0  0  0  0  0  0
   13.5347   -6.9395   20.7172 C   0  0  0  0  0  0  0  0  0  0  0  0
   14.8751   -7.4030   20.6910 C   0  0  0  0  0  0  0  0  0  0  0  0
   15.4385   -7.8087   19.4705 C   0  0  0  0  0  0  0  0  0  0  0  0
   11.4803   -6.4178   19.5529 O   0  0  0  0  0  0  0  0  0  0  0  0
   11.1248   -5.0772   19.2426 C   0  0  0  0  0  0  0  0  0  0  0  0
   12.8844   -6.5244   21.8921 O   0  0  0  0  0  0  0  0  0  0  0  0
   13.0232   -5.2445   22.4927 C   0  0  0  0  0  0  0  0  0  0  0  0
   15.6373   -7.4512   21.8640 O   0  0  0  0  0  0  0  0  0  0  0  0
   16.6357   -6.4892   22.1799 C   0  0  0  0  0  0  0  0  0  0  0  0
   15.7702  -10.2064   12.5281 C   0  0  0  0  0  0  0  0  0  0  0  0
   17.8887   -9.4042   11.4171 N   0  0  0  0  0  0  0  0  0  0  0  0
   16.7132  -10.2163   11.3739 C   0  0  0  0  0  0  0  0  0  0  0  0
   16.4816  -10.9608   10.3835 O   0  0  0  0  0  0  0  0  0  0  0  0
   18.0549   -8.8594   12.2201 H   0  0  0  0  0  0  0  0  0  0  0  0
   18.8511   -9.3471   10.3260 C   0  0  0  0  0  0  0  0  0  0  0  0
   18.4841   -8.2653    9.3694 C   0  0  0  0  0  0  0  0  0  0  0  0
   19.1608   -7.2019    9.3411 O   0  0  0  0  0  0  0  0  0  0  0  0
   17.3817   -9.3708    7.4685 C   0  0  0  0  0  0  0  0  0  0  0  0
   17.3793   -8.4329    8.5338 O   0  0  0  0  0  0  0  0  0  0  0  0
 33 34  1  0  0  0
 34 31  1  0  0  0
 31 32  2  0  0  0
 31 30  1  0  0  0
 30 26  1  0  0  0
 26 27  1  0  0  0
 27 28  2  0  0  0
 27 25  1  0  0  0
 25  1  1  0  0  0
  1  2  1  0  0  0
  2  3  2  0  0  0
  2  4  1  0  0  0
  4  5  1  0  0  0
  5  6  1  0  0  0
  6  9  1  0  0  0
  6  7  1  0  0  0
  9 10  1  0  0  0
 10 11  2  0  0  0
 10 13  1  0  0  0
 13 14  2  0  0  0
 14 15  1  0  0  0
 15 19  1  0  0  0
 15 16  2  0  0  0
 19 20  1  0  0  0
 16 21  1  0  0  0
 16 17  1  0  0  0
 21 22  1  0  0  0
 17 23  1  0  0  0
 17 18  2  0  0  0
 23 24  1  0  0  0
 18 13  1  0  0  0
  7  8  2  0  0  0
  7  1  1  0  0  0
 26 29  1  0  0  0
  9 12  1  0  0  0
M  END
>  <minimizedAffinity>
-5.09588

>  <minimizedRMSD>
1.82581

$$$$
CHEMBL3702036 PubChem-58299626


 35 40  0  0  0  0  0  0  0  0999 V2000
   15.2516   -9.0543   16.6893 C   0  0  0  0  0  0  0  0  0  0  0  0
   16.5504   -8.9347   17.1217 N   0  0  0  0  0  0  0  0  0  0  0  0
   16.8671   -8.3048   18.2908 C   0  0  0  0  0  0  0  0  0  0  0  0
   15.8229   -7.7831   19.0363 C   0  0  0  0  0  0  0  0  0  0  0  0
   15.7650   -7.1036   20.2291 C   0  0  0  0  0  0  0  0  0  0  0  0
   14.4279   -6.8448   20.4594 C   0  0  0  0  0  0  0  0  0  0  0  0
   14.0428   -6.1559   21.6129 C   0  0  0  0  0  0  0  0  0  0  0  0
   12.8337   -5.9026   21.8553 O   0  0  0  0  0  0  0  0  0  0  0  0
   15.0158   -5.7569   22.4848 N   0  0  0  0  0  0  0  0  0  0  0  0
   16.3442   -6.0106   22.2621 C   0  0  0  0  0  0  0  0  0  0  0  0
   16.7613   -6.7012   21.1110 C   0  0  0  0  0  0  0  0  0  0  0  0
   13.6524   -7.3354   19.4590 N   0  0  0  0  0  0  0  0  0  0  0  0
   14.5307   -7.9058   18.5991 C   0  0  0  0  0  0  0  0  0  0  0  0
   14.2313   -8.5341   17.4360 N   0  0  0  0  0  0  0  0  0  0  0  0
   14.7543   -5.2710   23.3001 H   0  0  0  0  0  0  0  0  0  0  0  0
   12.1964   -7.2585   19.3462 C   0  0  0  0  0  0  0  0  0  0  0  0
   11.7826   -6.5130   18.0870 C   0  0  0  0  0  0  0  0  0  0  0  0
   10.9020   -7.4591   17.2940 C   0  0  0  0  0  0  0  0  0  0  0  0
   10.4613   -8.5317   18.2648 C   0  0  0  0  0  0  0  0  0  0  0  0
   11.5834   -8.6442   19.2700 C   0  0  0  0  0  0  0  0  0  0  0  0
   14.9389   -9.7184   15.4574 N   0  0  0  0  0  0  0  0  0  0  0  0
   14.1281  -10.2769   15.4575 H   0  0  0  0  0  0  0  0  0  0  0  0
   16.9701   -9.5741   11.7850 C   0  0  0  0  0  0  0  0  0  0  0  0
   15.6215   -9.7387   11.8733 N   0  0  0  0  0  0  0  0  0  0  0  0
   14.9956   -9.7816   13.0513 N   0  0  0  0  0  0  0  0  0  0  0  0
   15.6709   -9.6630   14.2248 C   0  0  0  0  0  0  0  0  0  0  0  0
   17.0574   -9.4928   14.1907 C   0  0  0  0  0  0  0  0  0  0  0  0
   17.7118   -9.4479   12.9635 C   0  0  0  0  0  0  0  0  0  0  0  0
   18.3913   -7.4851    6.9975 C   0  0  0  0  0  0  0  0  0  0  0  0
   18.3911   -8.5365    7.9977 N   0  0  0  0  0  0  0  0  0  0  0  0
   16.9912   -8.8845    8.2421 C   0  0  0  0  0  0  0  0  0  0  0  0
   16.9094   -9.9805    9.3012 C   0  0  0  0  0  0  0  0  0  0  0  0
   17.6115   -9.5322   10.5001 N   0  0  0  0  0  0  0  0  0  0  0  0
   18.9617   -8.9974   10.3362 C   0  0  0  0  0  0  0  0  0  0  0  0
   18.9518   -7.9561    9.2184 C   0  0  0  0  0  0  0  0  0  0  0  0
 29 30  1  0  0  0
 30 31  1  0  0  0
 31 32  1  0  0  0
 32 33  1  0  0  0
 33 34  1  0  0  0
 33 23  1  0  0  0
 34 35  1  0  0  0
 35 30  1  0  0  0
 23 24  2  0  0  0
 24 25  1  0  0  0
 25 26  2  0  0  0
 26 27  1  0  0  0
 26 21  1  0  0  0
 27 28  2  0  0  0
 28 23  1  0  0  0
 21  1  1  0  0  0
  1  2  2  0  0  0
  2  3  1  0  0  0
  3  4  2  0  0  0
  4  5  1  0  0  0
  5  6  2  0  0  0
  6  7  1  0  0  0
  6 12  1  0  0  0
  7  8  2  0  0  0
  7  9  1  0  0  0
  9 10  1  0  0  0
 10 11  2  0  0  0
 11  5  1  0  0  0
 12 13  1  0  0  0
 12 16  1  0  0  0
 13 14  2  0  0  0
 13  4  1  0  0  0
 14  1  1  0  0  0
 16 17  1  0  0  0
 17 18  1  0  0  0
 18 19  1  0  0  0
 19 20  1  0  0  0
 20 16  1  0  0  0
 21 22  1  0  0  0
  9 15  1  0  0  0
M  END
>  <minimizedAffinity>
-5.07602

>  <minimizedRMSD>
1.81307

$$$$
CHEMBL4587289 PubChem-140914460


 32 35  0  0  0  0  0  0  0  0999 V2000
   16.6992   -9.2246   14.5743 C   0  0  0  0  0  0  0  0  0  0  0  0
   17.4179  -10.1014   15.4205 C   0  0  0  0  0  0  0  0  0  0  0  0
   17.2358  -10.0441   16.8092 C   0  0  0  0  0  0  0  0  0  0  0  0
   16.3609   -9.1331   17.2984 N   0  0  0  0  0  0  0  0  0  0  0  0
   15.6636   -8.2873   16.5282 C   0  0  0  0  0  0  0  0  0  0  0  0
   15.8017   -8.2965   15.1432 C   0  0  0  0  0  0  0  0  0  0  0  0
   14.8583   -7.4749   17.2333 N   0  0  0  0  0  0  0  0  0  0  0  0
   15.0840   -7.8551   18.5165 C   0  0  0  0  0  0  0  0  0  0  0  0
   16.0190   -8.8882   18.5705 C   0  0  0  0  0  0  0  0  0  0  0  0
   14.4215   -7.2487   19.6958 C   0  0  0  0  0  0  0  0  0  0  0  0
   13.2590   -6.4529   19.5829 C   0  0  0  0  0  0  0  0  0  0  0  0
   12.6823   -5.9085   20.7421 C   0  0  0  0  0  0  0  0  0  0  0  0
   13.2388   -6.1404   22.0076 C   0  0  0  0  0  0  0  0  0  0  0  0
   14.3903   -6.9295   22.1124 C   0  0  0  0  0  0  0  0  0  0  0  0
   14.9708   -7.4749   20.9667 C   0  0  0  0  0  0  0  0  0  0  0  0
   15.1246   -7.2490   23.6734 Cl  0  0  0  0  0  0  0  0  0  0  0  0
   12.6646   -5.5983   23.1629 O   0  0  0  0  0  0  0  0  0  0  0  0
   11.3400   -5.0844   23.1953 C   0  0  0  0  0  0  0  0  0  0  0  0
   12.6879   -6.2094   18.3277 O   0  0  0  0  0  0  0  0  0  0  0  0
   11.5623   -5.3618   18.1413 C   0  0  0  0  0  0  0  0  0  0  0  0
   16.6175  -10.5296   10.6175 N   0  0  0  0  0  0  0  0  0  0  0  0
   17.6448  -10.9749   11.5736 C   0  0  0  0  0  0  0  0  0  0  0  0
   18.0673   -9.8770   12.5514 C   0  0  0  0  0  0  0  0  0  0  0  0
   16.8815   -9.2789   13.1478 N   0  0  0  0  0  0  0  0  0  0  0  0
   15.8741   -8.7690   12.2287 C   0  0  0  0  0  0  0  0  0  0  0  0
   15.4652   -9.8843   11.2664 C   0  0  0  0  0  0  0  0  0  0  0  0
   17.3008   -9.4940    9.3620 P   0  0  0  0  0  0  0  0  0  0  0  0
   18.2390  -10.3201    8.5036 O   0  0  0  0  0  0  0  0  0  0  0  0
   18.0904   -8.1514   10.0590 O   0  0  0  0  0  0  0  0  0  0  0  0
   19.3869   -8.1215    9.5388 C   0  0  0  0  0  0  0  0  0  0  0  0
   16.0258   -8.9351    8.3918 O   0  0  0  0  0  0  0  0  0  0  0  0
   16.6255   -8.1720    7.3885 C   0  0  0  0  0  0  0  0  0  0  0  0
 27 28  2  0  0  0
 27 21  1  0  0  0
 21 22  1  0  0  0
 22 23  1  0  0  0
 23 24  1  0  0  0
 24  1  1  0  0  0
  1  2  1  0  0  0
  2  3  2  0  0  0
  3  4  1  0  0  0
  4  5  1  0  0  0
  5  6  1  0  0  0
  5  7  2  0  0  0
  7  8  1  0  0  0
  8  9  2  0  0  0
  8 10  1  0  0  0
 10 11  2  0  0  0
 11 12  1  0  0  0
 12 13  2  0  0  0
 13 14  1  0  0  0
 14 15  2  0  0  0
 14 16  1  0  0  0
 13 17  1  0  0  0
 17 18  1  0  0  0
 11 19  1  0  0  0
 19 20  1  0  0  0
 24 25  1  0  0  0
 25 26  1  0  0  0
 27 29  1  0  0  0
 29 30  1  0  0  0
 27 31  1  0  0  0
 31 32  1  0  0  0
 26 21  1  0  0  0
  6  1  2  0  0  0
 15 10  1  0  0  0
  9  4  1  0  0  0
M  END
>  <minimizedAffinity>
-5.07560

>  <minimizedRMSD>
1.09912

$$$$
CHEMBL3198069 LN00978539 MolPort-000-206-670 PubChem-9566530 ZINC01214560


 33 35  0  0  0  0  0  0  0  0999 V2000
   16.1065   -8.3282   16.0570 C   0  0  0  0  0  0  0  0  0  0  0  0
   16.0105   -9.7106   15.8279 C   0  0  0  0  0  0  0  0  0  0  0  0
   15.8566  -10.2046   14.5298 C   0  0  0  0  0  0  0  0  0  0  0  0
   15.7963   -9.3213   13.4435 C   0  0  0  0  0  0  0  0  0  0  0  0
   15.8920   -7.9452   13.6677 C   0  0  0  0  0  0  0  0  0  0  0  0
   16.0460   -7.4530   14.9670 C   0  0  0  0  0  0  0  0  0  0  0  0
   15.6388   -9.8100   12.0707 C   0  0  0  0  0  0  0  0  0  0  0  0
   16.5691  -10.4961   11.4841 N   0  0  0  0  0  0  0  0  0  0  0  0
   16.4444  -10.9682   10.1646 N   0  0  0  0  0  0  0  0  0  0  0  0
   16.6246  -10.1660    8.9878 C   0  0  0  0  0  0  0  0  0  0  0  0
   15.8751  -10.3725    7.9965 O   0  0  0  0  0  0  0  0  0  0  0  0
   16.2170  -11.9178   10.0392 H   0  0  0  0  0  0  0  0  0  0  0  0
   17.6994   -9.1564    8.8860 C   0  0  0  0  0  0  0  0  0  0  0  0
   17.8575   -8.4156    7.7079 C   0  0  0  0  0  0  0  0  0  0  0  0
   18.8921   -7.4824    7.6128 C   0  0  0  0  0  0  0  0  0  0  0  0
   19.7452   -7.3011    8.6561 N   0  0  0  0  0  0  0  0  0  0  0  0
   19.6225   -8.0154    9.8066 C   0  0  0  0  0  0  0  0  0  0  0  0
   18.6011   -8.9582    9.9396 C   0  0  0  0  0  0  0  0  0  0  0  0
   16.2618   -7.7822   17.3406 O   0  0  0  0  0  0  0  0  0  0  0  0
   15.7732   -8.3233   18.5413 C   0  0  0  0  0  0  0  0  0  0  0  0
   16.0566   -9.5027   18.8883 O   0  0  0  0  0  0  0  0  0  0  0  0
   12.8586   -6.2421   19.7467 C   0  0  0  0  0  0  0  0  0  0  0  0
   13.6869   -7.0311   18.9359 C   0  0  0  0  0  0  0  0  0  0  0  0
   14.9160   -7.4960   19.4059 C   0  0  0  0  0  0  0  0  0  0  0  0
   15.3185   -7.1660   20.7023 C   0  0  0  0  0  0  0  0  0  0  0  0
   14.5093   -6.3776   21.5360 C   0  0  0  0  0  0  0  0  0  0  0  0
   13.2614   -5.9088   21.0515 C   0  0  0  0  0  0  0  0  0  0  0  0
   11.5039   -4.6432   18.4254 C   0  0  0  0  0  0  0  0  0  0  0  0
   11.6258   -5.7758   19.2756 O   0  0  0  0  0  0  0  0  0  0  0  0
   14.9372   -6.0620   22.8309 O   0  0  0  0  0  0  0  0  0  0  0  0
   16.2239   -6.4061   23.3278 C   0  0  0  0  0  0  0  0  0  0  0  0
   12.3864   -5.1153   21.8129 O   0  0  0  0  0  0  0  0  0  0  0  0
   12.4995   -3.7100   21.9849 C   0  0  0  0  0  0  0  0  0  0  0  0
 28 29  1  0  0  0
 29 22  1  0  0  0
 22 23  2  0  0  0
 23 24  1  0  0  0
 24 25  2  0  0  0
 24 20  1  0  0  0
 25 26  1  0  0  0
 26 30  1  0  0  0
 26 27  2  0  0  0
 30 31  1  0  0  0
 27 32  1  0  0  0
 27 22  1  0  0  0
 32 33  1  0  0  0
 20 21  2  0  0  0
 20 19  1  0  0  0
 19  1  1  0  0  0
  1  2  2  0  0  0
  2  3  1  0  0  0
  3  4  2  0  0  0
  4  7  1  0  0  0
  4  5  1  0  0  0
  7  8  2  0  0  0
  8  9  1  0  0  0
  9 10  1  0  0  0
 10 11  2  0  0  0
 10 13  1  0  0  0
 13 14  2  0  0  0
 14 15  1  0  0  0
 15 16  2  0  0  0
 16 17  1  0  0  0
 17 18  2  0  0  0
 18 13  1  0  0  0
  5  6  2  0  0  0
  6  1  1  0  0  0
  9 12  1  0  0  0
M  END
>  <minimizedAffinity>
-5.07243

>  <minimizedRMSD>
1.38508

$$$$
CHEMBL1862358 PubChem-56659073


 32 35  0  0  0  0  0  0  0  0999 V2000
   15.7043   -8.6792   17.2349 C   0  0  0  0  0  0  0  0  0  0  0  0
   15.1332   -9.1106   16.0927 N   0  0  0  0  0  0  0  0  0  0  0  0
   16.1486   -9.7458   15.4807 C   0  0  0  0  0  0  0  0  0  0  0  0
   17.2970   -9.6785   16.2400 C   0  0  0  0  0  0  0  0  0  0  0  0
   16.9732   -9.0114   17.3224 O   0  0  0  0  0  0  0  0  0  0  0  0
   13.0627   -6.5918   18.9613 C   0  0  0  0  0  0  0  0  0  0  0  0
   13.7574   -7.3222   17.9841 C   0  0  0  0  0  0  0  0  0  0  0  0
   14.9879   -7.9176   18.2679 C   0  0  0  0  0  0  0  0  0  0  0  0
   15.5339   -7.7830   19.5444 C   0  0  0  0  0  0  0  0  0  0  0  0
   14.8617   -7.0591   20.5397 C   0  0  0  0  0  0  0  0  0  0  0  0
   13.6225   -6.4581   20.2578 C   0  0  0  0  0  0  0  0  0  0  0  0
   10.5947   -6.7019   18.7406 C   0  0  0  0  0  0  0  0  0  0  0  0
   11.8304   -6.0045   18.6510 O   0  0  0  0  0  0  0  0  0  0  0  0
   15.4077   -6.9227   21.8213 O   0  0  0  0  0  0  0  0  0  0  0  0
   16.7374   -6.4756   22.0491 C   0  0  0  0  0  0  0  0  0  0  0  0
   13.0002   -5.7468   21.2977 O   0  0  0  0  0  0  0  0  0  0  0  0
   13.0510   -4.3376   21.4673 C   0  0  0  0  0  0  0  0  0  0  0  0
   16.0419  -10.3762   14.1351 C   0  0  0  0  0  0  0  0  0  0  0  0
   15.4885   -9.4224   13.1767 N   0  0  0  0  0  0  0  0  0  0  0  0
   16.3759   -8.2550   13.0439 C   0  0  0  0  0  0  0  0  0  0  0  0
   17.7152   -8.6132   12.3953 C   0  0  0  0  0  0  0  0  0  0  0  0
   17.4647   -9.3106   11.1404 N   0  0  0  0  0  0  0  0  0  0  0  0
   16.5896  -10.4749   11.1974 C   0  0  0  0  0  0  0  0  0  0  0  0
   15.2752  -10.0837   11.8803 C   0  0  0  0  0  0  0  0  0  0  0  0
   18.0248   -8.8495    9.8973 C   0  0  0  0  0  0  0  0  0  0  0  0
   19.1748   -8.0453    9.8874 C   0  0  0  0  0  0  0  0  0  0  0  0
   19.7179   -7.5974    8.6809 C   0  0  0  0  0  0  0  0  0  0  0  0
   19.1208   -7.9459    7.4666 C   0  0  0  0  0  0  0  0  0  0  0  0
   19.7295   -7.4486    6.1992 C   0  0  0  0  0  0  0  0  0  0  0  0
   17.9680   -8.7516    7.4630 C   0  0  0  0  0  0  0  0  0  0  0  0
   17.2971   -9.1485    6.1917 C   0  0  0  0  0  0  0  0  0  0  0  0
   17.4296   -9.1965    8.6742 C   0  0  0  0  0  0  0  0  0  0  0  0
 12 13  1  0  0  0
 13  6  1  0  0  0
  6  7  2  0  0  0
  7  8  1  0  0  0
  8  1  1  0  0  0
  8  9  2  0  0  0
  1  2  2  0  0  0
  2  3  1  0  0  0
  3 18  1  0  0  0
  3  4  2  0  0  0
 18 19  1  0  0  0
 19 20  1  0  0  0
 20 21  1  0  0  0
 21 22  1  0  0  0
 22 25  1  0  0  0
 22 23  1  0  0  0
 25 26  2  0  0  0
 26 27  1  0  0  0
 27 28  2  0  0  0
 28 29  1  0  0  0
 28 30  1  0  0  0
 30 31  1  0  0  0
 30 32  2  0  0  0
 32 25  1  0  0  0
 23 24  1  0  0  0
 24 19  1  0  0  0
  4  5  1  0  0  0
  5  1  1  0  0  0
  9 10  1  0  0  0
 10 14  1  0  0  0
 10 11  2  0  0  0
 14 15  1  0  0  0
 11 16  1  0  0  0
 11  6  1  0  0  0
 16 17  1  0  0  0
M  END
>  <minimizedAffinity>
-5.07177

>  <minimizedRMSD>
1.36316

$$$$
CHEMBL4589883 PubChem-135335228


 34 38  0  0  0  0  0  0  0  0999 V2000
   15.2548   -8.0398   17.6758 C   0  0  0  0  0  0  0  0  0  0  0  0
   16.4438   -8.7315   17.9020 C   0  0  0  0  0  0  0  0  0  0  0  0
   16.8817   -9.1070   16.6928 N   0  0  0  0  0  0  0  0  0  0  0  0
   17.9955   -9.8047   16.3665 C   0  0  0  0  0  0  0  0  0  0  0  0
   18.2303  -10.0718   15.0105 C   0  0  0  0  0  0  0  0  0  0  0  0
   17.3180   -9.6178   14.0280 C   0  0  0  0  0  0  0  0  0  0  0  0
   16.1752   -8.8945   14.4320 C   0  0  0  0  0  0  0  0  0  0  0  0
   15.9965   -8.6604   15.7924 C   0  0  0  0  0  0  0  0  0  0  0  0
   14.9710   -7.9936   16.3486 N   0  0  0  0  0  0  0  0  0  0  0  0
   14.8779   -6.9747   19.9565 C   0  0  0  0  0  0  0  0  0  0  0  0
   13.9875   -6.4012   20.8791 C   0  0  0  0  0  0  0  0  0  0  0  0
   12.6237   -6.2657   20.5849 C   0  0  0  0  0  0  0  0  0  0  0  0
   12.1453   -6.7118   19.3475 C   0  0  0  0  0  0  0  0  0  0  0  0
   13.0214   -7.2829   18.4237 C   0  0  0  0  0  0  0  0  0  0  0  0
   14.3873   -7.4232   18.7079 C   0  0  0  0  0  0  0  0  0  0  0  0
   10.4472   -6.5645   18.9317 Cl  0  0  0  0  0  0  0  0  0  0  0  0
   16.8025   -6.5916   21.4723 C   0  0  0  0  0  0  0  0  0  0  0  0
   16.2364   -7.1001   20.2716 O   0  0  0  0  0  0  0  0  0  0  0  0
   11.7366   -5.6945   21.5041 O   0  0  0  0  0  0  0  0  0  0  0  0
   12.0985   -5.4117   22.8489 C   0  0  0  0  0  0  0  0  0  0  0  0
   17.5556   -9.8867   12.6324 N   0  0  0  0  0  0  0  0  0  0  0  0
   18.8249   -9.4862   12.0093 C   0  0  0  0  0  0  0  0  0  0  0  0
   18.8824   -9.9100   10.5438 C   0  0  0  0  0  0  0  0  0  0  0  0
   17.6315   -9.5442    9.8760 N   0  0  0  0  0  0  0  0  0  0  0  0
   16.3504   -9.9123   10.4937 C   0  0  0  0  0  0  0  0  0  0  0  0
   16.5547  -10.6076   11.8398 C   0  0  0  0  0  0  0  0  0  0  0  0
   17.6558   -8.7783    8.6558 C   0  0  0  0  0  0  0  0  0  0  0  0
   18.8703   -8.4938    8.0132 C   0  0  0  0  0  0  0  0  0  0  0  0
   18.8735   -7.7505    6.8311 C   0  0  0  0  0  0  0  0  0  0  0  0
   17.7026   -7.3039    6.3037 N   0  0  0  0  0  0  0  0  0  0  0  0
   16.5095   -7.5631    6.9017 C   0  0  0  0  0  0  0  0  0  0  0  0
   16.4652   -8.3030    8.0849 C   0  0  0  0  0  0  0  0  0  0  0  0
   20.1146   -7.4578    6.1720 C   0  0  0  0  0  0  0  0  0  0  0  0
   21.1151   -7.2217    5.6406 N   0  0  0  0  0  0  0  0  0  0  0  0
 17 18  1  0  0  0
 18 10  1  0  0  0
 10 11  2  0  0  0
 11 12  1  0  0  0
 12 13  2  0  0  0
 13 14  1  0  0  0
 14 15  2  0  0  0
 15  1  1  0  0  0
  1  2  2  0  0  0
  2  3  1  0  0  0
  3  4  1  0  0  0
  4  5  2  0  0  0
  5  6  1  0  0  0
  6  7  2  0  0  0
  7  8  1  0  0  0
  8  9  2  0  0  0
  6 21  1  0  0  0
 21 22  1  0  0  0
 22 23  1  0  0  0
 23 24  1  0  0  0
 24 25  1  0  0  0
 25 26  1  0  0  0
 24 27  1  0  0  0
 27 28  2  0  0  0
 28 29  1  0  0  0
 29 30  2  0  0  0
 30 31  1  0  0  0
 31 32  2  0  0  0
 29 33  1  0  0  0
 33 34  3  0  0  0
 13 16  1  0  0  0
 12 19  1  0  0  0
 19 20  1  0  0  0
 15 10  1  0  0  0
  9  1  1  0  0  0
  8  3  1  0  0  0
 26 21  1  0  0  0
 32 27  1  0  0  0
M  END
>  <minimizedAffinity>
-5.06777

>  <minimizedRMSD>
1.18841

$$$$
CHEMBL88009 PubChem-44320732


 36 39  0  0  0  0  0  0  0  0999 V2000
   15.8902   -8.5329   17.9661 C   0  0  0  0  0  0  0  0  0  0  0  0
   15.3011   -7.7401   17.0367 N   0  0  0  0  0  0  0  0  0  0  0  0
   15.6907   -8.0968   15.7874 C   0  0  0  0  0  0  0  0  0  0  0  0
   15.2571   -7.4702   14.6205 C   0  0  0  0  0  0  0  0  0  0  0  0
   15.7396   -7.9403   13.3881 C   0  0  0  0  0  0  0  0  0  0  0  0
   16.6446   -9.0236   13.3272 C   0  0  0  0  0  0  0  0  0  0  0  0
   17.0705   -9.6438   14.5177 C   0  0  0  0  0  0  0  0  0  0  0  0
   16.5779   -9.1593   15.7255 C   0  0  0  0  0  0  0  0  0  0  0  0
   16.9086   -9.6972   17.2799 S   0  0  0  0  0  0  0  0  0  0  0  0
   17.1377   -9.5025   12.0246 C   0  0  0  0  0  0  0  0  0  0  0  0
   17.5076  -10.7016   11.8930 O   0  0  0  0  0  0  0  0  0  0  0  0
   17.2352   -8.5951   10.9196 N   0  0  0  0  0  0  0  0  0  0  0  0
   17.1097   -7.6364   11.1052 H   0  0  0  0  0  0  0  0  0  0  0  0
   17.5022   -8.9791    9.5625 C   0  0  0  0  0  0  0  0  0  0  0  0
   16.6048   -9.7873    8.8269 C   0  0  0  0  0  0  0  0  0  0  0  0
   15.3010  -10.2386    9.3919 C   0  0  0  0  0  0  0  0  0  0  0  0
   16.8984  -10.1267    7.5030 C   0  0  0  0  0  0  0  0  0  0  0  0
   18.0669   -9.6636    6.8970 C   0  0  0  0  0  0  0  0  0  0  0  0
   18.9424   -8.8432    7.6085 C   0  0  0  0  0  0  0  0  0  0  0  0
   18.6598   -8.4902    8.9305 C   0  0  0  0  0  0  0  0  0  0  0  0
   19.7909   -7.4543    9.7855 Cl  0  0  0  0  0  0  0  0  0  0  0  0
   15.6817   -8.4087   19.3781 N   0  0  0  0  0  0  0  0  0  0  0  0
   16.3218   -8.8762   19.9620 H   0  0  0  0  0  0  0  0  0  0  0  0
   11.1967   -6.2705   19.3926 C   0  0  0  0  0  0  0  0  0  0  0  0
   12.4724   -6.6317   20.0632 C   0  0  0  0  0  0  0  0  0  0  0  0
   13.4459   -7.3469   19.3697 C   0  0  0  0  0  0  0  0  0  0  0  0
   14.6364   -7.6734   20.0279 C   0  0  0  0  0  0  0  0  0  0  0  0
   14.8100   -7.2851   21.3191 N   0  0  0  0  0  0  0  0  0  0  0  0
   13.8526   -6.5847   21.9825 C   0  0  0  0  0  0  0  0  0  0  0  0
   12.6896   -6.2653   21.3522 N   0  0  0  0  0  0  0  0  0  0  0  0
   14.0740   -6.2017   23.3411 N   0  0  0  0  0  0  0  0  0  0  0  0
   14.7299   -6.7088   23.8720 H   0  0  0  0  0  0  0  0  0  0  0  0
   13.3723   -5.0945   23.9751 C   0  0  0  0  0  0  0  0  0  0  0  0
   14.0916   -3.7838   23.7022 C   0  0  0  0  0  0  0  0  0  0  0  0
   13.7628   -3.3072   22.4333 O   0  0  0  0  0  0  0  0  0  0  0  0
   14.0320   -3.9561   21.7644 H   0  0  0  0  0  0  0  0  0  0  0  0
 24 25  1  0  0  0
 25 26  2  0  0  0
 26 27  1  0  0  0
 27 22  1  0  0  0
 27 28  2  0  0  0
 22  1  1  0  0  0
  1  2  2  0  0  0
  2  3  1  0  0  0
  3  4  2  0  0  0
  4  5  1  0  0  0
  5  6  2  0  0  0
  6 10  1  0  0  0
  6  7  1  0  0  0
 10 11  2  0  0  0
 10 12  1  0  0  0
 12 14  1  0  0  0
 14 15  2  0  0  0
 15 16  1  0  0  0
 15 17  1  0  0  0
 17 18  2  0  0  0
 18 19  1  0  0  0
 19 20  2  0  0  0
 20 21  1  0  0  0
 20 14  1  0  0  0
  7  8  2  0  0  0
  8  9  1  0  0  0
  8  3  1  0  0  0
  9  1  1  0  0  0
 28 29  1  0  0  0
 29 31  1  0  0  0
 29 30  2  0  0  0
 31 33  1  0  0  0
 33 34  1  0  0  0
 34 35  1  0  0  0
 30 25  1  0  0  0
 22 23  1  0  0  0
 12 13  1  0  0  0
 31 32  1  0  0  0
 35 36  1  0  0  0
M  END
>  <minimizedAffinity>
-5.06669

>  <minimizedRMSD>
1.52012

$$$$
CHEMBL1529936 2930872 MCULE-8083676783 MolPort-007-951-350 PubChem-3240741 ZINC000002930872 ZINC02930872


 36 39  0  0  0  0  0  0  0  0999 V2000
   15.8855   -9.9361   12.1516 C   0  0  0  0  0  0  0  0  0  0  0  0
   14.6969   -9.6485   12.8302 C   0  0  0  0  0  0  0  0  0  0  0  0
   14.7200   -9.3081   14.1857 C   0  0  0  0  0  0  0  0  0  0  0  0
   15.9349   -9.2575   14.8813 C   0  0  0  0  0  0  0  0  0  0  0  0
   17.1254   -9.5556   14.2061 C   0  0  0  0  0  0  0  0  0  0  0  0
   17.1002   -9.8964   12.8512 C   0  0  0  0  0  0  0  0  0  0  0  0
   15.9596   -8.8956   16.3070 C   0  0  0  0  0  0  0  0  0  0  0  0
   16.9423   -9.2589   17.1554 N   0  0  0  0  0  0  0  0  0  0  0  0
   16.5994   -8.7523   18.2999 O   0  0  0  0  0  0  0  0  0  0  0  0
   15.4650   -8.1074   18.1756 C   0  0  0  0  0  0  0  0  0  0  0  0
   15.0001   -8.1628   16.9115 N   0  0  0  0  0  0  0  0  0  0  0  0
   14.7843   -7.4127   19.2767 C   0  0  0  0  0  0  0  0  0  0  0  0
   15.3058   -7.4672   20.5674 C   0  0  0  0  0  0  0  0  0  0  0  0
   14.6769   -6.8181   21.6326 C   0  0  0  0  0  0  0  0  0  0  0  0
   13.4800   -6.0868   21.4030 C   0  0  0  0  0  0  0  0  0  0  0  0
   12.9506   -6.0294   20.0854 C   0  0  0  0  0  0  0  0  0  0  0  0
   13.6129   -6.6952   19.0436 C   0  0  0  0  0  0  0  0  0  0  0  0
   15.2914   -6.9414   22.8891 O   0  0  0  0  0  0  0  0  0  0  0  0
   14.7548   -6.4661   24.1154 C   0  0  0  0  0  0  0  0  0  0  0  0
   12.8617   -5.4444   22.4898 O   0  0  0  0  0  0  0  0  0  0  0  0
   11.6568   -4.6942   22.4298 C   0  0  0  0  0  0  0  0  0  0  0  0
   11.7771   -5.3147   19.8164 O   0  0  0  0  0  0  0  0  0  0  0  0
   11.4690   -4.7808   18.5351 C   0  0  0  0  0  0  0  0  0  0  0  0
   16.8581  -10.2055    9.7831 C   0  0  0  0  0  0  0  0  0  0  0  0
   16.6767  -10.7257    8.6516 O   0  0  0  0  0  0  0  0  0  0  0  0
   15.8167  -10.2984   10.7654 N   0  0  0  0  0  0  0  0  0  0  0  0
   14.9534  -10.6522   10.4512 H   0  0  0  0  0  0  0  0  0  0  0  0
   18.1236   -9.4477   10.0306 C   0  0  0  0  0  0  0  0  0  0  0  0
   19.4210   -7.4565    6.4498 C   0  0  0  0  0  0  0  0  0  0  0  0
   18.1722   -8.0861    6.4946 C   0  0  0  0  0  0  0  0  0  0  0  0
   17.7513   -8.7384    7.6574 C   0  0  0  0  0  0  0  0  0  0  0  0
   18.5800   -8.7675    8.7842 C   0  0  0  0  0  0  0  0  0  0  0  0
   19.8274   -8.1355    8.7472 C   0  0  0  0  0  0  0  0  0  0  0  0
   20.2481   -7.4838    7.5848 C   0  0  0  0  0  0  0  0  0  0  0  0
   20.9471   -5.9601    5.2053 C   0  0  0  0  0  0  0  0  0  0  0  0
   19.8131   -6.8139    5.2724 O   0  0  0  0  0  0  0  0  0  0  0  0
 35 36  1  0  0  0
 36 29  1  0  0  0
 29 30  2  0  0  0
 30 31  1  0  0  0
 31 32  2  0  0  0
 32 28  1  0  0  0
 32 33  1  0  0  0
 28 24  1  0  0  0
 24 25  2  0  0  0
 24 26  1  0  0  0
 26  1  1  0  0  0
  1  2  2  0  0  0
  2  3  1  0  0  0
  3  4  2  0  0  0
  4  5  1  0  0  0
  4  7  1  0  0  0
  5  6  2  0  0  0
  6  1  1  0  0  0
  7  8  2  0  0  0
  8  9  1  0  0  0
  9 10  1  0  0  0
 10 11  2  0  0  0
 10 12  1  0  0  0
 11  7  1  0  0  0
 12 13  2  0  0  0
 13 14  1  0  0  0
 14 18  1  0  0  0
 14 15  2  0  0  0
 18 19  1  0  0  0
 15 20  1  0  0  0
 15 16  1  0  0  0
 20 21  1  0  0  0
 16 22  1  0  0  0
 16 17  2  0  0  0
 22 23  1  0  0  0
 17 12  1  0  0  0
 33 34  2  0  0  0
 34 29  1  0  0  0
 26 27  1  0  0  0
M  END
>  <minimizedAffinity>
-5.03382

>  <minimizedRMSD>
1.32337

$$$$
CHEMBL5172189


 29 32  0  0  0  0  0  0  0  0999 V2000
   15.2639   -7.9673   18.0906 C   0  0  0  0  0  0  0  0  0  0  0  0
   14.8610   -7.3600   16.9423 N   0  0  0  0  0  0  0  0  0  0  0  0
   15.5551   -8.0195   16.0048 C   0  0  0  0  0  0  0  0  0  0  0  0
   16.3332   -8.9747   16.5810 C   0  0  0  0  0  0  0  0  0  0  0  0
   17.1592   -9.8084   15.8322 C   0  0  0  0  0  0  0  0  0  0  0  0
   17.1713   -9.6353   14.4348 C   0  0  0  0  0  0  0  0  0  0  0  0
   16.3555   -8.6373   13.8397 C   0  0  0  0  0  0  0  0  0  0  0  0
   15.5330   -7.8130   14.6290 C   0  0  0  0  0  0  0  0  0  0  0  0
   16.1691   -8.9658   17.9109 N   0  0  0  0  0  0  0  0  0  0  0  0
   14.2202   -6.6213   16.8283 H   0  0  0  0  0  0  0  0  0  0  0  0
   13.5995   -6.6853   21.0882 C   0  0  0  0  0  0  0  0  0  0  0  0
   14.6337   -7.4780   21.5686 C   0  0  0  0  0  0  0  0  0  0  0  0
   14.9601   -7.7261   23.0012 C   0  0  0  0  0  0  0  0  0  0  0  0
   15.3434   -8.0241   20.5623 N   0  0  0  0  0  0  0  0  0  0  0  0
   14.7691   -7.5855   19.4245 C   0  0  0  0  0  0  0  0  0  0  0  0
   13.6919   -6.7585   19.7058 C   0  0  0  0  0  0  0  0  0  0  0  0
   12.8100   -6.0835   18.7077 C   0  0  0  0  0  0  0  0  0  0  0  0
   16.1220   -8.6213   20.6416 H   0  0  0  0  0  0  0  0  0  0  0  0
   12.8382   -5.6987   23.1144 O   0  0  0  0  0  0  0  0  0  0  0  0
   12.6141   -5.9280   21.8970 C   0  0  0  0  0  0  0  0  0  0  0  0
   11.3446   -5.4201   21.3061 C   0  0  0  0  0  0  0  0  0  0  0  0
   17.9921  -10.4636   13.6618 O   0  0  0  0  0  0  0  0  0  0  0  0
   17.8365  -10.6210   12.2562 C   0  0  0  0  0  0  0  0  0  0  0  0
   16.5616   -9.9300   11.7909 C   0  0  0  0  0  0  0  0  0  0  0  0
   16.4296  -10.0588   10.2707 C   0  0  0  0  0  0  0  0  0  0  0  0
   17.5947   -9.5188    9.5552 N   0  0  0  0  0  0  0  0  0  0  0  0
   17.6515   -8.0705    9.7159 C   0  0  0  0  0  0  0  0  0  0  0  0
   18.8466  -10.1269   10.0283 C   0  0  0  0  0  0  0  0  0  0  0  0
   19.0268   -9.9998   11.5442 C   0  0  0  0  0  0  0  0  0  0  0  0
 19 20  2  0  0  0
 20 21  1  0  0  0
 20 11  1  0  0  0
 11 12  2  0  0  0
 12 13  1  0  0  0
 12 14  1  0  0  0
 14 15  1  0  0  0
 15  1  1  0  0  0
  1  2  1  0  0  0
  2  3  1  0  0  0
  3  4  2  0  0  0
  4  5  1  0  0  0
  5  6  2  0  0  0
  6 22  1  0  0  0
 22 23  1  0  0  0
 23 24  1  0  0  0
 24 25  1  0  0  0
 25 26  1  0  0  0
 26 27  1  0  0  0
 26 28  1  0  0  0
 28 29  1  0  0  0
  6  7  1  0  0  0
  7  8  2  0  0  0
  4  9  1  0  0  0
 15 16  2  0  0  0
 16 17  1  0  0  0
 16 11  1  0  0  0
  9  1  2  0  0  0
  8  3  1  0  0  0
 29 23  1  0  0  0
 14 18  1  0  0  0
  2 10  1  0  0  0
M  END
>  <minimizedAffinity>
-5.02791

>  <minimizedRMSD>
1.96114

$$$$
CHEMBL4103541 PubChem-137657055


 36 38  0  0  0  0  0  0  0  0999 V2000
   16.6304   -9.9424   16.3106 C   0  0  0  0  0  0  0  0  0  0  0  0
   16.5811   -9.0275   12.7529 C   0  0  0  0  0  0  0  0  0  0  0  0
   16.8666   -9.8219   13.8217 N   0  0  0  0  0  0  0  0  0  0  0  0
   16.4190   -9.2928   14.9770 C   0  0  0  0  0  0  0  0  0  0  0  0
   15.6711   -7.8137   14.7073 S   0  0  0  0  0  0  0  0  0  0  0  0
   15.9051   -7.8388   13.0400 C   0  0  0  0  0  0  0  0  0  0  0  0
   17.7473   -8.5023   10.5948 N   0  0  0  0  0  0  0  0  0  0  0  0
   16.9698   -9.4080   11.3887 C   0  0  0  0  0  0  0  0  0  0  0  0
   16.6201  -10.5262   10.9217 O   0  0  0  0  0  0  0  0  0  0  0  0
   17.9985   -7.6401   10.9983 H   0  0  0  0  0  0  0  0  0  0  0  0
   18.4667   -8.2995    6.4189 C   0  0  0  0  0  0  0  0  0  0  0  0
   18.3928   -7.8240    5.2983 O   0  0  0  0  0  0  0  0  0  0  0  0
   19.6099   -7.9423    7.3193 C   0  0  0  0  0  0  0  0  0  0  0  0
   19.0928   -7.6367    8.7238 C   0  0  0  0  0  0  0  0  0  0  0  0
   18.1930   -8.7680    9.2303 C   0  0  0  0  0  0  0  0  0  0  0  0
   16.9941   -8.9669    8.2976 C   0  0  0  0  0  0  0  0  0  0  0  0
   17.4583   -9.3061    6.8825 C   0  0  0  0  0  0  0  0  0  0  0  0
   16.3037   -9.0297   17.4030 N   0  0  0  0  0  0  0  0  0  0  0  0
   14.9615   -8.6491   17.7233 C   0  0  0  0  0  0  0  0  0  0  0  0
   13.9954   -9.1443   17.0804 O   0  0  0  0  0  0  0  0  0  0  0  0
   17.0392   -8.6598   17.9429 H   0  0  0  0  0  0  0  0  0  0  0  0
   14.7095   -7.6809   18.8039 C   0  0  0  0  0  0  0  0  0  0  0  0
   13.6368   -6.7905   18.7223 C   0  0  0  0  0  0  0  0  0  0  0  0
   13.3914   -5.8641   19.7459 C   0  0  0  0  0  0  0  0  0  0  0  0
   14.2299   -5.8220   20.8732 C   0  0  0  0  0  0  0  0  0  0  0  0
   15.3217   -6.7228   20.9628 C   0  0  0  0  0  0  0  0  0  0  0  0
   15.5436   -7.6397   19.9232 C   0  0  0  0  0  0  0  0  0  0  0  0
   13.9305   -4.8710   21.8636 O   0  0  0  0  0  0  0  0  0  0  0  0
   13.2017   -5.1340   23.0540 C   0  0  0  0  0  0  0  0  0  0  0  0
   16.1743   -6.7045   22.0728 O   0  0  0  0  0  0  0  0  0  0  0  0
   17.5457   -6.3389   21.9910 C   0  0  0  0  0  0  0  0  0  0  0  0
   12.3162   -4.9717   19.6645 O   0  0  0  0  0  0  0  0  0  0  0  0
   11.5641   -4.7775   18.4742 C   0  0  0  0  0  0  0  0  0  0  0  0
   18.0531  -10.4914   16.4436 C   0  0  0  0  0  0  0  0  0  0  0  0
   18.1480  -11.4245   17.6348 C   0  0  0  0  0  0  0  0  0  0  0  0
   19.0969   -9.3919   16.5698 C   0  0  0  0  0  0  0  0  0  0  0  0
 11 12  2  0  0  0
 11 13  1  0  0  0
 13 14  1  0  0  0
 14 15  1  0  0  0
 15  7  1  0  0  0
  7  8  1  0  0  0
  8  9  2  0  0  0
  8  2  1  0  0  0
  2  3  1  0  0  0
  3  4  2  0  0  0
  4  1  1  0  0  0
  1 18  1  0  0  0
 18 19  1  0  0  0
 19 20  2  0  0  0
 19 22  1  0  0  0
 22 23  2  0  0  0
 23 24  1  0  0  0
 24 25  2  0  0  0
 25 28  1  0  0  0
 28 29  1  0  0  0
 25 26  1  0  0  0
 26 27  2  0  0  0
 26 30  1  0  0  0
 30 31  1  0  0  0
 24 32  1  0  0  0
 32 33  1  0  0  0
  1 34  1  0  0  0
 34 35  1  0  0  0
 34 36  1  0  0  0
  4  5  1  0  0  0
  5  6  1  0  0  0
 15 16  1  0  0  0
 16 17  1  0  0  0
 17 11  1  0  0  0
  6  2  2  0  0  0
 27 22  1  0  0  0
  7 10  1  0  0  0
 18 21  1  0  0  0
M  END
>  <minimizedAffinity>
-5.02419

>  <minimizedRMSD>
1.81687

$$$$
CHEMBL4858163 PubChem-130471969


 32 34  0  0  0  0  0  0  0  0999 V2000
   14.8454   -7.5526   17.9979 N   0  0  0  0  0  0  0  0  0  0  0  0
   15.7118   -8.5844   17.9987 C   0  0  0  0  0  0  0  0  0  0  0  0
   16.1231   -8.7490   16.6960 C   0  0  0  0  0  0  0  0  0  0  0  0
   15.4972   -7.8299   15.9355 N   0  0  0  0  0  0  0  0  0  0  0  0
   14.7248   -7.1230   16.7502 N   0  0  0  0  0  0  0  0  0  0  0  0
   16.0289   -9.4693   19.1579 C   0  0  0  0  0  0  0  0  0  0  0  0
   10.5058   -6.0022   19.6728 C   0  0  0  0  0  0  0  0  0  0  0  0
   11.9473   -6.2505   19.9611 C   0  0  0  0  0  0  0  0  0  0  0  0
   12.7270   -6.7619   18.9210 C   0  0  0  0  0  0  0  0  0  0  0  0
   14.0882   -7.0279   19.0981 C   0  0  0  0  0  0  0  0  0  0  0  0
   14.6941   -6.7381   20.3331 C   0  0  0  0  0  0  0  0  0  0  0  0
   13.9102   -6.2303   21.3793 C   0  0  0  0  0  0  0  0  0  0  0  0
   12.5380   -5.9871   21.2201 C   0  0  0  0  0  0  0  0  0  0  0  0
   11.7832   -5.4564   22.3839 C   0  0  0  0  0  0  0  0  0  0  0  0
   11.9793   -5.9505   23.5292 O   0  0  0  0  0  0  0  0  0  0  0  0
   10.8554   -4.4240   22.2283 O   0  0  0  0  0  0  0  0  0  0  0  0
   10.4566   -3.5998   23.3135 C   0  0  0  0  0  0  0  0  0  0  0  0
   16.0704   -6.9312   20.4970 O   0  0  0  0  0  0  0  0  0  0  0  0
   16.7634   -6.5741   21.6850 C   0  0  0  0  0  0  0  0  0  0  0  0
   17.2084   -9.9798   16.0754 S   0  0  0  0  0  0  0  0  0  0  0  0
   16.7306  -11.3386   16.5046 O   0  0  0  0  0  0  0  0  0  0  0  0
   18.5933   -9.7516   16.6130 O   0  0  0  0  0  0  0  0  0  0  0  0
   17.2502   -9.9005   14.3229 C   0  0  0  0  0  0  0  0  0  0  0  0
   18.4216  -10.2263   13.6340 C   0  0  0  0  0  0  0  0  0  0  0  0
   18.4589  -10.1500   12.2395 C   0  0  0  0  0  0  0  0  0  0  0  0
   17.3210   -9.7599   11.5103 C   0  0  0  0  0  0  0  0  0  0  0  0
   16.1599   -9.4017   12.2192 C   0  0  0  0  0  0  0  0  0  0  0  0
   16.1227   -9.4779   13.6136 C   0  0  0  0  0  0  0  0  0  0  0  0
   17.3823   -9.6089   10.0019 C   0  0  0  0  0  0  0  0  0  0  0  0
   15.9966   -9.6819    9.3778 C   0  0  0  0  0  0  0  0  0  0  0  0
   17.9957   -8.2647    9.6594 C   0  0  0  0  0  0  0  0  0  0  0  0
   18.2258  -10.7026    9.3636 C   0  0  0  0  0  0  0  0  0  0  0  0
  7  8  1  0  0  0
  8  9  2  0  0  0
  9 10  1  0  0  0
 10 11  2  0  0  0
 11 12  1  0  0  0
 12 13  2  0  0  0
 13 14  1  0  0  0
 14 15  2  0  0  0
 14 16  1  0  0  0
 16 17  1  0  0  0
 11 18  1  0  0  0
 18 19  1  0  0  0
 10  1  1  0  0  0
  1  2  1  0  0  0
  2  3  2  0  0  0
  3  4  1  0  0  0
  4  5  2  0  0  0
  3 20  1  0  0  0
 20 21  2  0  0  0
 20 22  2  0  0  0
 20 23  1  0  0  0
 23 24  2  0  0  0
 24 25  1  0  0  0
 25 26  2  0  0  0
 26 27  1  0  0  0
 27 28  2  0  0  0
 26 29  1  0  0  0
 29 30  1  0  0  0
 29 31  1  0  0  0
 29 32  1  0  0  0
  2  6  1  0  0  0
 13  8  1  0  0  0
  5  1  1  0  0  0
 28 23  1  0  0  0
M  END
>  <minimizedAffinity>
-5.01394

>  <minimizedRMSD>
1.30812

$$$$
CHEMBL3754653 PubChem-127036244


 33 36  0  0  0  0  0  0  0  0999 V2000
   17.2629   -9.2014   15.8489 O   0  0  0  0  0  0  0  0  0  0  0  0
   17.0235   -8.8392   17.0717 N   0  0  0  0  0  0  0  0  0  0  0  0
   15.7356   -8.4405   17.0774 C   0  0  0  0  0  0  0  0  0  0  0  0
   15.1654   -8.5518   15.8570 N   0  0  0  0  0  0  0  0  0  0  0  0
   16.1846   -9.0396   15.1232 C   0  0  0  0  0  0  0  0  0  0  0  0
   15.0092   -7.9340   18.2671 C   0  0  0  0  0  0  0  0  0  0  0  0
   13.6081   -7.9697   18.2373 C   0  0  0  0  0  0  0  0  0  0  0  0
   12.8450   -7.5108   19.3121 C   0  0  0  0  0  0  0  0  0  0  0  0
   13.4847   -6.9965   20.4573 C   0  0  0  0  0  0  0  0  0  0  0  0
   14.8801   -6.9661   20.4962 C   0  0  0  0  0  0  0  0  0  0  0  0
   15.6491   -7.4242   19.4227 C   0  0  0  0  0  0  0  0  0  0  0  0
   17.3950   -7.3256   19.6053 Cl  0  0  0  0  0  0  0  0  0  0  0  0
   11.4949   -7.5932   19.2259 F   0  0  0  0  0  0  0  0  0  0  0  0
   12.7903   -6.5151   21.5768 O   0  0  0  0  0  0  0  0  0  0  0  0
   11.9059   -5.3977   21.5610 C   0  0  0  0  0  0  0  0  0  0  0  0
   11.1133   -5.3354   22.8434 C   0  0  0  0  0  0  0  0  0  0  0  0
   10.9955   -3.9947   23.2584 O   0  0  0  0  0  0  0  0  0  0  0  0
   11.7190   -3.2066   22.3430 C   0  0  0  0  0  0  0  0  0  0  0  0
   12.6415   -4.0889   21.5421 C   0  0  0  0  0  0  0  0  0  0  0  0
   13.8639   -4.1923   22.2125 O   0  0  0  0  0  0  0  0  0  0  0  0
   13.7108   -4.5060   23.1175 H   0  0  0  0  0  0  0  0  0  0  0  0
   16.0972   -9.3501   13.6900 C   0  0  0  0  0  0  0  0  0  0  0  0
   17.2283   -9.2325   12.8756 C   0  0  0  0  0  0  0  0  0  0  0  0
   17.1322   -9.5298   11.5143 C   0  0  0  0  0  0  0  0  0  0  0  0
   15.9406   -9.9334   10.9911 N   0  0  0  0  0  0  0  0  0  0  0  0
   14.8271  -10.0553   11.7620 C   0  0  0  0  0  0  0  0  0  0  0  0
   13.5466  -10.4976   11.1518 C   0  0  0  0  0  0  0  0  0  0  0  0
   14.8857   -9.7653   13.1265 C   0  0  0  0  0  0  0  0  0  0  0  0
   18.2903   -9.4113   10.6854 N   0  0  0  0  0  0  0  0  0  0  0  0
   19.0587  -10.0006   10.8630 H   0  0  0  0  0  0  0  0  0  0  0  0
   18.3832   -8.4574    9.5901 C   0  0  0  0  0  0  0  0  0  0  0  0
   19.8038   -7.9388    9.4740 C   0  0  0  0  0  0  0  0  0  0  0  0
   17.9973   -9.1412    8.2957 C   0  0  0  0  0  0  0  0  0  0  0  0
  1  2  1  0  0  0
  2  3  2  0  0  0
  3  4  1  0  0  0
  4  5  2  0  0  0
  5 22  1  0  0  0
 22 23  2  0  0  0
 23 24  1  0  0  0
 24 25  2  0  0  0
 25 26  1  0  0  0
 26 27  1  0  0  0
 26 28  2  0  0  0
 24 29  1  0  0  0
 29 31  1  0  0  0
 31 32  1  0  0  0
 31 33  1  0  0  0
  3  6  1  0  0  0
  6  7  2  0  0  0
  7  8  1  0  0  0
  8  9  2  0  0  0
  9 10  1  0  0  0
 10 11  2  0  0  0
 11 12  1  0  0  0
  9 14  1  0  0  0
 15 14  1  0  0  0
 15 16  1  0  0  0
 16 17  1  0  0  0
 17 18  1  0  0  0
 18 19  1  0  0  0
 19 20  1  0  0  0
  8 13  1  0  0  0
  5  1  1  0  0  0
 28 22  1  0  0  0
 11  6  1  0  0  0
 19 15  1  0  0  0
 29 30  1  0  0  0
 20 21  1  0  0  0
M  END
>  <minimizedAffinity>
-5.01171

>  <minimizedRMSD>
1.78682

$$$$
CHEMBL2031093 PubChem-44463316


 38 40  0  0  0  0  0  0  0  0999 V2000
   16.4851   -9.7082   16.1166 N   0  0  0  0  0  0  0  0  0  0  0  0
   15.5019   -9.7560   16.1329 H   0  0  0  0  0  0  0  0  0  0  0  0
   17.5892  -10.8619   12.7450 C   0  0  0  0  0  0  0  0  0  0  0  0
   18.3110  -12.0191   13.0724 C   0  0  0  0  0  0  0  0  0  0  0  0
   18.4379  -12.4181   14.4048 C   0  0  0  0  0  0  0  0  0  0  0  0
   17.8476  -11.6598   15.4185 C   0  0  0  0  0  0  0  0  0  0  0  0
   17.1363  -10.4921   15.1074 C   0  0  0  0  0  0  0  0  0  0  0  0
   17.0022  -10.1096   13.7683 C   0  0  0  0  0  0  0  0  0  0  0  0
   18.3005   -9.5345   10.6660 C   0  0  0  0  0  0  0  0  0  0  0  0
   19.3560   -9.0971   11.1985 O   0  0  0  0  0  0  0  0  0  0  0  0
   17.4331  -10.4215   11.3891 N   0  0  0  0  0  0  0  0  0  0  0  0
   16.6484  -10.7634   10.9028 H   0  0  0  0  0  0  0  0  0  0  0  0
   18.5190   -8.0518    8.6057 C   0  0  0  0  0  0  0  0  0  0  0  0
   18.2867   -7.8783    7.2361 C   0  0  0  0  0  0  0  0  0  0  0  0
   17.4894   -8.7781    6.5278 C   0  0  0  0  0  0  0  0  0  0  0  0
   16.9175   -9.8673    7.1837 C   0  0  0  0  0  0  0  0  0  0  0  0
   17.1654  -10.0713    8.5420 C   0  0  0  0  0  0  0  0  0  0  0  0
   17.9788   -9.1869    9.2665 C   0  0  0  0  0  0  0  0  0  0  0  0
   18.7549   -5.7738    9.5304 C   0  0  0  0  0  0  0  0  0  0  0  0
   19.2686   -7.0708    9.2620 O   0  0  0  0  0  0  0  0  0  0  0  0
   17.0917   -8.8612   17.1075 C   0  0  0  0  0  0  0  0  0  0  0  0
   18.6040   -8.2629   16.9074 S   0  0  0  0  0  0  0  0  0  0  0  0
   16.3143   -8.3602   18.2003 N   0  0  0  0  0  0  0  0  0  0  0  0
   15.0474   -7.6958   18.0943 C   0  0  0  0  0  0  0  0  0  0  0  0
   14.5029   -7.5317   16.9684 O   0  0  0  0  0  0  0  0  0  0  0  0
   16.6820   -8.4826   19.1053 H   0  0  0  0  0  0  0  0  0  0  0  0
   14.3750   -7.2061   19.3105 C   0  0  0  0  0  0  0  0  0  0  0  0
   13.3322   -6.2807   19.2203 C   0  0  0  0  0  0  0  0  0  0  0  0
   12.6811   -5.8040   20.3693 C   0  0  0  0  0  0  0  0  0  0  0  0
   13.0906   -6.2712   21.6443 C   0  0  0  0  0  0  0  0  0  0  0  0
   14.1393   -7.2026   21.7334 C   0  0  0  0  0  0  0  0  0  0  0  0
   14.7719   -7.6616   20.5694 C   0  0  0  0  0  0  0  0  0  0  0  0
   11.6392   -4.8769   20.2487 O   0  0  0  0  0  0  0  0  0  0  0  0
   10.2824   -5.2557   20.0570 C   0  0  0  0  0  0  0  0  0  0  0  0
   12.4983   -5.8507   22.8473 O   0  0  0  0  0  0  0  0  0  0  0  0
   12.8195   -4.6533   23.5403 C   0  0  0  0  0  0  0  0  0  0  0  0
   14.5370   -7.6603   22.9951 O   0  0  0  0  0  0  0  0  0  0  0  0
   15.7036   -7.1870   23.6544 C   0  0  0  0  0  0  0  0  0  0  0  0
 19 20  1  0  0  0
 20 13  1  0  0  0
 13 14  2  0  0  0
 14 15  1  0  0  0
 15 16  2  0  0  0
 16 17  1  0  0  0
 17 18  2  0  0  0
 18  9  1  0  0  0
 18 13  1  0  0  0
  9 10  2  0  0  0
  9 11  1  0  0  0
 11  3  1  0  0  0
  3  4  2  0  0  0
  4  5  1  0  0  0
  5  6  2  0  0  0
  6  7  1  0  0  0
  7  1  1  0  0  0
  7  8  2  0  0  0
  1 21  1  0  0  0
 21 22  2  0  0  0
 21 23  1  0  0  0
 23 24  1  0  0  0
 24 25  2  0  0  0
 24 27  1  0  0  0
 27 28  2  0  0  0
 28 29  1  0  0  0
 29 33  1  0  0  0
 29 30  2  0  0  0
 33 34  1  0  0  0
 30 35  1  0  0  0
 30 31  1  0  0  0
 35 36  1  0  0  0
 31 37  1  0  0  0
 31 32  2  0  0  0
 37 38  1  0  0  0
 32 27  1  0  0  0
  8  3  1  0  0  0
 11 12  1  0  0  0
  1  2  1  0  0  0
 23 26  1  0  0  0
M  END
>  <minimizedAffinity>
-4.99546

>  <minimizedRMSD>
1.64946

$$$$
CHEMBL580008 PubChem-3096807


 32 35  0  0  0  0  0  0  0  0999 V2000
   16.8478   -8.6921   15.3632 C   0  0  0  0  0  0  0  0  0  0  0  0
   17.6961   -8.2026   16.3240 N   0  0  0  0  0  0  0  0  0  0  0  0
   19.0185   -8.4463   16.1863 C   0  0  0  0  0  0  0  0  0  0  0  0
   20.0222   -8.0736   16.9877 N   0  0  0  0  0  0  0  0  0  0  0  0
   21.0881   -8.5658   16.3960 O   0  0  0  0  0  0  0  0  0  0  0  0
   20.8443   -9.2217   15.2830 N   0  0  0  0  0  0  0  0  0  0  0  0
   19.5155   -9.1404   15.1557 C   0  0  0  0  0  0  0  0  0  0  0  0
   18.7305   -9.6473   14.1789 N   0  0  0  0  0  0  0  0  0  0  0  0
   17.3782   -9.4324   14.2640 C   0  0  0  0  0  0  0  0  0  0  0  0
   15.4291   -8.4715   15.4446 N   0  0  0  0  0  0  0  0  0  0  0  0
   14.8993   -8.6837   14.6424 H   0  0  0  0  0  0  0  0  0  0  0  0
   15.1606   -8.0621   17.7784 C   0  0  0  0  0  0  0  0  0  0  0  0
   14.7241   -7.9812   16.5612 N   0  0  0  0  0  0  0  0  0  0  0  0
   12.4508   -6.3546   19.7996 C   0  0  0  0  0  0  0  0  0  0  0  0
   13.1789   -6.8526   18.7065 C   0  0  0  0  0  0  0  0  0  0  0  0
   14.3868   -7.5352   18.9065 C   0  0  0  0  0  0  0  0  0  0  0  0
   14.8678   -7.7200   20.2054 C   0  0  0  0  0  0  0  0  0  0  0  0
   14.1493   -7.2275   21.2978 C   0  0  0  0  0  0  0  0  0  0  0  0
   12.9447   -6.5469   21.0979 C   0  0  0  0  0  0  0  0  0  0  0  0
   12.2414   -6.0631   22.1939 O   0  0  0  0  0  0  0  0  0  0  0  0
   12.5751   -6.1938   23.0596 H   0  0  0  0  0  0  0  0  0  0  0  0
   11.1583   -4.4304   18.9313 C   0  0  0  0  0  0  0  0  0  0  0  0
   11.2435   -5.6711   19.6190 O   0  0  0  0  0  0  0  0  0  0  0  0
   16.4852   -9.9423   13.2616 N   0  0  0  0  0  0  0  0  0  0  0  0
   15.6853  -10.4129   13.5899 H   0  0  0  0  0  0  0  0  0  0  0  0
   16.6240   -9.8451   11.8371 C   0  0  0  0  0  0  0  0  0  0  0  0
   17.8250   -9.4486   11.2291 C   0  0  0  0  0  0  0  0  0  0  0  0
   17.9201   -9.3664    9.8370 C   0  0  0  0  0  0  0  0  0  0  0  0
   16.8145   -9.6802    9.0426 C   0  0  0  0  0  0  0  0  0  0  0  0
   16.9318   -9.5777    7.2995 Cl  0  0  0  0  0  0  0  0  0  0  0  0
   15.6151  -10.0758    9.6403 C   0  0  0  0  0  0  0  0  0  0  0  0
   15.5219  -10.1575   11.0330 C   0  0  0  0  0  0  0  0  0  0  0  0
 22 23  1  0  0  0
 23 14  1  0  0  0
 14 15  2  0  0  0
 15 16  1  0  0  0
 16 12  1  0  0  0
 16 17  2  0  0  0
 12 13  2  0  0  0
 13 10  1  0  0  0
 10  1  1  0  0  0
  1  2  2  0  0  0
  2  3  1  0  0  0
  3  4  2  0  0  0
  4  5  1  0  0  0
  5  6  1  0  0  0
  6  7  2  0  0  0
  7  8  1  0  0  0
  7  3  1  0  0  0
  8  9  2  0  0  0
  9 24  1  0  0  0
  9  1  1  0  0  0
 24 26  1  0  0  0
 26 27  2  0  0  0
 27 28  1  0  0  0
 28 29  2  0  0  0
 29 30  1  0  0  0
 29 31  1  0  0  0
 31 32  2  0  0  0
 32 26  1  0  0  0
 17 18  1  0  0  0
 18 19  2  0  0  0
 19 20  1  0  0  0
 19 14  1  0  0  0
 10 11  1  0  0  0
 24 25  1  0  0  0
 20 21  1  0  0  0
M  END
>  <minimizedAffinity>
-4.99173

>  <minimizedRMSD>
1.35750

$$$$
CHEMBL1644868 PubChem-53326467


 31 33  0  0  0  0  0  0  0  0999 V2000
   16.1057   -8.7755   15.9138 C   0  0  0  0  0  0  0  0  0  0  0  0
   16.1229   -8.7460   17.2963 C   0  0  0  0  0  0  0  0  0  0  0  0
   15.1854   -7.8403   17.6376 N   0  0  0  0  0  0  0  0  0  0  0  0
   14.6345   -7.3499   16.5387 N   0  0  0  0  0  0  0  0  0  0  0  0
   15.1786   -7.9039   15.4681 N   0  0  0  0  0  0  0  0  0  0  0  0
   14.8201   -7.4509   18.9696 C   0  0  0  0  0  0  0  0  0  0  0  0
   15.7699   -7.4421   19.9955 C   0  0  0  0  0  0  0  0  0  0  0  0
   15.4254   -7.0644   21.3029 C   0  0  0  0  0  0  0  0  0  0  0  0
   14.0887   -6.6854   21.5870 C   0  0  0  0  0  0  0  0  0  0  0  0
   13.1347   -6.6943   20.5549 C   0  0  0  0  0  0  0  0  0  0  0  0
   13.5060   -7.0765   19.2580 C   0  0  0  0  0  0  0  0  0  0  0  0
   16.3972   -7.0666   22.3106 O   0  0  0  0  0  0  0  0  0  0  0  0
   17.6022   -6.3166   22.2275 C   0  0  0  0  0  0  0  0  0  0  0  0
   13.6526   -6.2927   22.8639 O   0  0  0  0  0  0  0  0  0  0  0  0
   13.8516   -5.0076   23.4350 C   0  0  0  0  0  0  0  0  0  0  0  0
   11.8182   -6.3151   20.8427 O   0  0  0  0  0  0  0  0  0  0  0  0
   11.2791   -5.0550   20.4666 C   0  0  0  0  0  0  0  0  0  0  0  0
   16.9684   -9.6227   15.0618 C   0  0  0  0  0  0  0  0  0  0  0  0
   17.8866  -10.2855   15.6183 O   0  0  0  0  0  0  0  0  0  0  0  0
   17.8146   -9.7653   11.3654 C   0  0  0  0  0  0  0  0  0  0  0  0
   17.9263   -9.6654   12.7613 C   0  0  0  0  0  0  0  0  0  0  0  0
   16.8021   -9.7277   13.5908 C   0  0  0  0  0  0  0  0  0  0  0  0
   15.5456   -9.8952   13.0023 C   0  0  0  0  0  0  0  0  0  0  0  0
   15.4025   -9.9995   11.6117 C   0  0  0  0  0  0  0  0  0  0  0  0
   16.5339   -9.9354   10.7819 C   0  0  0  0  0  0  0  0  0  0  0  0
   19.3996   -8.4952    9.9419 C   0  0  0  0  0  0  0  0  0  0  0  0
   18.9609   -9.6955   10.5651 O   0  0  0  0  0  0  0  0  0  0  0  0
   14.1405  -10.1701   11.0305 O   0  0  0  0  0  0  0  0  0  0  0  0
   13.0739  -10.8414   11.6879 C   0  0  0  0  0  0  0  0  0  0  0  0
   16.3246  -10.0460    9.3966 O   0  0  0  0  0  0  0  0  0  0  0  0
   16.4480   -8.9811    8.4650 C   0  0  0  0  0  0  0  0  0  0  0  0
 26 27  1  0  0  0
 27 20  1  0  0  0
 20 21  2  0  0  0
 21 22  1  0  0  0
 22 18  1  0  0  0
 22 23  2  0  0  0
 18 19  2  0  0  0
 18  1  1  0  0  0
  1  2  2  0  0  0
  2  3  1  0  0  0
  3  6  1  0  0  0
  3  4  1  0  0  0
  6  7  2  0  0  0
  7  8  1  0  0  0
  8 12  1  0  0  0
  8  9  2  0  0  0
 12 13  1  0  0  0
  9 14  1  0  0  0
  9 10  1  0  0  0
 14 15  1  0  0  0
 10 16  1  0  0  0
 10 11  2  0  0  0
 16 17  1  0  0  0
 11  6  1  0  0  0
  4  5  2  0  0  0
  5  1  1  0  0  0
 23 24  1  0  0  0
 24 28  1  0  0  0
 24 25  2  0  0  0
 28 29  1  0  0  0
 25 30  1  0  0  0
 25 20  1  0  0  0
 30 31  1  0  0  0
M  END
>  <minimizedAffinity>
-4.99013

>  <minimizedRMSD>
1.74608

$$$$
CHEMBL4567078 PubChem-90154661


 34 37  0  0  0  0  0  0  0  0999 V2000
   13.5063   -6.0305   21.7981 C   0  0  0  0  0  0  0  0  0  0  0  0
   14.3737   -6.8037   22.6095 C   0  0  0  0  0  0  0  0  0  0  0  0
   15.2311   -7.7275   21.9933 C   0  0  0  0  0  0  0  0  0  0  0  0
   15.2245   -7.9009   20.6088 C   0  0  0  0  0  0  0  0  0  0  0  0
   14.3551   -7.1546   19.8073 C   0  0  0  0  0  0  0  0  0  0  0  0
   13.5042   -6.2210   20.4100 C   0  0  0  0  0  0  0  0  0  0  0  0
   14.4556   -3.5212   23.2634 C   0  0  0  0  0  0  0  0  0  0  0  0
   13.0395   -3.8913   22.9800 C   0  0  0  0  0  0  0  0  0  0  0  0
   11.9477   -3.1072   23.3016 C   0  0  0  0  0  0  0  0  0  0  0  0
   10.8331   -3.7902   22.8306 C   0  0  0  0  0  0  0  0  0  0  0  0
   11.3135   -4.9469   22.2465 C   0  0  0  0  0  0  0  0  0  0  0  0
   12.6533   -5.0159   22.3490 N   0  0  0  0  0  0  0  0  0  0  0  0
   10.4585   -5.9838   21.6014 C   0  0  0  0  0  0  0  0  0  0  0  0
   14.3419   -7.3421   18.3456 C   0  0  0  0  0  0  0  0  0  0  0  0
   13.3313   -6.9869   17.6802 O   0  0  0  0  0  0  0  0  0  0  0  0
   15.4813   -7.9277   17.6927 N   0  0  0  0  0  0  0  0  0  0  0  0
   16.2420   -8.1841   18.2626 H   0  0  0  0  0  0  0  0  0  0  0  0
   15.6060   -8.1670   16.3105 N   0  0  0  0  0  0  0  0  0  0  0  0
   16.2198   -9.1956   15.8159 C   0  0  0  0  0  0  0  0  0  0  0  0
   16.3231   -9.4027   14.3681 C   0  0  0  0  0  0  0  0  0  0  0  0
   17.5563   -9.3130   13.7056 C   0  0  0  0  0  0  0  0  0  0  0  0
   17.6259   -9.5099   12.3241 C   0  0  0  0  0  0  0  0  0  0  0  0
   16.4655   -9.8203   11.5961 C   0  0  0  0  0  0  0  0  0  0  0  0
   15.2323   -9.9011   12.2584 C   0  0  0  0  0  0  0  0  0  0  0  0
   15.1640   -9.6909   13.6390 C   0  0  0  0  0  0  0  0  0  0  0  0
   16.5827  -10.0642   10.1843 N   0  0  0  0  0  0  0  0  0  0  0  0
   17.9046  -10.2770    9.5991 C   0  0  0  0  0  0  0  0  0  0  0  0
   18.9107   -9.3157   10.2310 C   0  0  0  0  0  0  0  0  0  0  0  0
   18.8504   -9.4032   11.6563 O   0  0  0  0  0  0  0  0  0  0  0  0
   15.4160  -10.1085    9.3172 C   0  0  0  0  0  0  0  0  0  0  0  0
   14.3923   -6.7096   24.0878 C   0  0  0  0  0  0  0  0  0  0  0  0
   15.3872   -7.1343   24.7339 O   0  0  0  0  0  0  0  0  0  0  0  0
   13.3101   -6.1938   24.7900 O   0  0  0  0  0  0  0  0  0  0  0  0
   12.5611   -5.8732   24.3271 H   0  0  0  0  0  0  0  0  0  0  0  0
  7  8  1  0  0  0
  8  9  2  0  0  0
  9 10  1  0  0  0
 10 11  2  0  0  0
 11 12  1  0  0  0
 11 13  1  0  0  0
 12  1  1  0  0  0
 12  8  1  0  0  0
  1  2  2  0  0  0
  2  3  1  0  0  0
  2 31  1  0  0  0
  3  4  2  0  0  0
  4  5  1  0  0  0
  5  6  2  0  0  0
  5 14  1  0  0  0
  6  1  1  0  0  0
 14 15  2  0  0  0
 14 16  1  0  0  0
 16 18  1  0  0  0
 18 19  2  0  0  0
 19 20  1  0  0  0
 20 21  2  0  0  0
 21 22  1  0  0  0
 22 23  2  0  0  0
 23 24  1  0  0  0
 23 26  1  0  0  0
 24 25  2  0  0  0
 25 20  1  0  0  0
 26 27  1  0  0  0
 26 30  1  0  0  0
 27 28  1  0  0  0
 28 29  1  0  0  0
 29 22  1  0  0  0
 31 32  2  0  0  0
 31 33  1  0  0  0
 16 17  1  0  0  0
 33 34  1  0  0  0
M  END
>  <minimizedAffinity>
-4.95789

>  <minimizedRMSD>
1.97539

$$$$
CHEMBL5178780


 30 34  0  0  0  0  0  0  0  0999 V2000
   15.4161   -8.2106   18.0015 C   0  0  0  0  0  0  0  0  0  0  0  0
   15.1170   -7.7395   16.7631 N   0  0  0  0  0  0  0  0  0  0  0  0
   15.8073   -8.5567   15.9466 C   0  0  0  0  0  0  0  0  0  0  0  0
   15.8533   -8.4784   14.5569 C   0  0  0  0  0  0  0  0  0  0  0  0
   16.6519   -9.4146   13.8627 C   0  0  0  0  0  0  0  0  0  0  0  0
   17.3542  -10.3974   14.5969 C   0  0  0  0  0  0  0  0  0  0  0  0
   17.2710  -10.4240   15.9983 C   0  0  0  0  0  0  0  0  0  0  0  0
   16.5014   -9.4904   16.6092 N   0  0  0  0  0  0  0  0  0  0  0  0
   16.2815   -9.2995   17.9197 C   0  0  0  0  0  0  0  0  0  0  0  0
   13.5327   -7.4121   19.5016 C   0  0  0  0  0  0  0  0  0  0  0  0
   13.1214   -6.8293   20.7123 C   0  0  0  0  0  0  0  0  0  0  0  0
   14.0559   -6.4574   21.6875 C   0  0  0  0  0  0  0  0  0  0  0  0
   15.4125   -6.6754   21.4531 C   0  0  0  0  0  0  0  0  0  0  0  0
   15.8356   -7.2518   20.2538 C   0  0  0  0  0  0  0  0  0  0  0  0
   14.9116   -7.6199   19.2647 C   0  0  0  0  0  0  0  0  0  0  0  0
   13.6639   -5.8720   22.8922 O   0  0  0  0  0  0  0  0  0  0  0  0
   12.3900   -5.2745   23.0726 C   0  0  0  0  0  0  0  0  0  0  0  0
   12.5855   -7.7924   18.5422 O   0  0  0  0  0  0  0  0  0  0  0  0
   11.6960   -6.8701   17.9233 C   0  0  0  0  0  0  0  0  0  0  0  0
   16.7701   -9.3573   12.4268 N   0  0  0  0  0  0  0  0  0  0  0  0
   17.9506   -8.7335   11.8320 C   0  0  0  0  0  0  0  0  0  0  0  0
   18.2087   -9.2949   10.4368 C   0  0  0  0  0  0  0  0  0  0  0  0
   16.9867   -9.1730    9.6397 N   0  0  0  0  0  0  0  0  0  0  0  0
   15.9834  -10.0694   10.2085 C   0  0  0  0  0  0  0  0  0  0  0  0
   15.5862   -9.5656   11.5964 C   0  0  0  0  0  0  0  0  0  0  0  0
   17.2047   -9.5262    8.2274 C   0  0  0  0  0  0  0  0  0  0  0  0
   16.7974   -8.3840    7.3096 C   0  0  0  0  0  0  0  0  0  0  0  0
   17.9483   -8.1763    6.3389 C   0  0  0  0  0  0  0  0  0  0  0  0
   18.8528   -9.3871    6.4724 C   0  0  0  0  0  0  0  0  0  0  0  0
   18.6450   -9.8939    7.8808 C   0  0  0  0  0  0  0  0  0  0  0  0
 10 11  2  0  0  0
 11 12  1  0  0  0
 12 13  2  0  0  0
 13 14  1  0  0  0
 14 15  2  0  0  0
 15  1  1  0  0  0
  1  2  1  0  0  0
  2  3  2  0  0  0
  3  4  1  0  0  0
  4  5  2  0  0  0
  5  6  1  0  0  0
  6  7  2  0  0  0
  7  8  1  0  0  0
  8  9  1  0  0  0
  5 20  1  0  0  0
 20 21  1  0  0  0
 21 22  1  0  0  0
 22 23  1  0  0  0
 23 24  1  0  0  0
 24 25  1  0  0  0
 23 26  1  0  0  0
 26 27  1  0  0  0
 27 28  1  0  0  0
 28 29  1  0  0  0
 29 30  1  0  0  0
 12 16  1  0  0  0
 16 17  1  0  0  0
 10 18  1  0  0  0
 18 19  1  0  0  0
 15 10  1  0  0  0
  9  1  2  0  0  0
 25 20  1  0  0  0
 30 26  1  0  0  0
  8  3  1  0  0  0
M  END
>  <minimizedAffinity>
-4.94408

>  <minimizedRMSD>
1.51781

$$$$
CHEMBL1715630 2316339 ChemDiv-5182-3424 LN00555636 MCULE-4444546706 MolPort-000-779-837 PubChem-1932933 ZINC000002316339


 37 40  0  0  0  0  0  0  0  0999 V2000
   15.3768   -8.4934   15.9705 N   0  0  0  0  0  0  0  0  0  0  0  0
   15.6718   -9.8930   15.6655 C   0  0  0  0  0  0  0  0  0  0  0  0
   16.6592   -9.9679   14.5056 C   0  0  0  0  0  0  0  0  0  0  0  0
   16.1904   -9.1151   13.4145 N   0  0  0  0  0  0  0  0  0  0  0  0
   15.9303   -7.7112   13.7210 C   0  0  0  0  0  0  0  0  0  0  0  0
   14.9436   -7.6187   14.8812 C   0  0  0  0  0  0  0  0  0  0  0  0
   13.0041   -6.3380   19.5358 N   0  0  0  0  0  0  0  0  0  0  0  0
   12.9135   -5.9121   20.8266 C   0  0  0  0  0  0  0  0  0  0  0  0
   13.9652   -6.0955   21.7327 C   0  0  0  0  0  0  0  0  0  0  0  0
   15.1355   -6.7433   21.2854 C   0  0  0  0  0  0  0  0  0  0  0  0
   16.1088   -6.9293   22.0672 O   0  0  0  0  0  0  0  0  0  0  0  0
   15.2126   -7.1852   19.9565 C   0  0  0  0  0  0  0  0  0  0  0  0
   16.3436   -7.8370   19.4582 C   0  0  0  0  0  0  0  0  0  0  0  0
   16.3766   -8.2505   18.1657 N   0  0  0  0  0  0  0  0  0  0  0  0
   15.3214   -8.0423   17.3312 C   0  0  0  0  0  0  0  0  0  0  0  0
   14.2096   -7.4105   17.7981 N   0  0  0  0  0  0  0  0  0  0  0  0
   14.1260   -6.9758   19.0859 C   0  0  0  0  0  0  0  0  0  0  0  0
   13.7965   -5.6017   23.1185 C   0  0  0  0  0  0  0  0  0  0  0  0
   13.4269   -4.2805   23.3445 O   0  0  0  0  0  0  0  0  0  0  0  0
   13.9819   -6.3598   24.1070 O   0  0  0  0  0  0  0  0  0  0  0  0
   13.2850   -3.7032   22.6202 H   0  0  0  0  0  0  0  0  0  0  0  0
   11.5512   -4.6519   18.5159 C   0  0  0  0  0  0  0  0  0  0  0  0
   11.8611   -6.1327   18.6519 C   0  0  0  0  0  0  0  0  0  0  0  0
   15.9646   -9.6236   12.0880 C   0  0  0  0  0  0  0  0  0  0  0  0
   14.6596  -10.5810   11.7844 S   0  0  0  0  0  0  0  0  0  0  0  0
   16.8571   -9.2258   11.0321 N   0  0  0  0  0  0  0  0  0  0  0  0
   16.7413   -9.4824    9.6235 C   0  0  0  0  0  0  0  0  0  0  0  0
   15.8284  -10.2283    9.1761 O   0  0  0  0  0  0  0  0  0  0  0  0
   17.6491   -8.7115   11.3108 H   0  0  0  0  0  0  0  0  0  0  0  0
   17.7136   -8.8824    8.6929 C   0  0  0  0  0  0  0  0  0  0  0  0
   18.7406   -8.0592    9.1755 C   0  0  0  0  0  0  0  0  0  0  0  0
   19.6622   -7.4882    8.2938 C   0  0  0  0  0  0  0  0  0  0  0  0
   19.5678   -7.7336    6.9146 C   0  0  0  0  0  0  0  0  0  0  0  0
   18.5434   -8.5544    6.4327 C   0  0  0  0  0  0  0  0  0  0  0  0
   17.6218   -9.1254    7.3148 C   0  0  0  0  0  0  0  0  0  0  0  0
   20.4733   -7.1775    6.0070 O   0  0  0  0  0  0  0  0  0  0  0  0
   20.3725   -7.3750    4.6034 C   0  0  0  0  0  0  0  0  0  0  0  0
 22 23  1  0  0  0
 23  7  1  0  0  0
  7  8  1  0  0  0
  8  9  2  0  0  0
  9 18  1  0  0  0
  9 10  1  0  0  0
 18 19  1  0  0  0
 18 20  2  0  0  0
 10 11  2  0  0  0
 10 12  1  0  0  0
 12 13  2  0  0  0
 13 14  1  0  0  0
 14 15  2  0  0  0
 15 16  1  0  0  0
 15  1  1  0  0  0
 16 17  2  0  0  0
 17  7  1  0  0  0
 17 12  1  0  0  0
  1  2  1  0  0  0
  2  3  1  0  0  0
  3  4  1  0  0  0
  4  5  1  0  0  0
  4 24  1  0  0  0
  5  6  1  0  0  0
  6  1  1  0  0  0
 24 25  2  0  0  0
 24 26  1  0  0  0
 26 27  1  0  0  0
 27 28  2  0  0  0
 27 30  1  0  0  0
 30 31  2  0  0  0
 31 32  1  0  0  0
 32 33  2  0  0  0
 33 36  1  0  0  0
 33 34  1  0  0  0
 36 37  1  0  0  0
 34 35  2  0  0  0
 35 30  1  0  0  0
 19 21  1  0  0  0
 26 29  1  0  0  0
M  END
>  <minimizedAffinity>
-4.92960

>  <minimizedRMSD>
1.78765

$$$$
CHEMBL3754266 PubChem-127037054


 35 38  0  0  0  0  0  0  0  0999 V2000
   14.9027   -7.7856   18.0833 C   0  0  0  0  0  0  0  0  0  0  0  0
   13.5148   -7.6030   17.9889 C   0  0  0  0  0  0  0  0  0  0  0  0
   12.7950   -6.9866   19.0134 C   0  0  0  0  0  0  0  0  0  0  0  0
   13.4532   -6.5354   20.1600 C   0  0  0  0  0  0  0  0  0  0  0  0
   14.8389   -6.7145   20.2690 C   0  0  0  0  0  0  0  0  0  0  0  0
   15.5691   -7.3305   19.2484 C   0  0  0  0  0  0  0  0  0  0  0  0
   17.3008   -7.4914   19.5053 Cl  0  0  0  0  0  0  0  0  0  0  0  0
   11.4548   -6.8265   18.8867 F   0  0  0  0  0  0  0  0  0  0  0  0
   16.9878   -9.5560   15.8361 O   0  0  0  0  0  0  0  0  0  0  0  0
   16.7369   -9.1482   17.0421 N   0  0  0  0  0  0  0  0  0  0  0  0
   15.5878   -8.4494   16.9478 C   0  0  0  0  0  0  0  0  0  0  0  0
   15.1161   -8.4181   15.6816 N   0  0  0  0  0  0  0  0  0  0  0  0
   16.0479   -9.1372   15.0257 C   0  0  0  0  0  0  0  0  0  0  0  0
   16.0134   -9.4161   13.5837 C   0  0  0  0  0  0  0  0  0  0  0  0
   14.8227   -9.8139   12.9662 C   0  0  0  0  0  0  0  0  0  0  0  0
   14.8144  -10.0737   11.5945 C   0  0  0  0  0  0  0  0  0  0  0  0
   15.9567   -9.9399   10.8688 N   0  0  0  0  0  0  0  0  0  0  0  0
   17.1297   -9.5552   11.4456 C   0  0  0  0  0  0  0  0  0  0  0  0
   17.1749   -9.2856   12.8154 C   0  0  0  0  0  0  0  0  0  0  0  0
   13.5561  -10.4962   10.9268 C   0  0  0  0  0  0  0  0  0  0  0  0
   18.3175   -9.4189   10.6628 N   0  0  0  0  0  0  0  0  0  0  0  0
   19.0797  -10.0110   10.8567 H   0  0  0  0  0  0  0  0  0  0  0  0
   18.4493   -8.4429    9.5912 C   0  0  0  0  0  0  0  0  0  0  0  0
   18.0637   -9.0730    8.2664 C   0  0  0  0  0  0  0  0  0  0  0  0
   19.8859   -7.9712    9.5167 C   0  0  0  0  0  0  0  0  0  0  0  0
   12.7139   -5.9204   21.1767 O   0  0  0  0  0  0  0  0  0  0  0  0
   12.6810   -6.4030   22.5172 C   0  0  0  0  0  0  0  0  0  0  0  0
   13.5323   -5.5323   23.4330 C   0  0  0  0  0  0  0  0  0  0  0  0
   15.0057   -5.9702   23.4073 C   0  0  0  0  0  0  0  0  0  0  0  0
   15.8617   -4.9527   24.0165 N   0  0  0  0  0  0  0  0  0  0  0  0
   15.3302   -3.6801   24.3883 C   0  0  0  0  0  0  0  0  0  0  0  0
   16.0649   -2.8129   24.9273 O   0  0  0  0  0  0  0  0  0  0  0  0
   13.8719   -3.4200   24.1687 C   0  0  0  0  0  0  0  0  0  0  0  0
   13.4103   -4.1757   23.0734 O   0  0  0  0  0  0  0  0  0  0  0  0
   16.8143   -5.1469   24.1719 H   0  0  0  0  0  0  0  0  0  0  0  0
  9 10  1  0  0  0
 10 11  2  0  0  0
 11 12  1  0  0  0
 12 13  2  0  0  0
 13 14  1  0  0  0
 14 15  2  0  0  0
 15 16  1  0  0  0
 16 17  2  0  0  0
 17 18  1  0  0  0
 18 19  2  0  0  0
 18 21  1  0  0  0
 21 23  1  0  0  0
 23 24  1  0  0  0
 23 25  1  0  0  0
 16 20  1  0  0  0
 11  1  1  0  0  0
  1  2  2  0  0  0
  2  3  1  0  0  0
  3  4  2  0  0  0
  4  5  1  0  0  0
  5  6  2  0  0  0
  6  7  1  0  0  0
  4 26  1  0  0  0
 26 27  1  0  0  0
 28 27  1  0  0  0
 28 29  1  0  0  0
 29 30  1  0  0  0
 30 31  1  0  0  0
 31 32  2  0  0  0
 31 33  1  0  0  0
 33 34  1  0  0  0
  3  8  1  0  0  0
 13  9  1  0  0  0
 19 14  1  0  0  0
  6  1  1  0  0  0
 34 28  1  0  0  0
 21 22  1  0  0  0
 30 35  1  0  0  0
M  END
>  <minimizedAffinity>
-4.92612

>  <minimizedRMSD>
1.72119

$$$$
CHEMBL4853314 PubChem-130471986


 30 32  0  0  0  0  0  0  0  0999 V2000
   14.8310   -7.5740   18.0426 N   0  0  0  0  0  0  0  0  0  0  0  0
   15.7014   -8.6028   18.0372 C   0  0  0  0  0  0  0  0  0  0  0  0
   16.1214   -8.7512   16.7356 C   0  0  0  0  0  0  0  0  0  0  0  0
   15.4972   -7.8255   15.9815 N   0  0  0  0  0  0  0  0  0  0  0  0
   14.7170   -7.1307   16.7990 N   0  0  0  0  0  0  0  0  0  0  0  0
   16.0147   -9.5006   19.1879 C   0  0  0  0  0  0  0  0  0  0  0  0
   10.4768   -6.0148   19.7375 C   0  0  0  0  0  0  0  0  0  0  0  0
   11.9213   -6.2854   19.9953 C   0  0  0  0  0  0  0  0  0  0  0  0
   12.7046   -6.7846   18.9524 C   0  0  0  0  0  0  0  0  0  0  0  0
   14.0638   -7.0643   19.1432 C   0  0  0  0  0  0  0  0  0  0  0  0
   14.6577   -6.8016   20.3939 C   0  0  0  0  0  0  0  0  0  0  0  0
   13.8648   -6.3065   21.4416 C   0  0  0  0  0  0  0  0  0  0  0  0
   12.5039   -6.0542   21.2537 C   0  0  0  0  0  0  0  0  0  0  0  0
   11.7345   -5.5467   22.3609 C   0  0  0  0  0  0  0  0  0  0  0  0
   11.1164   -5.1390   23.2504 N   0  0  0  0  0  0  0  0  0  0  0  0
   16.0308   -7.0079   20.5706 O   0  0  0  0  0  0  0  0  0  0  0  0
   16.7331   -6.5757   21.7280 C   0  0  0  0  0  0  0  0  0  0  0  0
   17.2216   -9.9663   16.1097 S   0  0  0  0  0  0  0  0  0  0  0  0
   16.7667  -11.3313   16.5442 O   0  0  0  0  0  0  0  0  0  0  0  0
   18.6066   -9.7164   16.6372 O   0  0  0  0  0  0  0  0  0  0  0  0
   17.2498   -9.8896   14.3567 C   0  0  0  0  0  0  0  0  0  0  0  0
   18.4137  -10.2261   13.6601 C   0  0  0  0  0  0  0  0  0  0  0  0
   18.4424  -10.1511   12.2653 C   0  0  0  0  0  0  0  0  0  0  0  0
   17.3032   -9.7512   11.5434 C   0  0  0  0  0  0  0  0  0  0  0  0
   16.1492   -9.3841   12.2595 C   0  0  0  0  0  0  0  0  0  0  0  0
   16.1207   -9.4591   13.6544 C   0  0  0  0  0  0  0  0  0  0  0  0
   17.3560   -9.6018   10.0345 C   0  0  0  0  0  0  0  0  0  0  0  0
   15.9675   -9.6791    9.4174 C   0  0  0  0  0  0  0  0  0  0  0  0
   17.9642   -8.2565    9.6868 C   0  0  0  0  0  0  0  0  0  0  0  0
   18.1993  -10.6938    9.3932 C   0  0  0  0  0  0  0  0  0  0  0  0
  7  8  1  0  0  0
  8  9  2  0  0  0
  9 10  1  0  0  0
 10 11  2  0  0  0
 11 12  1  0  0  0
 12 13  2  0  0  0
 13 14  1  0  0  0
 14 15  3  0  0  0
 11 16  1  0  0  0
 16 17  1  0  0  0
 10  1  1  0  0  0
  1  2  1  0  0  0
  2  3  2  0  0  0
  3  4  1  0  0  0
  4  5  2  0  0  0
  3 18  1  0  0  0
 18 19  2  0  0  0
 18 20  2  0  0  0
 18 21  1  0  0  0
 21 22  2  0  0  0
 22 23  1  0  0  0
 23 24  2  0  0  0
 24 25  1  0  0  0
 25 26  2  0  0  0
 24 27  1  0  0  0
 27 28  1  0  0  0
 27 29  1  0  0  0
 27 30  1  0  0  0
  2  6  1  0  0  0
 13  8  1  0  0  0
  5  1  1  0  0  0
 26 21  1  0  0  0
M  END
>  <minimizedAffinity>
-4.91696

>  <minimizedRMSD>
1.51045

$$$$
CHEMBL1323298 4400664 MCULE-1315601870 MolPort-000-061-231 PubChem-649512 ZINC000004400664


 37 39  0  0  0  0  0  0  0  0999 V2000
   18.0411   -8.9002   16.1909 C   0  0  0  0  0  0  0  0  0  0  0  0
   18.4032   -9.3834   14.9242 C   0  0  0  0  0  0  0  0  0  0  0  0
   17.4377   -9.8370   14.0224 C   0  0  0  0  0  0  0  0  0  0  0  0
   16.0739   -9.7621   14.3693 C   0  0  0  0  0  0  0  0  0  0  0  0
   15.7164   -9.2834   15.6388 C   0  0  0  0  0  0  0  0  0  0  0  0
   16.6879   -8.8583   16.5545 C   0  0  0  0  0  0  0  0  0  0  0  0
   17.8726  -10.3052   12.7398 N   0  0  0  0  0  0  0  0  0  0  0  0
   17.5850   -9.6709   11.4900 C   0  0  0  0  0  0  0  0  0  0  0  0
   16.6751   -8.8042   11.3992 O   0  0  0  0  0  0  0  0  0  0  0  0
   18.4120  -11.1285   12.7168 H   0  0  0  0  0  0  0  0  0  0  0  0
   18.3654  -10.0472   10.2796 C   0  0  0  0  0  0  0  0  0  0  0  0
   18.1008   -9.1004    9.2097 N   0  0  0  0  0  0  0  0  0  0  0  0
   18.0093   -9.8665    7.9673 C   0  0  0  0  0  0  0  0  0  0  0  0
   17.6460   -8.9551    6.7887 C   0  0  0  0  0  0  0  0  0  0  0  0
   17.9507   -7.4826    7.0777 C   0  0  0  0  0  0  0  0  0  0  0  0
   19.2511   -7.3354    7.8652 C   0  0  0  0  0  0  0  0  0  0  0  0
   19.2672   -8.2166    9.1264 C   0  0  0  0  0  0  0  0  0  0  0  0
   16.3296   -8.3746   17.8580 N   0  0  0  0  0  0  0  0  0  0  0  0
   15.1444   -7.6475   18.2155 C   0  0  0  0  0  0  0  0  0  0  0  0
   14.2975   -7.3267   17.3376 O   0  0  0  0  0  0  0  0  0  0  0  0
   16.9658   -8.5619   18.5856 H   0  0  0  0  0  0  0  0  0  0  0  0
   14.9169   -7.2727   19.6221 C   0  0  0  0  0  0  0  0  0  0  0  0
   13.6287   -6.9929   20.0836 C   0  0  0  0  0  0  0  0  0  0  0  0
   13.4045   -6.6377   21.4217 C   0  0  0  0  0  0  0  0  0  0  0  0
   14.4831   -6.5619   22.3200 C   0  0  0  0  0  0  0  0  0  0  0  0
   15.7940   -6.8444   21.8591 C   0  0  0  0  0  0  0  0  0  0  0  0
   15.9891   -7.1947   20.5135 C   0  0  0  0  0  0  0  0  0  0  0  0
   12.1134   -6.3590   21.8840 O   0  0  0  0  0  0  0  0  0  0  0  0
   11.4498   -5.1298   21.6230 C   0  0  0  0  0  0  0  0  0  0  0  0
   14.1918   -6.2009   23.6465 O   0  0  0  0  0  0  0  0  0  0  0  0
   14.3146   -4.8909   24.1812 C   0  0  0  0  0  0  0  0  0  0  0  0
   16.8884   -6.7762   22.7297 O   0  0  0  0  0  0  0  0  0  0  0  0
   18.1533   -6.2528   22.3448 C   0  0  0  0  0  0  0  0  0  0  0  0
   20.2570   -7.9134   16.6896 C   0  0  0  0  0  0  0  0  0  0  0  0
   19.0094   -8.4547   17.0987 O   0  0  0  0  0  0  0  0  0  0  0  0
   15.0922  -10.1299   13.4419 O   0  0  0  0  0  0  0  0  0  0  0  0
   13.8514  -10.7103   13.8202 C   0  0  0  0  0  0  0  0  0  0  0  0
 34 35  1  0  0  0
 35  1  1  0  0  0
  1  2  2  0  0  0
  2  3  1  0  0  0
  3  7  1  0  0  0
  3  4  2  0  0  0
  7  8  1  0  0  0
  8  9  2  0  0  0
  8 11  1  0  0  0
 11 12  1  0  0  0
 12 13  1  0  0  0
 13 14  1  0  0  0
 14 15  1  0  0  0
 15 16  1  0  0  0
 16 17  1  0  0  0
 17 12  1  0  0  0
  4 36  1  0  0  0
  4  5  1  0  0  0
 36 37  1  0  0  0
  5  6  2  0  0  0
  6 18  1  0  0  0
  6  1  1  0  0  0
 18 19  1  0  0  0
 19 20  2  0  0  0
 19 22  1  0  0  0
 22 23  2  0  0  0
 23 24  1  0  0  0
 24 28  1  0  0  0
 24 25  2  0  0  0
 28 29  1  0  0  0
 25 30  1  0  0  0
 25 26  1  0  0  0
 30 31  1  0  0  0
 26 32  1  0  0  0
 26 27  2  0  0  0
 32 33  1  0  0  0
 27 22  1  0  0  0
  7 10  1  0  0  0
 18 21  1  0  0  0
M  END
>  <minimizedAffinity>
-4.89768

>  <minimizedRMSD>
1.47548

$$$$
CHEMBL3126431 PubChem-25073942


 34 36  0  0  0  0  0  0  0  0999 V2000
   12.6337   -6.7093   19.2073 C   0  0  0  0  0  0  0  0  0  0  0  0
   13.3627   -7.3122   18.1748 C   0  0  0  0  0  0  0  0  0  0  0  0
   14.6874   -7.7121   18.3679 C   0  0  0  0  0  0  0  0  0  0  0  0
   15.2864   -7.5147   19.6142 C   0  0  0  0  0  0  0  0  0  0  0  0
   14.5779   -6.9136   20.6559 C   0  0  0  0  0  0  0  0  0  0  0  0
   15.2625   -6.7145   21.9639 C   0  0  0  0  0  0  0  0  0  0  0  0
   13.2523   -6.4843   20.4639 C   0  0  0  0  0  0  0  0  0  0  0  0
   15.4414   -8.3382   17.2709 C   0  0  0  0  0  0  0  0  0  0  0  0
   16.6680   -8.8780   17.4170 N   0  0  0  0  0  0  0  0  0  0  0  0
   16.9843   -9.3120   16.2355 O   0  0  0  0  0  0  0  0  0  0  0  0
   16.0109   -9.0568   15.3958 C   0  0  0  0  0  0  0  0  0  0  0  0
   14.9847   -8.4290   16.0035 N   0  0  0  0  0  0  0  0  0  0  0  0
   16.0360   -9.4107   13.9703 C   0  0  0  0  0  0  0  0  0  0  0  0
   14.8475   -9.6724   13.2822 C   0  0  0  0  0  0  0  0  0  0  0  0
   14.8983  -10.0090   11.9289 C   0  0  0  0  0  0  0  0  0  0  0  0
   13.6419  -10.2831   11.1850 C   0  0  0  0  0  0  0  0  0  0  0  0
   16.0955  -10.0738   11.2873 N   0  0  0  0  0  0  0  0  0  0  0  0
   17.2738   -9.8196   11.9258 C   0  0  0  0  0  0  0  0  0  0  0  0
   17.2540   -9.4859   13.2884 C   0  0  0  0  0  0  0  0  0  0  0  0
   18.5192   -9.9019   11.2043 N   0  0  0  0  0  0  0  0  0  0  0  0
   19.4671  -10.9842   11.4403 C   0  0  0  0  0  0  0  0  0  0  0  0
   19.1923  -11.6406   12.7802 C   0  0  0  0  0  0  0  0  0  0  0  0
   18.7930   -9.0074   10.0871 C   0  0  0  0  0  0  0  0  0  0  0  0
   17.8671   -9.3178    8.9256 C   0  0  0  0  0  0  0  0  0  0  0  0
   10.4435   -7.5372   18.3928 C   0  0  0  0  0  0  0  0  0  0  0  0
   11.2080   -6.3461   18.9404 C   0  0  0  0  0  0  0  0  0  0  0  0
   12.5954   -5.8689   21.5435 O   0  0  0  0  0  0  0  0  0  0  0  0
   12.3835   -4.4656   21.6724 C   0  0  0  0  0  0  0  0  0  0  0  0
   12.4267   -4.0332   23.1338 C   0  0  0  0  0  0  0  0  0  0  0  0
   11.7499   -4.9608   23.9280 O   0  0  0  0  0  0  0  0  0  0  0  0
   12.1848   -5.8250   23.8575 H   0  0  0  0  0  0  0  0  0  0  0  0
   13.8586   -3.8759   23.6160 C   0  0  0  0  0  0  0  0  0  0  0  0
   13.9172   -2.9138   24.6241 O   0  0  0  0  0  0  0  0  0  0  0  0
   13.6037   -2.0635   24.2781 H   0  0  0  0  0  0  0  0  0  0  0  0
 25 26  1  0  0  0
 26  1  1  0  0  0
  1  2  2  0  0  0
  2  3  1  0  0  0
  3  8  1  0  0  0
  3  4  2  0  0  0
  8  9  2  0  0  0
  9 10  1  0  0  0
 10 11  1  0  0  0
 11 13  1  0  0  0
 11 12  2  0  0  0
 13 14  2  0  0  0
 14 15  1  0  0  0
 15 16  1  0  0  0
 15 17  2  0  0  0
 17 18  1  0  0  0
 18 20  1  0  0  0
 18 19  2  0  0  0
 20 21  1  0  0  0
 20 23  1  0  0  0
 21 22  1  0  0  0
 23 24  1  0  0  0
 19 13  1  0  0  0
 12  8  1  0  0  0
  4  5  1  0  0  0
  5  6  1  0  0  0
  5  7  2  0  0  0
  7 27  1  0  0  0
  7  1  1  0  0  0
 27 28  1  0  0  0
 29 28  1  0  0  0
 29 30  1  0  0  0
 29 32  1  0  0  0
 32 33  1  0  0  0
 30 31  1  0  0  0
 33 34  1  0  0  0
M  END
>  <minimizedAffinity>
-4.88876

>  <minimizedRMSD>
1.74176

$$$$
CHEMBL4160823 PubChem-141501723


 29 31  0  0  0  0  0  0  0  0999 V2000
   16.4428   -9.2239   14.2859 C   0  0  0  0  0  0  0  0  0  0  0  0
   16.9941  -10.0692   13.4022 C   0  0  0  0  0  0  0  0  0  0  0  0
   15.8108   -7.9089   13.8963 C   0  0  0  0  0  0  0  0  0  0  0  0
   15.9506   -6.9630   14.9335 O   0  0  0  0  0  0  0  0  0  0  0  0
   15.1428   -7.4004   16.0017 C   0  0  0  0  0  0  0  0  0  0  0  0
   15.7533   -8.6212   16.6387 C   0  0  0  0  0  0  0  0  0  0  0  0
   15.7804   -8.8355   17.9626 C   0  0  0  0  0  0  0  0  0  0  0  0
   16.3669   -9.5917   15.7136 C   0  0  0  0  0  0  0  0  0  0  0  0
   16.8302  -10.6892   16.1316 O   0  0  0  0  0  0  0  0  0  0  0  0
   17.1408   -9.8958   11.9422 C   0  0  0  0  0  0  0  0  0  0  0  0
   18.3132   -9.2967   11.4705 C   0  0  0  0  0  0  0  0  0  0  0  0
   18.5130   -9.0993   10.1008 C   0  0  0  0  0  0  0  0  0  0  0  0
   17.5345   -9.5010    9.1812 C   0  0  0  0  0  0  0  0  0  0  0  0
   16.3559  -10.1009    9.6518 C   0  0  0  0  0  0  0  0  0  0  0  0
   16.1618  -10.2955   11.0214 C   0  0  0  0  0  0  0  0  0  0  0  0
   19.6871   -8.5027    9.6588 O   0  0  0  0  0  0  0  0  0  0  0  0
   20.3385   -8.2357   10.2772 H   0  0  0  0  0  0  0  0  0  0  0  0
   17.7517   -9.2958    7.8144 O   0  0  0  0  0  0  0  0  0  0  0  0
   17.6395   -8.0186    7.2014 C   0  0  0  0  0  0  0  0  0  0  0  0
   15.2345   -7.9785   19.0349 C   0  0  0  0  0  0  0  0  0  0  0  0
   16.1180   -7.5116   20.0130 C   0  0  0  0  0  0  0  0  0  0  0  0
   15.6602   -6.6976   21.0522 C   0  0  0  0  0  0  0  0  0  0  0  0
   14.3108   -6.3421   21.1232 C   0  0  0  0  0  0  0  0  0  0  0  0
   13.4107   -6.8009   20.1520 C   0  0  0  0  0  0  0  0  0  0  0  0
   13.8811   -7.6185   19.1117 C   0  0  0  0  0  0  0  0  0  0  0  0
   13.8691   -5.5322   22.1619 O   0  0  0  0  0  0  0  0  0  0  0  0
   14.4747   -5.2279   22.8089 H   0  0  0  0  0  0  0  0  0  0  0  0
   12.0629   -6.4359   20.2374 O   0  0  0  0  0  0  0  0  0  0  0  0
   11.2091   -6.3791   19.1027 C   0  0  0  0  0  0  0  0  0  0  0  0
  1  2  2  0  0  0
  2 10  1  0  0  0
 10 11  2  0  0  0
 11 12  1  0  0  0
 12 13  2  0  0  0
 13 14  1  0  0  0
 14 15  2  0  0  0
 13 18  1  0  0  0
 18 19  1  0  0  0
 12 16  1  0  0  0
  1  3  1  0  0  0
  3  4  1  0  0  0
  4  5  1  0  0  0
  5  6  1  0  0  0
  6  7  2  0  0  0
  7 20  1  0  0  0
 20 21  2  0  0  0
 21 22  1  0  0  0
 22 23  2  0  0  0
 23 24  1  0  0  0
 24 25  2  0  0  0
 24 28  1  0  0  0
 28 29  1  0  0  0
 23 26  1  0  0  0
  6  8  1  0  0  0
  8  9  2  0  0  0
  8  1  1  0  0  0
 15 10  1  0  0  0
 25 20  1  0  0  0
 16 17  1  0  0  0
 26 27  1  0  0  0
M  END
>  <minimizedAffinity>
-4.86739

>  <minimizedRMSD>
1.69982

$$$$
CHEMBL1585460 CSC027767271 LN00731206 MCULE-7215829413 MolPort-002-302-763 PubChem-2990290 Z239083442


 33 36  0  0  0  0  0  0  0  0999 V2000
   14.8508   -7.2769   19.4728 C   0  0  0  0  0  0  0  0  0  0  0  0
   13.7925   -6.9490   18.6836 N   0  0  0  0  0  0  0  0  0  0  0  0
   12.9645   -6.3264   19.5439 C   0  0  0  0  0  0  0  0  0  0  0  0
   13.4978   -6.2826   20.7895 C   0  0  0  0  0  0  0  0  0  0  0  0
   14.7045   -6.8843   20.7649 N   0  0  0  0  0  0  0  0  0  0  0  0
   12.7910   -5.6809   21.8292 C   0  0  0  0  0  0  0  0  0  0  0  0
   13.2670   -5.6270   22.9954 O   0  0  0  0  0  0  0  0  0  0  0  0
   11.5590   -5.1455   21.5471 N   0  0  0  0  0  0  0  0  0  0  0  0
   10.7913   -4.5074   22.6124 C   0  0  0  0  0  0  0  0  0  0  0  0
   11.0378   -5.2030   20.2708 C   0  0  0  0  0  0  0  0  0  0  0  0
    9.9015   -4.7046   20.0315 O   0  0  0  0  0  0  0  0  0  0  0  0
   11.7471   -5.7996   19.2574 N   0  0  0  0  0  0  0  0  0  0  0  0
   11.2137   -5.8718   17.9027 C   0  0  0  0  0  0  0  0  0  0  0  0
   15.6679   -7.1142   21.8441 C   0  0  0  0  0  0  0  0  0  0  0  0
   16.2930   -5.8065   22.3131 C   0  0  0  0  0  0  0  0  0  0  0  0
   15.0746   -7.9419   22.9546 C   0  0  0  0  0  0  0  0  0  0  0  0
   14.0886   -9.0126   22.6305 C   0  0  0  0  0  0  0  0  0  0  0  0
   15.4063   -7.7693   24.1173 O   0  0  0  0  0  0  0  0  0  0  0  0
   16.0619   -8.0065   18.9690 C   0  0  0  0  0  0  0  0  0  0  0  0
   16.2840   -9.3305   15.0404 N   0  0  0  0  0  0  0  0  0  0  0  0
   15.2039   -8.4024   15.3782 C   0  0  0  0  0  0  0  0  0  0  0  0
   15.5181   -7.7167   16.7051 C   0  0  0  0  0  0  0  0  0  0  0  0
   15.7715   -8.7228   17.7363 N   0  0  0  0  0  0  0  0  0  0  0  0
   16.9881   -9.4479   17.3766 C   0  0  0  0  0  0  0  0  0  0  0  0
   16.7620  -10.2341   16.0877 C   0  0  0  0  0  0  0  0  0  0  0  0
   17.5540   -9.8068   11.0028 C   0  0  0  0  0  0  0  0  0  0  0  0
   16.2432   -9.3958   11.2891 C   0  0  0  0  0  0  0  0  0  0  0  0
   15.8269   -9.2411   12.6139 C   0  0  0  0  0  0  0  0  0  0  0  0
   16.7107   -9.4964   13.6750 C   0  0  0  0  0  0  0  0  0  0  0  0
   18.0219   -9.9042   13.3801 C   0  0  0  0  0  0  0  0  0  0  0  0
   18.4386  -10.0585   12.0552 C   0  0  0  0  0  0  0  0  0  0  0  0
   17.1841   -9.6918    8.5598 C   0  0  0  0  0  0  0  0  0  0  0  0
   18.0004   -9.9716    9.6887 O   0  0  0  0  0  0  0  0  0  0  0  0
 32 33  1  0  0  0
 33 26  1  0  0  0
 26 27  2  0  0  0
 27 28  1  0  0  0
 28 29  2  0  0  0
 29 30  1  0  0  0
 29 20  1  0  0  0
 30 31  2  0  0  0
 31 26  1  0  0  0
 20 21  1  0  0  0
 21 22  1  0  0  0
 22 23  1  0  0  0
 23 19  1  0  0  0
 23 24  1  0  0  0
 19  1  1  0  0  0
  1  2  2  0  0  0
  2  3  1  0  0  0
  3  4  2  0  0  0
  4  5  1  0  0  0
  4  6  1  0  0  0
  5  1  1  0  0  0
 14  5  1  0  0  0
 14 15  1  0  0  0
 14 16  1  0  0  0
 16 17  1  0  0  0
 16 18  2  0  0  0
  6  7  2  0  0  0
  6  8  1  0  0  0
  8  9  1  0  0  0
  8 10  1  0  0  0
 10 11  2  0  0  0
 10 12  1  0  0  0
 12 13  1  0  0  0
 12  3  1  0  0  0
 24 25  1  0  0  0
 25 20  1  0  0  0
M  END
>  <minimizedAffinity>
-4.86229

>  <minimizedRMSD>
1.08725

$$$$
CHEMBL3904835 PubChem-118189049


 34 38  0  0  0  0  0  0  0  0999 V2000
   16.5514   -8.3684   12.8163 N   0  0  0  0  0  0  0  0  0  0  0  0
   17.1796   -9.4021   12.1881 C   0  0  0  0  0  0  0  0  0  0  0  0
   17.5359  -10.5026   12.9080 N   0  0  0  0  0  0  0  0  0  0  0  0
   17.2746  -10.5927   14.2378 C   0  0  0  0  0  0  0  0  0  0  0  0
   16.6207   -9.5501   14.8874 C   0  0  0  0  0  0  0  0  0  0  0  0
   16.2788   -8.4102   14.1461 C   0  0  0  0  0  0  0  0  0  0  0  0
   15.5370   -7.2736   14.7890 C   0  0  0  0  0  0  0  0  0  0  0  0
   15.6138   -7.3565   16.3143 C   0  0  0  0  0  0  0  0  0  0  0  0
   15.2857   -8.7127   16.7539 N   0  0  0  0  0  0  0  0  0  0  0  0
   16.3862   -9.5980   16.3695 C   0  0  0  0  0  0  0  0  0  0  0  0
   17.4668   -9.3184   10.7357 C   0  0  0  0  0  0  0  0  0  0  0  0
   18.7014   -8.8472   10.2351 C   0  0  0  0  0  0  0  0  0  0  0  0
   18.9222   -8.7874    8.8553 C   0  0  0  0  0  0  0  0  0  0  0  0
   17.9280   -9.1915    7.9624 C   0  0  0  0  0  0  0  0  0  0  0  0
   16.7055   -9.6585    8.4465 C   0  0  0  0  0  0  0  0  0  0  0  0
   16.4781   -9.7209    9.8230 C   0  0  0  0  0  0  0  0  0  0  0  0
   19.6958   -8.4442   11.0645 F   0  0  0  0  0  0  0  0  0  0  0  0
   18.1633   -9.1268    6.5480 C   0  0  0  0  0  0  0  0  0  0  0  0
   18.3531   -9.0745    5.4075 N   0  0  0  0  0  0  0  0  0  0  0  0
   15.2544   -8.6953   18.2070 C   0  0  0  0  0  0  0  0  0  0  0  0
   14.1505   -7.7689   18.6979 C   0  0  0  0  0  0  0  0  0  0  0  0
   12.9441   -8.4652   18.7956 O   0  0  0  0  0  0  0  0  0  0  0  0
   13.0380   -9.1864   19.4375 H   0  0  0  0  0  0  0  0  0  0  0  0
   14.5097   -7.1664   20.0234 C   0  0  0  0  0  0  0  0  0  0  0  0
   15.8220   -7.3191   20.5298 C   0  0  0  0  0  0  0  0  0  0  0  0
   16.1852   -6.7693   21.7681 C   0  0  0  0  0  0  0  0  0  0  0  0
   15.2112   -6.0727   22.4762 C   0  0  0  0  0  0  0  0  0  0  0  0
   13.9302   -5.9126   22.0059 C   0  0  0  0  0  0  0  0  0  0  0  0
   13.5448   -6.4522   20.7742 C   0  0  0  0  0  0  0  0  0  0  0  0
   12.1475   -6.2678   20.2777 C   0  0  0  0  0  0  0  0  0  0  0  0
   13.1103   -5.1200   22.9860 C   0  0  0  0  0  0  0  0  0  0  0  0
   14.0381   -4.8497   24.0432 O   0  0  0  0  0  0  0  0  0  0  0  0
   15.2743   -5.4072   23.7489 C   0  0  0  0  0  0  0  0  0  0  0  0
   16.2843   -5.3307   24.4961 O   0  0  0  0  0  0  0  0  0  0  0  0
  1  2  2  0  0  0
  2  3  1  0  0  0
  3  4  2  0  0  0
  4  5  1  0  0  0
  5  6  2  0  0  0
  6  7  1  0  0  0
  7  8  1  0  0  0
  8  9  1  0  0  0
  9 10  1  0  0  0
  9 20  1  0  0  0
 20 21  1  0  0  0
 21 24  1  0  0  0
 24 25  2  0  0  0
 25 26  1  0  0  0
 26 27  2  0  0  0
 27 28  1  0  0  0
 28 29  2  0  0  0
 29 30  1  0  0  0
 28 31  1  0  0  0
 31 32  1  0  0  0
 32 33  1  0  0  0
 33 34  2  0  0  0
 21 22  1  0  0  0
  2 11  1  0  0  0
 11 12  2  0  0  0
 12 13  1  0  0  0
 13 14  2  0  0  0
 14 15  1  0  0  0
 15 16  2  0  0  0
 14 18  1  0  0  0
 18 19  3  0  0  0
 12 17  1  0  0  0
  6  1  1  0  0  0
 29 24  1  0  0  0
 16 11  1  0  0  0
 10  5  1  0  0  0
 33 27  1  0  0  0
 22 23  1  0  0  0
M  END
>  <minimizedAffinity>
-4.83965

>  <minimizedRMSD>
1.99322

$$$$
CHEMBL1901908 9519580 MCULE-9207427434 MolPort-003-089-626 PubChem-18563378 ZINC000009519580 ZINC09519580


 35 37  0  0  0  0  0  0  0  0999 V2000
   15.7682   -8.3709   17.0372 S   0  0  0  0  0  0  0  0  0  0  0  0
   17.2069   -8.5876   17.4149 O   0  0  0  0  0  0  0  0  0  0  0  0
   15.6863   -7.2694   16.0180 O   0  0  0  0  0  0  0  0  0  0  0  0
   14.3053   -7.5485   20.5944 N   0  0  0  0  0  0  0  0  0  0  0  0
   15.2914   -7.9965   19.7813 C   0  0  0  0  0  0  0  0  0  0  0  0
   14.8550   -7.9117   18.4621 C   0  0  0  0  0  0  0  0  0  0  0  0
   13.5787   -7.3930   18.4936 C   0  0  0  0  0  0  0  0  0  0  0  0
   12.6830   -7.0938   17.4688 C   0  0  0  0  0  0  0  0  0  0  0  0
   11.4353   -6.5573   17.8345 C   0  0  0  0  0  0  0  0  0  0  0  0
   11.1189   -6.3354   19.1928 C   0  0  0  0  0  0  0  0  0  0  0  0
   12.0457   -6.6478   20.2038 C   0  0  0  0  0  0  0  0  0  0  0  0
   13.2746   -7.1799   19.8111 C   0  0  0  0  0  0  0  0  0  0  0  0
   14.3868   -7.4387   22.0440 C   0  0  0  0  0  0  0  0  0  0  0  0
   15.8984   -5.9408   23.4569 N   0  0  0  0  0  0  0  0  0  0  0  0
   14.9013   -6.0882   22.4310 C   0  0  0  0  0  0  0  0  0  0  0  0
   14.4634   -5.0756   21.8218 O   0  0  0  0  0  0  0  0  0  0  0  0
   15.9474   -7.3095   25.4796 C   0  0  0  0  0  0  0  0  0  0  0  0
   16.4992   -7.1142   24.0795 C   0  0  0  0  0  0  0  0  0  0  0  0
   16.4425   -4.6266   23.7819 C   0  0  0  0  0  0  0  0  0  0  0  0
   15.5031   -3.8831   24.7140 C   0  0  0  0  0  0  0  0  0  0  0  0
   15.0958   -9.8826   16.3720 C   0  0  0  0  0  0  0  0  0  0  0  0
   15.8465  -10.3009   15.1560 C   0  0  0  0  0  0  0  0  0  0  0  0
   16.6136  -11.2981   15.2159 O   0  0  0  0  0  0  0  0  0  0  0  0
   15.6453   -9.6060   13.9206 N   0  0  0  0  0  0  0  0  0  0  0  0
   14.8547   -9.0233   13.8521 H   0  0  0  0  0  0  0  0  0  0  0  0
   16.5028   -9.6912   12.7757 C   0  0  0  0  0  0  0  0  0  0  0  0
   15.9114   -9.7609   11.5098 C   0  0  0  0  0  0  0  0  0  0  0  0
   16.6933   -9.8321   10.3543 C   0  0  0  0  0  0  0  0  0  0  0  0
   18.0904   -9.8199   10.4679 C   0  0  0  0  0  0  0  0  0  0  0  0
   18.6919   -9.7208   11.7232 C   0  0  0  0  0  0  0  0  0  0  0  0
   17.9091   -9.6415   12.8866 C   0  0  0  0  0  0  0  0  0  0  0  0
   16.0589   -9.9147    9.1118 O   0  0  0  0  0  0  0  0  0  0  0  0
   16.7190   -9.6101    7.8907 C   0  0  0  0  0  0  0  0  0  0  0  0
   18.5089   -9.4818   14.1413 O   0  0  0  0  0  0  0  0  0  0  0  0
   19.5429  -10.3327   14.6173 C   0  0  0  0  0  0  0  0  0  0  0  0
 17 18  1  0  0  0
 18 14  1  0  0  0
 14 19  1  0  0  0
 14 15  1  0  0  0
 19 20  1  0  0  0
 15 16  2  0  0  0
 15 13  1  0  0  0
 13  4  1  0  0  0
  4  5  1  0  0  0
  5  6  2  0  0  0
  6  7  1  0  0  0
  6  1  1  0  0  0
  7  8  2  0  0  0
  8  9  1  0  0  0
  9 10  2  0  0  0
 10 11  1  0  0  0
 11 12  2  0  0  0
 12  4  1  0  0  0
 12  7  1  0  0  0
  1  2  2  0  0  0
  1  3  2  0  0  0
  1 21  1  0  0  0
 21 22  1  0  0  0
 22 23  2  0  0  0
 22 24  1  0  0  0
 24 26  1  0  0  0
 26 27  2  0  0  0
 27 28  1  0  0  0
 28 32  1  0  0  0
 28 29  2  0  0  0
 32 33  1  0  0  0
 29 30  1  0  0  0
 30 31  2  0  0  0
 31 34  1  0  0  0
 31 26  1  0  0  0
 34 35  1  0  0  0
 24 25  1  0  0  0
M  END
>  <minimizedAffinity>
-4.83928

>  <minimizedRMSD>
1.30984

$$$$
CHEMBL5179573


 37 40  0  0  0  0  0  0  0  0999 V2000
   16.0196   -9.0246   16.7948 N   0  0  0  0  0  0  0  0  0  0  0  0
   16.2001   -8.2915   15.5696 C   0  0  0  0  0  0  0  0  0  0  0  0
   16.1357   -7.0308   15.5681 O   0  0  0  0  0  0  0  0  0  0  0  0
   16.7501  -10.2749   16.9658 C   0  0  0  0  0  0  0  0  0  0  0  0
   13.3345   -7.7881   19.8712 C   0  0  0  0  0  0  0  0  0  0  0  0
   14.6945   -7.9680   20.1491 C   0  0  0  0  0  0  0  0  0  0  0  0
   15.5754   -8.3590   19.1373 C   0  0  0  0  0  0  0  0  0  0  0  0
   15.1147   -8.5757   17.8277 C   0  0  0  0  0  0  0  0  0  0  0  0
   13.7483   -8.4024   17.5603 C   0  0  0  0  0  0  0  0  0  0  0  0
   12.8599   -8.0158   18.5662 C   0  0  0  0  0  0  0  0  0  0  0  0
   11.4199   -7.8441   18.2158 C   0  0  0  0  0  0  0  0  0  0  0  0
   12.3944   -7.3874   20.9819 C   0  0  0  0  0  0  0  0  0  0  0  0
   14.9083   -6.1574   23.4749 C   0  0  0  0  0  0  0  0  0  0  0  0
   15.0583   -4.7908   22.9777 N   0  0  0  0  0  0  0  0  0  0  0  0
   13.7418   -4.2685   22.6101 C   0  0  0  0  0  0  0  0  0  0  0  0
   13.1178   -5.1426   21.5223 C   0  0  0  0  0  0  0  0  0  0  0  0
   12.9953   -6.5218   22.0067 N   0  0  0  0  0  0  0  0  0  0  0  0
   14.3126   -7.0391   22.3814 C   0  0  0  0  0  0  0  0  0  0  0  0
   13.8864   -2.8533   22.0959 C   0  0  0  0  0  0  0  0  0  0  0  0
   15.6669   -4.7899   22.1591 H   0  0  0  0  0  0  0  0  0  0  0  0
   16.4189   -9.0188   14.2793 C   0  0  0  0  0  0  0  0  0  0  0  0
   15.7093   -8.2729   13.1487 C   0  0  0  0  0  0  0  0  0  0  0  0
   15.9348   -8.9825   11.8183 C   0  0  0  0  0  0  0  0  0  0  0  0
   17.4276   -9.0784   11.5252 C   0  0  0  0  0  0  0  0  0  0  0  0
   18.1214   -9.8627   12.6386 C   0  0  0  0  0  0  0  0  0  0  0  0
   17.9131   -9.1628   13.9797 C   0  0  0  0  0  0  0  0  0  0  0  0
   17.6246   -9.7191   10.2686 O   0  0  0  0  0  0  0  0  0  0  0  0
   18.2048   -9.0787    9.1675 C   0  0  0  0  0  0  0  0  0  0  0  0
   19.1996   -8.1031    9.3250 C   0  0  0  0  0  0  0  0  0  0  0  0
   19.7597   -7.4815    8.2074 C   0  0  0  0  0  0  0  0  0  0  0  0
   19.3311   -7.8226    6.9225 C   0  0  0  0  0  0  0  0  0  0  0  0
   18.3286   -8.7948    6.7574 C   0  0  0  0  0  0  0  0  0  0  0  0
   17.7784   -9.4200    7.8815 C   0  0  0  0  0  0  0  0  0  0  0  0
   20.0658   -7.0180    5.5423 Cl  0  0  0  0  0  0  0  0  0  0  0  0
   17.8725   -9.2212    5.4011 C   0  0  0  0  0  0  0  0  0  0  0  0
   18.0436   -8.1723    4.4965 O   0  0  0  0  0  0  0  0  0  0  0  0
   17.5205   -7.4080    4.7848 H   0  0  0  0  0  0  0  0  0  0  0  0
 13 14  1  0  0  0
 14 15  1  0  0  0
 15 16  1  0  0  0
 16 17  1  0  0  0
 17 18  1  0  0  0
 17 12  1  0  0  0
 12  5  1  0  0  0
  5  6  2  0  0  0
  6  7  1  0  0  0
  7  8  2  0  0  0
  8  9  1  0  0  0
  9 10  2  0  0  0
 10 11  1  0  0  0
  8  1  1  0  0  0
  1  2  1  0  0  0
  2  3  2  0  0  0
 21  2  1  0  0  0
 21 22  1  0  0  0
 22 23  1  0  0  0
 23 24  1  0  0  0
 24 25  1  0  0  0
 25 26  1  0  0  0
 24 27  1  0  0  0
 27 28  1  0  0  0
 28 29  2  0  0  0
 29 30  1  0  0  0
 30 31  2  0  0  0
 31 32  1  0  0  0
 32 33  2  0  0  0
 32 35  1  0  0  0
 35 36  1  0  0  0
 31 34  1  0  0  0
  1  4  1  0  0  0
 15 19  1  0  0  0
 18 13  1  0  0  0
 10  5  1  0  0  0
 26 21  1  0  0  0
 33 28  1  0  0  0
 14 20  1  0  0  0
 36 37  1  0  0  0
M  END
>  <minimizedAffinity>
-4.80595

>  <minimizedRMSD>
1.53727

$$$$
CHEMBL5205844


 32 35  0  0  0  0  0  0  0  0999 V2000
   16.6745   -9.3584   14.5493 C   0  0  0  0  0  0  0  0  0  0  0  0
   17.9595   -9.6489   15.0210 C   0  0  0  0  0  0  0  0  0  0  0  0
   18.2800   -9.3821   16.3509 C   0  0  0  0  0  0  0  0  0  0  0  0
   17.3206   -8.8297   17.1984 C   0  0  0  0  0  0  0  0  0  0  0  0
   16.0387   -8.5459   16.7079 C   0  0  0  0  0  0  0  0  0  0  0  0
   15.7587   -8.8194   15.4012 N   0  0  0  0  0  0  0  0  0  0  0  0
   14.9838   -7.9579   17.5736 C   0  0  0  0  0  0  0  0  0  0  0  0
   13.6853   -7.7728   17.0249 C   0  0  0  0  0  0  0  0  0  0  0  0
   12.6404   -7.2227   17.7881 C   0  0  0  0  0  0  0  0  0  0  0  0
   12.9259   -6.8672   19.0994 C   0  0  0  0  0  0  0  0  0  0  0  0
   14.1567   -7.0350   19.6413 C   0  0  0  0  0  0  0  0  0  0  0  0
   15.2219   -7.5751   18.9251 C   0  0  0  0  0  0  0  0  0  0  0  0
   16.4312   -7.7175   19.5237 F   0  0  0  0  0  0  0  0  0  0  0  0
   14.1257   -6.6031   20.9103 N   0  0  0  0  0  0  0  0  0  0  0  0
   12.8775   -6.1829   21.1105 N   0  0  0  0  0  0  0  0  0  0  0  0
   12.1191   -6.3299   20.0254 N   0  0  0  0  0  0  0  0  0  0  0  0
   11.4045   -7.0482   17.2600 F   0  0  0  0  0  0  0  0  0  0  0  0
   14.8680   -6.5977   21.5570 H   0  0  0  0  0  0  0  0  0  0  0  0
   16.2223   -9.9440   10.7047 C   0  0  0  0  0  0  0  0  0  0  0  0
   17.3601   -9.4339   11.8278 S   0  0  0  0  0  0  0  0  0  0  0  0
   16.3192   -9.6352   13.1410 C   0  0  0  0  0  0  0  0  0  0  0  0
   15.0925  -10.0923   12.6402 C   0  0  0  0  0  0  0  0  0  0  0  0
   15.0465  -10.2524   11.2902 N   0  0  0  0  0  0  0  0  0  0  0  0
   13.8968  -10.3843   13.4803 C   0  0  0  0  0  0  0  0  0  0  0  0
   16.4383   -9.9679    9.2332 C   0  0  0  0  0  0  0  0  0  0  0  0
   17.6408   -9.3307    8.9269 O   0  0  0  0  0  0  0  0  0  0  0  0
   17.7591   -9.4468    7.5391 C   0  0  0  0  0  0  0  0  0  0  0  0
   19.0564   -7.3555    7.9453 C   0  0  0  0  0  0  0  0  0  0  0  0
   18.2520   -8.1425    6.9280 C   0  0  0  0  0  0  0  0  0  0  0  0
   19.1360   -8.4588    5.7405 C   0  0  0  0  0  0  0  0  0  0  0  0
   17.1665   -7.3779    6.4995 O   0  0  0  0  0  0  0  0  0  0  0  0
   17.4879   -6.5490    6.1116 H   0  0  0  0  0  0  0  0  0  0  0  0
 28 29  1  0  0  0
 29 30  1  0  0  0
 29 27  1  0  0  0
 27 26  1  0  0  0
 26 25  1  0  0  0
 25 19  1  0  0  0
 19 20  1  0  0  0
 20 21  1  0  0  0
 21  1  1  0  0  0
  1  2  2  0  0  0
  2  3  1  0  0  0
  3  4  2  0  0  0
  4  5  1  0  0  0
  5  7  1  0  0  0
  7  8  2  0  0  0
  8  9  1  0  0  0
  9 10  2  0  0  0
 10 11  1  0  0  0
 11 12  2  0  0  0
 12 13  1  0  0  0
 11 14  1  0  0  0
 14 15  1  0  0  0
 15 16  2  0  0  0
  9 17  1  0  0  0
  5  6  2  0  0  0
 21 22  2  0  0  0
 22 23  1  0  0  0
 22 24  1  0  0  0
 29 31  1  0  0  0
 23 19  2  0  0  0
  6  1  1  0  0  0
 12  7  1  0  0  0
 16 10  1  0  0  0
 14 18  1  0  0  0
 31 32  1  0  0  0
M  END
>  <minimizedAffinity>
-4.78937

>  <minimizedRMSD>
1.86380

$$$$
CHEMBL3672973 PubChem-71086815


 30 33  0  0  0  0  0  0  0  0999 V2000
   14.6838   -8.1326   17.0595 N   0  0  0  0  0  0  0  0  0  0  0  0
   15.8728   -8.4670   16.3293 C   0  0  0  0  0  0  0  0  0  0  0  0
   17.0148   -8.2684   16.8240 O   0  0  0  0  0  0  0  0  0  0  0  0
   13.8268   -8.3150   16.6106 H   0  0  0  0  0  0  0  0  0  0  0  0
   14.4264   -6.4236   20.9429 C   0  0  0  0  0  0  0  0  0  0  0  0
   13.3692   -6.2905   20.0329 C   0  0  0  0  0  0  0  0  0  0  0  0
   13.4564   -6.8529   18.7564 C   0  0  0  0  0  0  0  0  0  0  0  0
   14.6091   -7.5604   18.3746 C   0  0  0  0  0  0  0  0  0  0  0  0
   15.6634   -7.6921   19.2911 C   0  0  0  0  0  0  0  0  0  0  0  0
   15.5722   -7.1283   20.5659 C   0  0  0  0  0  0  0  0  0  0  0  0
   12.1047   -6.6565   17.6535 Cl  0  0  0  0  0  0  0  0  0  0  0  0
   12.1940   -4.1413   22.8493 C   0  0  0  0  0  0  0  0  0  0  0  0
   13.3633   -3.7712   21.9403 C   0  0  0  0  0  0  0  0  0  0  0  0
   14.5453   -4.4283   22.3492 O   0  0  0  0  0  0  0  0  0  0  0  0
   14.3578   -5.8337   22.3240 C   0  0  0  0  0  0  0  0  0  0  0  0
   13.1412   -6.2914   23.1464 C   0  0  0  0  0  0  0  0  0  0  0  0
   11.9373   -5.5726   22.7358 N   0  0  0  0  0  0  0  0  0  0  0  0
   11.1582   -5.8319   23.3410 H   0  0  0  0  0  0  0  0  0  0  0  0
   15.7588   -9.0483   14.9874 C   0  0  0  0  0  0  0  0  0  0  0  0
   16.5726   -8.7344   13.9652 N   0  0  0  0  0  0  0  0  0  0  0  0
   16.1750   -9.4450   12.9245 N   0  0  0  0  0  0  0  0  0  0  0  0
   15.1177  -10.2121   13.2604 C   0  0  0  0  0  0  0  0  0  0  0  0
   14.8161   -9.9832   14.5932 C   0  0  0  0  0  0  0  0  0  0  0  0
   16.7979   -9.3893   11.6321 C   0  0  0  0  0  0  0  0  0  0  0  0
   18.1533   -9.0453   11.5158 C   0  0  0  0  0  0  0  0  0  0  0  0
   18.7642   -8.9896   10.2597 C   0  0  0  0  0  0  0  0  0  0  0  0
   18.0248   -9.2775    9.1096 C   0  0  0  0  0  0  0  0  0  0  0  0
   16.6746   -9.6211    9.2147 C   0  0  0  0  0  0  0  0  0  0  0  0
   16.0631   -9.6769   10.4705 C   0  0  0  0  0  0  0  0  0  0  0  0
   18.6171   -9.2235    7.8927 F   0  0  0  0  0  0  0  0  0  0  0  0
 12 13  1  0  0  0
 13 14  1  0  0  0
 14 15  1  0  0  0
 15 16  1  0  0  0
 15  5  1  0  0  0
 16 17  1  0  0  0
 17 12  1  0  0  0
  5  6  2  0  0  0
  6  7  1  0  0  0
  7  8  2  0  0  0
  7 11  1  0  0  0
  8  9  1  0  0  0
  8  1  1  0  0  0
  9 10  2  0  0  0
 10  5  1  0  0  0
  1  2  1  0  0  0
  2  3  2  0  0  0
  2 19  1  0  0  0
 19 20  2  0  0  0
 20 21  1  0  0  0
 21 22  1  0  0  0
 21 24  1  0  0  0
 22 23  2  0  0  0
 23 19  1  0  0  0
 24 25  2  0  0  0
 25 26  1  0  0  0
 26 27  2  0  0  0
 27 28  1  0  0  0
 27 30  1  0  0  0
 28 29  2  0  0  0
 29 24  1  0  0  0
 17 18  1  0  0  0
  1  4  1  0  0  0
M  END
>  <minimizedAffinity>
-4.77281

>  <minimizedRMSD>
1.96967

$$$$
CHEMBL462404 PubChem-25180310


 35 38  0  0  0  0  0  0  0  0999 V2000
   13.9128   -6.5567   21.4934 C   0  0  0  0  0  0  0  0  0  0  0  0
   15.1108   -6.8990   20.8575 C   0  0  0  0  0  0  0  0  0  0  0  0
   15.1061   -7.3928   19.5516 C   0  0  0  0  0  0  0  0  0  0  0  0
   13.8897   -7.5236   18.8470 C   0  0  0  0  0  0  0  0  0  0  0  0
   12.6703   -7.1650   19.4686 C   0  0  0  0  0  0  0  0  0  0  0  0
   12.7073   -6.6903   20.7932 C   0  0  0  0  0  0  0  0  0  0  0  0
   13.8908   -8.0327   17.5409 O   0  0  0  0  0  0  0  0  0  0  0  0
   15.3305   -8.6933   16.8808 P   0  0  0  0  0  0  0  0  0  0  0  0
   15.0171  -10.0172   16.2185 O   0  0  0  0  0  0  0  0  0  0  0  0
   16.3798   -8.9297   18.1947 O   0  0  0  0  0  0  0  0  0  0  0  0
   16.4146   -7.6989   18.8735 C   0  0  0  0  0  0  0  0  0  0  0  0
   11.3404   -7.2927   18.7331 C   0  0  0  0  0  0  0  0  0  0  0  0
   10.9195   -8.7504   18.6662 C   0  0  0  0  0  0  0  0  0  0  0  0
   10.2148   -6.5217   19.4111 C   0  0  0  0  0  0  0  0  0  0  0  0
   11.4733   -6.7526   17.3198 C   0  0  0  0  0  0  0  0  0  0  0  0
   14.8766   -6.5664   23.8928 C   0  0  0  0  0  0  0  0  0  0  0  0
   13.9089   -6.0510   22.8819 C   0  0  0  0  0  0  0  0  0  0  0  0
   13.0818   -5.1669   23.2335 O   0  0  0  0  0  0  0  0  0  0  0  0
   16.0170   -7.6186   15.7603 O   0  0  0  0  0  0  0  0  0  0  0  0
   16.7047   -8.4299   14.8521 C   0  0  0  0  0  0  0  0  0  0  0  0
   16.0435   -8.3797   13.4767 C   0  0  0  0  0  0  0  0  0  0  0  0
   15.3561   -9.6595   13.1541 C   0  0  0  0  0  0  0  0  0  0  0  0
   15.9807  -10.2354   12.1559 C   0  0  0  0  0  0  0  0  0  0  0  0
   17.1702   -9.4097   11.8177 C   0  0  0  0  0  0  0  0  0  0  0  0
   17.0304   -8.1695   12.4861 O   0  0  0  0  0  0  0  0  0  0  0  0
   17.3443   -9.2479   10.3610 N   0  0  0  0  0  0  0  0  0  0  0  0
   18.3549   -8.4673    9.8771 C   0  0  0  0  0  0  0  0  0  0  0  0
   18.5594   -8.3279    8.5055 C   0  0  0  0  0  0  0  0  0  0  0  0
   19.6710   -7.4691    8.0048 C   0  0  0  0  0  0  0  0  0  0  0  0
   17.7100   -9.0156    7.6346 C   0  0  0  0  0  0  0  0  0  0  0  0
   17.8465   -8.9165    6.3871 O   0  0  0  0  0  0  0  0  0  0  0  0
   16.7209   -9.7936    8.1426 N   0  0  0  0  0  0  0  0  0  0  0  0
   16.5442   -9.9308    9.4815 C   0  0  0  0  0  0  0  0  0  0  0  0
   15.5956  -10.6498    9.9019 O   0  0  0  0  0  0  0  0  0  0  0  0
   16.1181  -10.2691    7.5264 H   0  0  0  0  0  0  0  0  0  0  0  0
 16 17  1  0  0  0
 17 18  2  0  0  0
 17  1  1  0  0  0
  1  2  2  0  0  0
  2  3  1  0  0  0
  3  4  2  0  0  0
  4  5  1  0  0  0
  4  7  1  0  0  0
  5 12  1  0  0  0
  5  6  2  0  0  0
 12 13  1  0  0  0
 12 14  1  0  0  0
 12 15  1  0  0  0
  6  1  1  0  0  0
  7  8  1  0  0  0
  8  9  2  0  0  0
  8 19  1  0  0  0
  8 10  1  0  0  0
 19 20  1  0  0  0
 21 20  1  0  0  0
 21 22  1  0  0  0
 22 23  2  0  0  0
 23 24  1  0  0  0
 24 26  1  0  0  0
 24 25  1  0  0  0
 26 27  1  0  0  0
 27 28  2  0  0  0
 28 29  1  0  0  0
 28 30  1  0  0  0
 30 31  2  0  0  0
 30 32  1  0  0  0
 32 33  1  0  0  0
 33 34  2  0  0  0
 33 26  1  0  0  0
 25 21  1  0  0  0
 10 11  1  0  0  0
 11  3  1  0  0  0
 32 35  1  0  0  0
M  END
>  <minimizedAffinity>
-4.77182

>  <minimizedRMSD>
1.37110

$$$$
CHEMBL1800312 PubChem-44538167


 31 33  0  0  0  0  0  0  0  0999 V2000
   16.6642   -8.1469   15.0152 C   0  0  0  0  0  0  0  0  0  0  0  0
   16.4032   -6.9152   14.9941 O   0  0  0  0  0  0  0  0  0  0  0  0
   16.0814   -8.9815   16.0181 N   0  0  0  0  0  0  0  0  0  0  0  0
   16.2896   -9.9437   16.0286 H   0  0  0  0  0  0  0  0  0  0  0  0
   15.2196   -8.4531   16.9855 N   0  0  0  0  0  0  0  0  0  0  0  0
   15.6855   -8.0814   18.1324 C   0  0  0  0  0  0  0  0  0  0  0  0
   14.8109   -7.5236   19.1688 C   0  0  0  0  0  0  0  0  0  0  0  0
   15.3196   -7.3278   20.4530 C   0  0  0  0  0  0  0  0  0  0  0  0
   14.5128   -6.7960   21.4712 C   0  0  0  0  0  0  0  0  0  0  0  0
   13.1764   -6.4580   21.1891 C   0  0  0  0  0  0  0  0  0  0  0  0
   12.6560   -6.6526   19.8965 C   0  0  0  0  0  0  0  0  0  0  0  0
   13.4813   -7.1856   18.8944 C   0  0  0  0  0  0  0  0  0  0  0  0
   11.3242   -6.3129   19.6258 O   0  0  0  0  0  0  0  0  0  0  0  0
   10.5288   -7.0104   18.6768 C   0  0  0  0  0  0  0  0  0  0  0  0
   12.3375   -5.9106   22.2279 C   0  0  0  0  0  0  0  0  0  0  0  0
   11.6649   -5.4716   23.0610 N   0  0  0  0  0  0  0  0  0  0  0  0
   15.0208   -6.5983   22.7616 O   0  0  0  0  0  0  0  0  0  0  0  0
   16.4132   -6.5511   23.0428 C   0  0  0  0  0  0  0  0  0  0  0  0
   17.5879   -8.7062   13.9786 C   0  0  0  0  0  0  0  0  0  0  0  0
   17.2956  -10.4753   13.6483 S   0  0  0  0  0  0  0  0  0  0  0  0
   18.4595   -8.7199    8.6749 C   0  0  0  0  0  0  0  0  0  0  0  0
   19.1818   -8.9615    9.8470 C   0  0  0  0  0  0  0  0  0  0  0  0
   18.5282   -9.4306   10.9900 C   0  0  0  0  0  0  0  0  0  0  0  0
   17.1453   -9.6615   10.9681 C   0  0  0  0  0  0  0  0  0  0  0  0
   16.4195   -9.4156    9.7790 C   0  0  0  0  0  0  0  0  0  0  0  0
   17.0807   -8.9464    8.6405 C   0  0  0  0  0  0  0  0  0  0  0  0
   15.0786   -9.6356    9.7417 N   0  0  0  0  0  0  0  0  0  0  0  0
   14.4009  -10.0925   10.8281 C   0  0  0  0  0  0  0  0  0  0  0  0
   15.0775  -10.3482   12.0223 C   0  0  0  0  0  0  0  0  0  0  0  0
   16.4553  -10.1308   12.0996 C   0  0  0  0  0  0  0  0  0  0  0  0
   12.9352  -10.3213   10.7447 C   0  0  0  0  0  0  0  0  0  0  0  0
 21 22  2  0  0  0
 22 23  1  0  0  0
 23 24  2  0  0  0
 24 25  1  0  0  0
 25 26  2  0  0  0
 25 27  1  0  0  0
 27 28  2  0  0  0
 28 29  1  0  0  0
 29 30  2  0  0  0
 30 20  1  0  0  0
 20 19  1  0  0  0
 19  1  1  0  0  0
  1  2  2  0  0  0
  1  3  1  0  0  0
  3  5  1  0  0  0
  5  6  2  0  0  0
  6  7  1  0  0  0
  7  8  2  0  0  0
  8  9  1  0  0  0
  9 10  2  0  0  0
 10 11  1  0  0  0
 11 12  2  0  0  0
 11 13  1  0  0  0
 13 14  1  0  0  0
 10 15  1  0  0  0
 15 16  3  0  0  0
  9 17  1  0  0  0
 17 18  1  0  0  0
 28 31  1  0  0  0
 26 21  1  0  0  0
 12  7  1  0  0  0
 30 24  1  0  0  0
  3  4  1  0  0  0
M  END
>  <minimizedAffinity>
-4.76000

>  <minimizedRMSD>
1.96630

$$$$
CHEMBL5198162 PubChem-153374029


 31 35  0  0  0  0  0  0  0  0999 V2000
   15.5365   -8.4121   16.4479 C   0  0  0  0  0  0  0  0  0  0  0  0
   16.5186   -9.0246   17.1907 N   0  0  0  0  0  0  0  0  0  0  0  0
   17.5403   -9.7178   16.6058 C   0  0  0  0  0  0  0  0  0  0  0  0
   17.5506   -9.7817   15.2213 C   0  0  0  0  0  0  0  0  0  0  0  0
   16.5762   -9.1735   14.4987 C   0  0  0  0  0  0  0  0  0  0  0  0
   15.5645   -8.4870   15.0821 N   0  0  0  0  0  0  0  0  0  0  0  0
   16.7839   -9.3640   13.1834 N   0  0  0  0  0  0  0  0  0  0  0  0
   17.9233  -10.1114   13.1504 C   0  0  0  0  0  0  0  0  0  0  0  0
   18.4702  -10.5135   12.0890 O   0  0  0  0  0  0  0  0  0  0  0  0
   18.4142  -10.3818   14.3862 N   0  0  0  0  0  0  0  0  0  0  0  0
   19.6030  -11.1462   14.7280 C   0  0  0  0  0  0  0  0  0  0  0  0
   15.9430   -8.8584   12.0968 C   0  0  0  0  0  0  0  0  0  0  0  0
   16.7088   -7.9436   11.1337 C   0  0  0  0  0  0  0  0  0  0  0  0
   17.4152   -8.7476   10.0442 C   0  0  0  0  0  0  0  0  0  0  0  0
   16.4544   -9.5955    9.3445 N   0  0  0  0  0  0  0  0  0  0  0  0
   15.9882  -10.6155   10.2793 C   0  0  0  0  0  0  0  0  0  0  0  0
   15.1602   -9.9704   11.3888 C   0  0  0  0  0  0  0  0  0  0  0  0
   17.1921  -10.2899    8.3056 C   0  0  0  0  0  0  0  0  0  0  0  0
   14.4716   -7.6886   17.0797 N   0  0  0  0  0  0  0  0  0  0  0  0
   13.8044   -7.2852   16.4785 H   0  0  0  0  0  0  0  0  0  0  0  0
   11.7773   -7.7116   18.1104 C   0  0  0  0  0  0  0  0  0  0  0  0
   12.9513   -7.4920   19.0021 C   0  0  0  0  0  0  0  0  0  0  0  0
   12.7277   -7.2936   20.3691 C   0  0  0  0  0  0  0  0  0  0  0  0
   13.8046   -7.0852   21.2316 C   0  0  0  0  0  0  0  0  0  0  0  0
   15.1162   -7.0746   20.7265 C   0  0  0  0  0  0  0  0  0  0  0  0
   16.1781   -6.8653   21.6018 C   0  0  0  0  0  0  0  0  0  0  0  0
   15.9080   -6.6720   22.9563 C   0  0  0  0  0  0  0  0  0  0  0  0
   14.6208   -6.6910   23.3963 N   0  0  0  0  0  0  0  0  0  0  0  0
   13.5993   -6.8915   22.5601 N   0  0  0  0  0  0  0  0  0  0  0  0
   15.3403   -7.2724   19.3633 C   0  0  0  0  0  0  0  0  0  0  0  0
   14.2631   -7.4829   18.4871 C   0  0  0  0  0  0  0  0  0  0  0  0
 21 22  1  0  0  0
 22 23  2  0  0  0
 23 24  1  0  0  0
 24 25  2  0  0  0
 25 26  1  0  0  0
 26 27  2  0  0  0
 27 28  1  0  0  0
 28 29  2  0  0  0
 25 30  1  0  0  0
 30 31  2  0  0  0
 31 19  1  0  0  0
 19  1  1  0  0  0
  1  2  2  0  0  0
  2  3  1  0  0  0
  3  4  2  0  0  0
  4  5  1  0  0  0
  5  6  2  0  0  0
  5  7  1  0  0  0
  7  8  1  0  0  0
  8  9  2  0  0  0
  8 10  1  0  0  0
 10 11  1  0  0  0
  7 12  1  0  0  0
 12 13  1  0  0  0
 13 14  1  0  0  0
 14 15  1  0  0  0
 15 16  1  0  0  0
 16 17  1  0  0  0
 15 18  1  0  0  0
 31 22  1  0  0  0
 29 24  1  0  0  0
  6  1  1  0  0  0
 10  4  1  0  0  0
 17 12  1  0  0  0
 19 20  1  0  0  0
M  END
>  <minimizedAffinity>
-4.73566

>  <minimizedRMSD>
1.77870

$$$$
CHEMBL13707 PubChem-10411417


 34 38  0  0  0  0  0  0  0  0999 V2000
   15.3653   -7.9241   18.6295 N   0  0  0  0  0  0  0  0  0  0  0  0
   14.6278   -7.7135   17.5179 C   0  0  0  0  0  0  0  0  0  0  0  0
   15.3491   -8.1813   16.3651 C   0  0  0  0  0  0  0  0  0  0  0  0
   16.5514   -8.6850   16.7973 C   0  0  0  0  0  0  0  0  0  0  0  0
   16.6467   -8.5546   18.2923 C   0  0  0  0  0  0  0  0  0  0  0  0
   17.4659   -9.2142   15.8837 C   0  0  0  0  0  0  0  0  0  0  0  0
   17.1063   -9.2006   14.5148 C   0  0  0  0  0  0  0  0  0  0  0  0
   15.8453   -8.6647   14.1270 C   0  0  0  0  0  0  0  0  0  0  0  0
   14.9857   -8.1629   15.0598 N   0  0  0  0  0  0  0  0  0  0  0  0
   15.4956   -8.6556   12.7771 C   0  0  0  0  0  0  0  0  0  0  0  0
   16.3527   -9.1540   11.8465 N   0  0  0  0  0  0  0  0  0  0  0  0
   17.5658   -9.6736   12.1838 C   0  0  0  0  0  0  0  0  0  0  0  0
   17.9604   -9.7043   13.5274 C   0  0  0  0  0  0  0  0  0  0  0  0
   13.3646   -7.1345   17.5763 C   0  0  0  0  0  0  0  0  0  0  0  0
   12.8661   -6.7556   18.8359 C   0  0  0  0  0  0  0  0  0  0  0  0
   13.6526   -6.9835   19.9931 C   0  0  0  0  0  0  0  0  0  0  0  0
   14.9194   -7.5847   19.8684 C   0  0  0  0  0  0  0  0  0  0  0  0
   15.6314   -7.8073   20.8852 O   0  0  0  0  0  0  0  0  0  0  0  0
   13.0961   -6.6274   21.3398 C   0  0  0  0  0  0  0  0  0  0  0  0
   12.2802   -5.4621   21.2508 O   0  0  0  0  0  0  0  0  0  0  0  0
   11.4227   -5.2475   20.1672 C   0  0  0  0  0  0  0  0  0  0  0  0
   10.5918   -4.3016   20.2158 O   0  0  0  0  0  0  0  0  0  0  0  0
   11.4776   -6.1513   18.9604 C   0  0  0  0  0  0  0  0  0  0  0  0
   11.1782   -5.3982   17.8181 O   0  0  0  0  0  0  0  0  0  0  0  0
   10.2909   -5.0164   17.9060 H   0  0  0  0  0  0  0  0  0  0  0  0
   18.4507  -10.1979   11.1339 C   0  0  0  0  0  0  0  0  0  0  0  0
   19.1019  -11.2622   11.3257 O   0  0  0  0  0  0  0  0  0  0  0  0
   18.5644   -9.5093    9.9245 O   0  0  0  0  0  0  0  0  0  0  0  0
   19.3300   -8.3196    9.8076 C   0  0  0  0  0  0  0  0  0  0  0  0
   18.9960   -7.6315    8.5011 C   0  0  0  0  0  0  0  0  0  0  0  0
   18.7849   -9.7449   16.3547 C   0  0  0  0  0  0  0  0  0  0  0  0
   19.8433   -8.6617   16.2720 C   0  0  0  0  0  0  0  0  0  0  0  0
   10.4278   -7.2510   19.1444 C   0  0  0  0  0  0  0  0  0  0  0  0
   10.2814   -8.1375   17.9163 C   0  0  0  0  0  0  0  0  0  0  0  0
  1  2  1  0  0  0
  2  3  1  0  0  0
  3  4  2  0  0  0
  4  5  1  0  0  0
  4  6  1  0  0  0
  6  7  2  0  0  0
  7  8  1  0  0  0
  8  9  2  0  0  0
  8 10  1  0  0  0
 10 11  2  0  0  0
 11 12  1  0  0  0
 12 13  2  0  0  0
 12 26  1  0  0  0
 26 27  2  0  0  0
 26 28  1  0  0  0
 28 29  1  0  0  0
 29 30  1  0  0  0
  6 31  1  0  0  0
 31 32  1  0  0  0
  2 14  2  0  0  0
 14 15  1  0  0  0
 15 16  2  0  0  0
 16 17  1  0  0  0
 17 18  2  0  0  0
 16 19  1  0  0  0
 19 20  1  0  0  0
 20 21  1  0  0  0
 21 22  2  0  0  0
 21 23  1  0  0  0
 23 24  1  0  0  0
 23 33  1  0  0  0
 33 34  1  0  0  0
 17  1  1  0  0  0
  5  1  1  0  0  0
 13  7  1  0  0  0
 23 15  1  0  0  0
  9  3  1  0  0  0
 24 25  1  0  0  0
M  END
>  <minimizedAffinity>
-4.71721

>  <minimizedRMSD>
1.96159

$$$$
CHEMBL3344406 PubChem-118717765


 34 37  0  0  0  0  0  0  0  0999 V2000
   16.9677   -9.3752   16.8339 N   0  0  0  0  0  0  0  0  0  0  0  0
   16.4549   -8.8972   17.9262 O   0  0  0  0  0  0  0  0  0  0  0  0
   15.3404   -8.2591   17.6576 C   0  0  0  0  0  0  0  0  0  0  0  0
   15.0644   -8.2910   16.3373 N   0  0  0  0  0  0  0  0  0  0  0  0
   16.1098   -9.0014   15.8660 C   0  0  0  0  0  0  0  0  0  0  0  0
   16.2936   -9.3145   14.4809 N   0  0  0  0  0  0  0  0  0  0  0  0
   17.6015   -9.1343   13.8535 C   0  0  0  0  0  0  0  0  0  0  0  0
   17.4261   -8.5219   12.4678 C   0  0  0  0  0  0  0  0  0  0  0  0
   16.4053   -9.2666   11.7352 N   0  0  0  0  0  0  0  0  0  0  0  0
   15.0910   -9.4139   12.3542 C   0  0  0  0  0  0  0  0  0  0  0  0
   15.2499  -10.0248   13.7436 C   0  0  0  0  0  0  0  0  0  0  0  0
   16.6871   -9.8638   10.4611 C   0  0  0  0  0  0  0  0  0  0  0  0
   15.7860  -10.5129    9.8596 O   0  0  0  0  0  0  0  0  0  0  0  0
   18.0523   -9.7237    9.8432 C   0  0  0  0  0  0  0  0  0  0  0  0
   18.4233   -8.2661    9.6432 C   0  0  0  0  0  0  0  0  0  0  0  0
   18.3784   -8.4608    8.1399 C   0  0  0  0  0  0  0  0  0  0  0  0
   17.9984   -9.9154    8.3393 C   0  0  0  0  0  0  0  0  0  0  0  0
   14.4828   -7.5847   18.6575 C   0  0  0  0  0  0  0  0  0  0  0  0
   13.1075   -7.4989   18.3962 C   0  0  0  0  0  0  0  0  0  0  0  0
   12.2408   -6.8758   19.2956 C   0  0  0  0  0  0  0  0  0  0  0  0
   12.7365   -6.3221   20.4793 C   0  0  0  0  0  0  0  0  0  0  0  0
   14.1089   -6.4054   20.7523 C   0  0  0  0  0  0  0  0  0  0  0  0
   14.9844   -7.0270   19.8573 C   0  0  0  0  0  0  0  0  0  0  0  0
   16.6844   -7.0682   20.3027 Cl  0  0  0  0  0  0  0  0  0  0  0  0
   10.9168   -6.8095   19.0118 F   0  0  0  0  0  0  0  0  0  0  0  0
   11.8515   -5.7017   21.3682 O   0  0  0  0  0  0  0  0  0  0  0  0
   12.0224   -5.7304   22.7831 C   0  0  0  0  0  0  0  0  0  0  0  0
   12.2945   -4.3333   23.3347 C   0  0  0  0  0  0  0  0  0  0  0  0
   11.2625   -3.9630   24.2874 N   0  0  0  0  0  0  0  0  0  0  0  0
   10.3580   -3.9385   23.8165 H   0  0  0  0  0  0  0  0  0  0  0  0
   11.4702   -3.0418   24.6728 H   0  0  0  0  0  0  0  0  0  0  0  0
   12.3697   -3.2940   22.2287 C   0  0  0  0  0  0  0  0  0  0  0  0
   13.6947   -3.1187   21.8289 O   0  0  0  0  0  0  0  0  0  0  0  0
   14.2229   -2.8158   22.5840 H   0  0  0  0  0  0  0  0  0  0  0  0
  1  2  1  0  0  0
  2  3  1  0  0  0
  3  4  2  0  0  0
  4  5  1  0  0  0
  5  6  1  0  0  0
  6  7  1  0  0  0
  7  8  1  0  0  0
  8  9  1  0  0  0
  9 10  1  0  0  0
 10 11  1  0  0  0
  9 12  1  0  0  0
 12 13  2  0  0  0
 12 14  1  0  0  0
 14 15  1  0  0  0
 15 16  1  0  0  0
 16 17  1  0  0  0
  3 18  1  0  0  0
 18 19  2  0  0  0
 19 20  1  0  0  0
 20 21  2  0  0  0
 21 22  1  0  0  0
 22 23  2  0  0  0
 23 24  1  0  0  0
 21 26  1  0  0  0
 26 27  1  0  0  0
 28 27  1  0  0  0
 28 32  1  0  0  0
 32 33  1  0  0  0
 28 29  1  0  0  0
 20 25  1  0  0  0
  5  1  2  0  0  0
 11  6  1  0  0  0
 17 14  1  0  0  0
 23 18  1  0  0  0
 33 34  1  0  0  0
 29 30  1  0  0  0
 29 31  1  0  0  0
M  END
>  <minimizedAffinity>
-4.70147

>  <minimizedRMSD>
1.90340

$$$$
CHEMBL1465051 2321430 LN00559201 MCULE-9553953520 MolPort-002-572-867 PubChem-1936909 ZINC000002321430


 35 38  0  0  0  0  0  0  0  0999 V2000
   15.5068   -8.6275   15.8464 N   0  0  0  0  0  0  0  0  0  0  0  0
   14.9837   -7.8341   14.7348 C   0  0  0  0  0  0  0  0  0  0  0  0
   15.9991   -7.8130   13.5971 C   0  0  0  0  0  0  0  0  0  0  0  0
   16.4385   -9.1765   13.3141 N   0  0  0  0  0  0  0  0  0  0  0  0
   16.9910   -9.9511   14.4245 C   0  0  0  0  0  0  0  0  0  0  0  0
   15.9856   -9.9819   15.5718 C   0  0  0  0  0  0  0  0  0  0  0  0
   12.9756   -6.3404   19.2174 N   0  0  0  0  0  0  0  0  0  0  0  0
   12.8048   -5.9112   20.4968 C   0  0  0  0  0  0  0  0  0  0  0  0
   13.7753   -6.1397   21.4820 C   0  0  0  0  0  0  0  0  0  0  0  0
   14.9466   -6.8380   21.1239 C   0  0  0  0  0  0  0  0  0  0  0  0
   15.8484   -7.0651   21.9772 O   0  0  0  0  0  0  0  0  0  0  0  0
   15.1055   -7.2863   19.8043 C   0  0  0  0  0  0  0  0  0  0  0  0
   16.2394   -7.9927   19.3947 C   0  0  0  0  0  0  0  0  0  0  0  0
   16.3503   -8.4156   18.1095 N   0  0  0  0  0  0  0  0  0  0  0  0
   15.3712   -8.1651   17.1975 C   0  0  0  0  0  0  0  0  0  0  0  0
   14.2581   -7.4797   17.5776 N   0  0  0  0  0  0  0  0  0  0  0  0
   14.0995   -7.0306   18.8533 C   0  0  0  0  0  0  0  0  0  0  0  0
   13.5296   -5.6404   22.8553 C   0  0  0  0  0  0  0  0  0  0  0  0
   14.2032   -6.1781   23.9459 O   0  0  0  0  0  0  0  0  0  0  0  0
   12.6989   -4.7133   23.0515 O   0  0  0  0  0  0  0  0  0  0  0  0
   14.8245   -6.8680   23.8192 H   0  0  0  0  0  0  0  0  0  0  0  0
   11.4298   -4.6315   18.3922 C   0  0  0  0  0  0  0  0  0  0  0  0
   11.9035   -6.0693   18.2658 C   0  0  0  0  0  0  0  0  0  0  0  0
   16.2893   -9.7294   11.9946 C   0  0  0  0  0  0  0  0  0  0  0  0
   15.2879  -11.0134   11.7487 S   0  0  0  0  0  0  0  0  0  0  0  0
   17.0617   -9.1695   10.9173 N   0  0  0  0  0  0  0  0  0  0  0  0
   16.8631   -9.3210    9.5026 C   0  0  0  0  0  0  0  0  0  0  0  0
   15.8680   -9.9516    9.0537 O   0  0  0  0  0  0  0  0  0  0  0  0
   17.8260   -8.6095   11.1847 H   0  0  0  0  0  0  0  0  0  0  0  0
   17.8265   -8.7175    8.5648 C   0  0  0  0  0  0  0  0  0  0  0  0
   17.7173   -8.9502    7.1855 C   0  0  0  0  0  0  0  0  0  0  0  0
   18.6321   -8.3773    6.2970 C   0  0  0  0  0  0  0  0  0  0  0  0
   19.6629   -7.5673    6.7811 C   0  0  0  0  0  0  0  0  0  0  0  0
   19.7793   -7.3303    8.1533 C   0  0  0  0  0  0  0  0  0  0  0  0
   18.8645   -7.9033    9.0418 C   0  0  0  0  0  0  0  0  0  0  0  0
 22 23  1  0  0  0
 23  7  1  0  0  0
  7  8  1  0  0  0
  8  9  2  0  0  0
  9 18  1  0  0  0
  9 10  1  0  0  0
 18 19  1  0  0  0
 18 20  2  0  0  0
 10 11  2  0  0  0
 10 12  1  0  0  0
 12 13  2  0  0  0
 13 14  1  0  0  0
 14 15  2  0  0  0
 15 16  1  0  0  0
 15  1  1  0  0  0
 16 17  2  0  0  0
 17  7  1  0  0  0
 17 12  1  0  0  0
  1  2  1  0  0  0
  2  3  1  0  0  0
  3  4  1  0  0  0
  4  5  1  0  0  0
  4 24  1  0  0  0
  5  6  1  0  0  0
  6  1  1  0  0  0
 24 25  2  0  0  0
 24 26  1  0  0  0
 26 27  1  0  0  0
 27 28  2  0  0  0
 27 30  1  0  0  0
 30 31  2  0  0  0
 31 32  1  0  0  0
 32 33  2  0  0  0
 33 34  1  0  0  0
 34 35  2  0  0  0
 35 30  1  0  0  0
 19 21  1  0  0  0
 26 29  1  0  0  0
M  END
>  <minimizedAffinity>
-4.69209

>  <minimizedRMSD>
1.90943

$$$$
CHEMBL5088551


 35 38  0  0  0  0  0  0  0  0999 V2000
   16.4494   -9.1499   17.4984 N   0  0  0  0  0  0  0  0  0  0  0  0
   15.4754   -8.2577   17.1251 C   0  0  0  0  0  0  0  0  0  0  0  0
   15.2808   -7.9709   15.8032 N   0  0  0  0  0  0  0  0  0  0  0  0
   16.0646   -8.5828   14.8813 C   0  0  0  0  0  0  0  0  0  0  0  0
   17.0404   -9.4688   15.2342 C   0  0  0  0  0  0  0  0  0  0  0  0
   17.2435   -9.7684   16.5777 C   0  0  0  0  0  0  0  0  0  0  0  0
   18.2477  -10.6869   16.9956 N   0  0  0  0  0  0  0  0  0  0  0  0
   17.6448   -9.8905   14.0642 C   0  0  0  0  0  0  0  0  0  0  0  0
   16.9766   -9.2183   13.0332 C   0  0  0  0  0  0  0  0  0  0  0  0
   16.0058   -8.4176   13.5489 N   0  0  0  0  0  0  0  0  0  0  0  0
   15.1190   -7.5056   12.8424 C   0  0  0  0  0  0  0  0  0  0  0  0
   18.8180  -11.1305   16.3269 H   0  0  0  0  0  0  0  0  0  0  0  0
   18.3718  -10.8784   17.9533 H   0  0  0  0  0  0  0  0  0  0  0  0
   17.2634   -9.3494   11.6269 N   0  0  0  0  0  0  0  0  0  0  0  0
   18.6115   -9.4485   11.1022 C   0  0  0  0  0  0  0  0  0  0  0  0
   18.4648   -9.5802    9.5991 C   0  0  0  0  0  0  0  0  0  0  0  0
   17.0240   -9.2124    9.2763 C   0  0  0  0  0  0  0  0  0  0  0  0
   16.2572   -9.2933   10.5824 C   0  0  0  0  0  0  0  0  0  0  0  0
   15.4208  -10.5609   10.6001 C   0  0  0  0  0  0  0  0  0  0  0  0
   18.7031  -10.8602   13.9429 C   0  0  0  0  0  0  0  0  0  0  0  0
   19.5538  -11.6386   13.8456 N   0  0  0  0  0  0  0  0  0  0  0  0
   14.6514   -7.6160   18.1045 N   0  0  0  0  0  0  0  0  0  0  0  0
   13.7562   -7.3247   17.8161 H   0  0  0  0  0  0  0  0  0  0  0  0
   15.0136   -7.3600   19.4670 C   0  0  0  0  0  0  0  0  0  0  0  0
   14.1669   -7.4116   20.5463 C   0  0  0  0  0  0  0  0  0  0  0  0
   14.8827   -7.1136   21.6441 N   0  0  0  0  0  0  0  0  0  0  0  0
   16.1423   -6.8802   21.3049 N   0  0  0  0  0  0  0  0  0  0  0  0
   16.2615   -7.0221   19.9656 C   0  0  0  0  0  0  0  0  0  0  0  0
   12.7145   -7.7511   20.5243 C   0  0  0  0  0  0  0  0  0  0  0  0
   14.3843   -7.0537   23.0158 C   0  0  0  0  0  0  0  0  0  0  0  0
   14.2615   -5.6176   23.5304 C   0  0  0  0  0  0  0  0  0  0  0  0
   13.4005   -5.6097   24.6263 O   0  0  0  0  0  0  0  0  0  0  0  0
   13.6917   -4.7062   22.4587 C   0  0  0  0  0  0  0  0  0  0  0  0
   15.6136   -5.0896   23.9725 C   0  0  0  0  0  0  0  0  0  0  0  0
   12.5312   -5.9454   24.3570 H   0  0  0  0  0  0  0  0  0  0  0  0
  1  2  2  0  0  0
  2  3  1  0  0  0
  3  4  2  0  0  0
  4  5  1  0  0  0
  5  6  2  0  0  0
  6  7  1  0  0  0
  5  8  1  0  0  0
  8  9  2  0  0  0
  9 10  1  0  0  0
 10 11  1  0  0  0
  9 14  1  0  0  0
 14 15  1  0  0  0
 15 16  1  0  0  0
 16 17  1  0  0  0
 17 18  1  0  0  0
 18 19  1  0  0  0
  8 20  1  0  0  0
 20 21  3  0  0  0
  2 22  1  0  0  0
 22 24  1  0  0  0
 24 25  2  0  0  0
 25 26  1  0  0  0
 26 27  1  0  0  0
 27 28  2  0  0  0
 26 30  1  0  0  0
 30 31  1  0  0  0
 31 32  1  0  0  0
 31 33  1  0  0  0
 31 34  1  0  0  0
 25 29  1  0  0  0
  6  1  1  0  0  0
 18 14  1  0  0  0
 28 24  1  0  0  0
 10  4  1  0  0  0
  7 12  1  0  0  0
  7 13  1  0  0  0
 22 23  1  0  0  0
 32 35  1  0  0  0
M  END
>  <minimizedAffinity>
-4.68840

>  <minimizedRMSD>
1.97430

$$$$
CHEMBL1362095 6198420 MCULE-7678028601 MolPort-000-031-638 PubChem-3178481 ZINC000006198420 ZINC06198420


 32 34  0  0  0  0  0  0  0  0999 V2000
   15.3987   -9.0025   19.9780 S   0  0  0  0  0  0  0  0  0  0  0  0
   14.2093   -6.8883   21.3554 N   0  0  0  0  0  0  0  0  0  0  0  0
   14.1322   -7.7855   20.3380 C   0  0  0  0  0  0  0  0  0  0  0  0
   13.0001   -7.6677   19.5948 N   0  0  0  0  0  0  0  0  0  0  0  0
   12.3665   -6.6387   20.1917 C   0  0  0  0  0  0  0  0  0  0  0  0
   13.0844   -6.1667   21.2382 C   0  0  0  0  0  0  0  0  0  0  0  0
   12.6124   -5.0954   21.9876 C   0  0  0  0  0  0  0  0  0  0  0  0
   13.2730   -4.6484   22.9651 O   0  0  0  0  0  0  0  0  0  0  0  0
   11.4078   -4.5420   21.6317 N   0  0  0  0  0  0  0  0  0  0  0  0
   10.8802   -3.4156   22.3958 C   0  0  0  0  0  0  0  0  0  0  0  0
   10.6911   -5.0379   20.5607 C   0  0  0  0  0  0  0  0  0  0  0  0
    9.5841   -4.5154   20.2477 O   0  0  0  0  0  0  0  0  0  0  0  0
   11.1749   -6.0977   19.8313 N   0  0  0  0  0  0  0  0  0  0  0  0
   10.4358   -6.6342   18.6953 C   0  0  0  0  0  0  0  0  0  0  0  0
   15.0910   -7.6208   23.5111 C   0  0  0  0  0  0  0  0  0  0  0  0
   15.2916   -6.7082   22.3156 C   0  0  0  0  0  0  0  0  0  0  0  0
   16.3772   -7.8286   18.9915 C   0  0  0  0  0  0  0  0  0  0  0  0
   16.1505   -8.0509   17.5361 C   0  0  0  0  0  0  0  0  0  0  0  0
   15.0683   -7.6803   17.0082 O   0  0  0  0  0  0  0  0  0  0  0  0
   17.1831   -8.6686   16.7578 N   0  0  0  0  0  0  0  0  0  0  0  0
   18.0074   -8.9167   17.2355 H   0  0  0  0  0  0  0  0  0  0  0  0
   17.1398   -8.9627   15.3548 C   0  0  0  0  0  0  0  0  0  0  0  0
   16.1693   -8.4066   14.5085 C   0  0  0  0  0  0  0  0  0  0  0  0
   16.1589   -8.7174   13.1463 C   0  0  0  0  0  0  0  0  0  0  0  0
   17.1185   -9.5891   12.6112 C   0  0  0  0  0  0  0  0  0  0  0  0
   18.0848  -10.1432   13.4567 C   0  0  0  0  0  0  0  0  0  0  0  0
   18.0952   -9.8322   14.8196 C   0  0  0  0  0  0  0  0  0  0  0  0
   17.1416   -9.9313   11.2186 N   0  0  0  0  0  0  0  0  0  0  0  0
   16.0096  -10.2166   10.3871 C   0  0  0  0  0  0  0  0  0  0  0  0
   16.2254  -10.5536    8.9563 C   0  0  0  0  0  0  0  0  0  0  0  0
   14.8366  -10.1875   10.8443 O   0  0  0  0  0  0  0  0  0  0  0  0
   18.0266   -9.9747   10.7895 H   0  0  0  0  0  0  0  0  0  0  0  0
 15 16  1  0  0  0
 16  2  1  0  0  0
  2  3  1  0  0  0
  3  1  1  0  0  0
  3  4  2  0  0  0
  1 17  1  0  0  0
 17 18  1  0  0  0
 18 19  2  0  0  0
 18 20  1  0  0  0
 20 22  1  0  0  0
 22 23  2  0  0  0
 23 24  1  0  0  0
 24 25  2  0  0  0
 25 28  1  0  0  0
 25 26  1  0  0  0
 28 29  1  0  0  0
 29 30  1  0  0  0
 29 31  2  0  0  0
 26 27  2  0  0  0
 27 22  1  0  0  0
  4  5  1  0  0  0
  5  6  2  0  0  0
  6  7  1  0  0  0
  6  2  1  0  0  0
  7  8  2  0  0  0
  7  9  1  0  0  0
  9 10  1  0  0  0
  9 11  1  0  0  0
 11 12  2  0  0  0
 11 13  1  0  0  0
 13 14  1  0  0  0
 13  5  1  0  0  0
 20 21  1  0  0  0
 28 32  1  0  0  0
M  END
>  <minimizedAffinity>
-4.68111

>  <minimizedRMSD>
1.35125

$$$$
CHEMBL3344417 PubChem-118717775


 36 39  0  0  0  0  0  0  0  0999 V2000
   16.9701   -9.1496   16.8787 N   0  0  0  0  0  0  0  0  0  0  0  0
   16.4813   -8.7433   18.0103 O   0  0  0  0  0  0  0  0  0  0  0  0
   15.3396   -8.1279   17.8117 C   0  0  0  0  0  0  0  0  0  0  0  0
   15.0190   -8.1028   16.5013 N   0  0  0  0  0  0  0  0  0  0  0  0
   16.0700   -8.7524   15.9597 C   0  0  0  0  0  0  0  0  0  0  0  0
   16.2075   -9.0033   14.5567 N   0  0  0  0  0  0  0  0  0  0  0  0
   16.8022   -7.9935   13.6837 C   0  0  0  0  0  0  0  0  0  0  0  0
   17.7352   -8.6645   12.6804 C   0  0  0  0  0  0  0  0  0  0  0  0
   17.0514   -9.7962   12.0581 N   0  0  0  0  0  0  0  0  0  0  0  0
   16.5001  -10.8165   12.9465 C   0  0  0  0  0  0  0  0  0  0  0  0
   15.5557  -10.1621   13.9501 C   0  0  0  0  0  0  0  0  0  0  0  0
   16.7915   -9.8570   10.6428 C   0  0  0  0  0  0  0  0  0  0  0  0
   15.8935  -10.6355   10.2178 O   0  0  0  0  0  0  0  0  0  0  0  0
   17.5489   -9.0436    9.6629 C   0  0  0  0  0  0  0  0  0  0  0  0
   18.7234   -8.4454   10.0095 N   0  0  0  0  0  0  0  0  0  0  0  0
   19.4472   -7.7093    9.1238 C   0  0  0  0  0  0  0  0  0  0  0  0
   18.9972   -7.5520    7.8122 C   0  0  0  0  0  0  0  0  0  0  0  0
   17.8026   -8.1598    7.4261 C   0  0  0  0  0  0  0  0  0  0  0  0
   17.0748   -8.9109    8.3501 C   0  0  0  0  0  0  0  0  0  0  0  0
   14.4970   -7.5324   18.8724 C   0  0  0  0  0  0  0  0  0  0  0  0
   13.1092   -7.5007   18.6721 C   0  0  0  0  0  0  0  0  0  0  0  0
   12.2552   -6.9531   19.6310 C   0  0  0  0  0  0  0  0  0  0  0  0
   12.7765   -6.4219   20.8138 C   0  0  0  0  0  0  0  0  0  0  0  0
   14.1620   -6.4509   21.0260 C   0  0  0  0  0  0  0  0  0  0  0  0
   15.0248   -6.9974   20.0714 C   0  0  0  0  0  0  0  0  0  0  0  0
   16.7427   -6.9769   20.4434 Cl  0  0  0  0  0  0  0  0  0  0  0  0
   10.9186   -6.9376   19.4054 F   0  0  0  0  0  0  0  0  0  0  0  0
   11.9034   -5.8788   21.7632 O   0  0  0  0  0  0  0  0  0  0  0  0
   12.3192   -5.4786   23.0665 C   0  0  0  0  0  0  0  0  0  0  0  0
   12.3213   -3.9580   23.2157 C   0  0  0  0  0  0  0  0  0  0  0  0
   13.5267   -3.3732   22.6509 N   0  0  0  0  0  0  0  0  0  0  0  0
   13.5564   -3.5577   21.6481 H   0  0  0  0  0  0  0  0  0  0  0  0
   14.3460   -3.7858   23.0969 H   0  0  0  0  0  0  0  0  0  0  0  0
   11.0734   -3.3141   22.6210 C   0  0  0  0  0  0  0  0  0  0  0  0
   11.1088   -3.3442   21.2251 O   0  0  0  0  0  0  0  0  0  0  0  0
   11.8812   -2.8490   20.9105 H   0  0  0  0  0  0  0  0  0  0  0  0
  1  2  1  0  0  0
  2  3  1  0  0  0
  3  4  2  0  0  0
  4  5  1  0  0  0
  5  6  1  0  0  0
  6  7  1  0  0  0
  7  8  1  0  0  0
  8  9  1  0  0  0
  9 10  1  0  0  0
 10 11  1  0  0  0
  9 12  1  0  0  0
 12 13  2  0  0  0
 12 14  1  0  0  0
 14 15  2  0  0  0
 15 16  1  0  0  0
 16 17  2  0  0  0
 17 18  1  0  0  0
 18 19  2  0  0  0
  3 20  1  0  0  0
 20 21  2  0  0  0
 21 22  1  0  0  0
 22 23  2  0  0  0
 23 24  1  0  0  0
 24 25  2  0  0  0
 25 26  1  0  0  0
 23 28  1  0  0  0
 28 29  1  0  0  0
 30 29  1  0  0  0
 30 34  1  0  0  0
 34 35  1  0  0  0
 30 31  1  0  0  0
 22 27  1  0  0  0
  5  1  2  0  0  0
 11  6  1  0  0  0
 19 14  1  0  0  0
 25 20  1  0  0  0
 35 36  1  0  0  0
 31 32  1  0  0  0
 31 33  1  0  0  0
M  END
>  <minimizedAffinity>
-4.67845

>  <minimizedRMSD>
1.76555

$$$$
CHEMBL3680380


 35 40  0  0  0  0  0  0  0  0999 V2000
   14.7482   -7.6548   18.2341 C   0  0  0  0  0  0  0  0  0  0  0  0
   15.6691   -8.3664   18.9626 N   0  0  0  0  0  0  0  0  0  0  0  0
   15.9071   -8.0995   20.2792 C   0  0  0  0  0  0  0  0  0  0  0  0
   15.1706   -7.0845   20.8679 C   0  0  0  0  0  0  0  0  0  0  0  0
   15.1916   -6.5220   22.1163 C   0  0  0  0  0  0  0  0  0  0  0  0
   15.9723   -6.7903   23.2347 C   0  0  0  0  0  0  0  0  0  0  0  0
   15.7771   -5.9611   24.3519 C   0  0  0  0  0  0  0  0  0  0  0  0
   14.8674   -4.9373   24.3126 N   0  0  0  0  0  0  0  0  0  0  0  0
   14.1117   -4.6768   23.2047 C   0  0  0  0  0  0  0  0  0  0  0  0
   14.2715   -5.4948   22.0866 C   0  0  0  0  0  0  0  0  0  0  0  0
   13.6482   -5.4061   20.8785 N   0  0  0  0  0  0  0  0  0  0  0  0
   14.2468   -6.3799   20.1403 C   0  0  0  0  0  0  0  0  0  0  0  0
   14.0378   -6.6487   18.8271 N   0  0  0  0  0  0  0  0  0  0  0  0
   12.7246   -4.3452   20.4234 C   0  0  0  0  0  0  0  0  0  0  0  0
   11.5608   -4.1278   21.3992 C   0  0  0  0  0  0  0  0  0  0  0  0
   10.6103   -5.3269   21.4078 C   0  0  0  0  0  0  0  0  0  0  0  0
   10.0681   -5.6224   20.0087 C   0  0  0  0  0  0  0  0  0  0  0  0
    9.0873   -4.5514   19.5592 C   0  0  0  0  0  0  0  0  0  0  0  0
   11.2056   -5.7912   19.0004 C   0  0  0  0  0  0  0  0  0  0  0  0
   12.1601   -4.5938   19.0176 C   0  0  0  0  0  0  0  0  0  0  0  0
   14.5156   -7.9429   16.8487 N   0  0  0  0  0  0  0  0  0  0  0  0
   13.5923   -7.8232   16.5288 H   0  0  0  0  0  0  0  0  0  0  0  0
   17.8515   -9.3940    9.0249 C   0  0  0  0  0  0  0  0  0  0  0  0
   18.4275   -9.3510   10.4000 C   0  0  0  0  0  0  0  0  0  0  0  0
   19.6301   -9.0034   10.5434 O   0  0  0  0  0  0  0  0  0  0  0  0
   17.6316   -9.6886   11.5454 N   0  0  0  0  0  0  0  0  0  0  0  0
   16.2700  -10.1881   11.3933 C   0  0  0  0  0  0  0  0  0  0  0  0
   15.3182   -9.3801   12.2714 C   0  0  0  0  0  0  0  0  0  0  0  0
   15.8801   -9.1096   13.6398 C   0  0  0  0  0  0  0  0  0  0  0  0
   15.0387   -8.6785   14.6182 N   0  0  0  0  0  0  0  0  0  0  0  0
   15.4714   -8.3853   15.8745 C   0  0  0  0  0  0  0  0  0  0  0  0
   16.8311   -8.5230   16.1814 C   0  0  0  0  0  0  0  0  0  0  0  0
   17.7209   -8.9522   15.1977 C   0  0  0  0  0  0  0  0  0  0  0  0
   17.2571   -9.2399   13.9145 C   0  0  0  0  0  0  0  0  0  0  0  0
   18.2301   -9.7183   12.8771 C   0  0  0  0  0  0  0  0  0  0  0  0
 23 24  1  0  0  0
 24 25  2  0  0  0
 24 26  1  0  0  0
 26 27  1  0  0  0
 27 28  1  0  0  0
 28 29  1  0  0  0
 29 30  2  0  0  0
 30 31  1  0  0  0
 31 21  1  0  0  0
 21  1  1  0  0  0
  1  2  2  0  0  0
  2  3  1  0  0  0
  3  4  2  0  0  0
  4  5  1  0  0  0
  5  6  2  0  0  0
  6  7  1  0  0  0
  7  8  2  0  0  0
  8  9  1  0  0  0
  9 10  2  0  0  0
 10 11  1  0  0  0
 14 11  1  0  0  0
 14 15  1  0  0  0
 15 16  1  0  0  0
 16 17  1  0  0  0
 17 18  1  0  0  0
 17 19  1  0  0  0
 19 20  1  0  0  0
 11 12  1  0  0  0
 12 13  2  0  0  0
 31 32  2  0  0  0
 32 33  1  0  0  0
 33 34  2  0  0  0
 34 35  1  0  0  0
 35 26  1  0  0  0
 34 29  1  0  0  0
 13  1  1  0  0  0
 12  4  1  0  0  0
 10  5  1  0  0  0
 20 14  1  0  0  0
 21 22  1  0  0  0
M  END
>  <minimizedAffinity>
-4.66853

>  <minimizedRMSD>
1.82233

$$$$
CHEMBL4576776 PubChem-135335153


 31 34  0  0  0  0  0  0  0  0999 V2000
   15.1803   -8.0178   17.3167 C   0  0  0  0  0  0  0  0  0  0  0  0
   16.5358   -8.3422   17.3396 C   0  0  0  0  0  0  0  0  0  0  0  0
   16.8185   -8.8097   16.1164 N   0  0  0  0  0  0  0  0  0  0  0  0
   17.9979   -9.2584   15.6248 C   0  0  0  0  0  0  0  0  0  0  0  0
   18.0307   -9.6992   14.2946 C   0  0  0  0  0  0  0  0  0  0  0  0
   16.8557   -9.6683   13.5055 C   0  0  0  0  0  0  0  0  0  0  0  0
   15.6567   -9.1892   14.0763 C   0  0  0  0  0  0  0  0  0  0  0  0
   15.6866   -8.7654   15.4017 C   0  0  0  0  0  0  0  0  0  0  0  0
   14.6433   -8.2832   16.0979 N   0  0  0  0  0  0  0  0  0  0  0  0
   14.9676   -7.1092   19.6847 C   0  0  0  0  0  0  0  0  0  0  0  0
   14.1488   -6.5848   20.6983 C   0  0  0  0  0  0  0  0  0  0  0  0
   12.7733   -6.4019   20.4993 C   0  0  0  0  0  0  0  0  0  0  0  0
   12.2104   -6.7498   19.2658 C   0  0  0  0  0  0  0  0  0  0  0  0
   13.0152   -7.2715   18.2522 C   0  0  0  0  0  0  0  0  0  0  0  0
   14.3919   -7.4586   18.4409 C   0  0  0  0  0  0  0  0  0  0  0  0
   10.4943   -6.5398   18.9673 Cl  0  0  0  0  0  0  0  0  0  0  0  0
   17.0403   -6.6431   20.9635 C   0  0  0  0  0  0  0  0  0  0  0  0
   16.3392   -7.2835   19.9057 O   0  0  0  0  0  0  0  0  0  0  0  0
   11.9574   -5.8795   21.5090 O   0  0  0  0  0  0  0  0  0  0  0  0
   12.4552   -5.5162   22.7895 C   0  0  0  0  0  0  0  0  0  0  0  0
   16.8837  -10.1177   12.1361 N   0  0  0  0  0  0  0  0  0  0  0  0
   15.7093   -9.9056   11.2728 C   0  0  0  0  0  0  0  0  0  0  0  0
   15.9804  -10.2687    9.8091 C   0  0  0  0  0  0  0  0  0  0  0  0
   16.9929   -9.3304    9.1360 C   0  0  0  0  0  0  0  0  0  0  0  0
   17.9639   -8.7677   10.0793 N   0  0  0  0  0  0  0  0  0  0  0  0
   18.8318   -9.8209   10.6111 C   0  0  0  0  0  0  0  0  0  0  0  0
   18.0989  -10.7422   11.5970 C   0  0  0  0  0  0  0  0  0  0  0  0
   18.9633   -7.6512    9.2051 S   0  0  0  0  0  0  0  0  0  0  0  0
   18.5685   -6.2442    9.5563 O   0  0  0  0  0  0  0  0  0  0  0  0
   20.4020   -7.8638    9.5848 O   0  0  0  0  0  0  0  0  0  0  0  0
   18.7851   -7.8838    7.4481 C   0  0  0  0  0  0  0  0  0  0  0  0
 17 18  1  0  0  0
 18 10  1  0  0  0
 10 11  2  0  0  0
 11 12  1  0  0  0
 12 13  2  0  0  0
 13 14  1  0  0  0
 14 15  2  0  0  0
 15  1  1  0  0  0
  1  2  2  0  0  0
  2  3  1  0  0  0
  3  4  1  0  0  0
  4  5  2  0  0  0
  5  6  1  0  0  0
  6  7  2  0  0  0
  7  8  1  0  0  0
  8  9  2  0  0  0
  6 21  1  0  0  0
 21 22  1  0  0  0
 22 23  1  0  0  0
 23 24  1  0  0  0
 24 25  1  0  0  0
 25 26  1  0  0  0
 26 27  1  0  0  0
 25 28  1  0  0  0
 28 29  2  0  0  0
 28 30  2  0  0  0
 28 31  1  0  0  0
 13 16  1  0  0  0
 12 19  1  0  0  0
 19 20  1  0  0  0
 15 10  1  0  0  0
  9  1  1  0  0  0
  8  3  1  0  0  0
 27 21  1  0  0  0
M  END
>  <minimizedAffinity>
-4.66649

>  <minimizedRMSD>
0.91986

$$$$
CHEMBL4557810 MCULE-2077404418 MolPort-002-906-634 PubChem-2820514 ZINC000001038225 ZINC01038225


 28 30  0  0  0  0  0  0  0  0999 V2000
   16.3465  -10.6590   17.2172 C   0  0  0  0  0  0  0  0  0  0  0  0
   16.0752   -9.3106   16.7446 N   0  0  0  0  0  0  0  0  0  0  0  0
   15.1657   -8.4342   17.2033 C   0  0  0  0  0  0  0  0  0  0  0  0
   15.2240   -7.2691   16.5293 N   0  0  0  0  0  0  0  0  0  0  0  0
   16.1748   -7.4000   15.6134 N   0  0  0  0  0  0  0  0  0  0  0  0
   16.6828   -8.6398   15.7520 C   0  0  0  0  0  0  0  0  0  0  0  0
   14.2595   -8.6758   18.3649 C   0  0  0  0  0  0  0  0  0  0  0  0
   14.6656   -7.8498   19.4926 N   0  0  0  0  0  0  0  0  0  0  0  0
   15.9269   -7.6941   19.8675 N   0  0  0  0  0  0  0  0  0  0  0  0
   15.9382   -6.8341   20.9056 C   0  0  0  0  0  0  0  0  0  0  0  0
   17.1819   -6.4061   21.6031 C   0  0  0  0  0  0  0  0  0  0  0  0
   14.6415   -6.4309   21.1863 C   0  0  0  0  0  0  0  0  0  0  0  0
   13.8565   -7.0955   20.2634 C   0  0  0  0  0  0  0  0  0  0  0  0
   12.3742   -7.0091   20.1117 C   0  0  0  0  0  0  0  0  0  0  0  0
   14.2086   -5.5160   22.2047 N   0  0  0  0  0  0  0  0  0  0  0  0
   13.9915   -5.9545   23.4899 O   0  0  0  0  0  0  0  0  0  0  0  0
   14.0254   -4.3111   21.9372 O   0  0  0  0  0  0  0  0  0  0  0  0
   18.0117   -9.2892   14.7435 S   0  0  0  0  0  0  0  0  0  0  0  0
   16.9593   -9.3382   13.2634 C   0  0  0  0  0  0  0  0  0  0  0  0
   17.6293  -10.1195   12.1809 C   0  0  0  0  0  0  0  0  0  0  0  0
   18.1070  -11.2545   12.4515 O   0  0  0  0  0  0  0  0  0  0  0  0
   17.7226   -9.5850   10.8085 C   0  0  0  0  0  0  0  0  0  0  0  0
   18.8185   -8.7936   10.4327 C   0  0  0  0  0  0  0  0  0  0  0  0
   18.9110   -8.2828    9.1348 C   0  0  0  0  0  0  0  0  0  0  0  0
   17.9081   -8.5593    8.2021 C   0  0  0  0  0  0  0  0  0  0  0  0
   18.0240   -7.9198    6.5771 Cl  0  0  0  0  0  0  0  0  0  0  0  0
   16.8125   -9.3460    8.5667 C   0  0  0  0  0  0  0  0  0  0  0  0
   16.7200   -9.8567    9.8645 C   0  0  0  0  0  0  0  0  0  0  0  0
  1  2  1  0  0  0
  2  3  1  0  0  0
  3  7  1  0  0  0
  3  4  2  0  0  0
  7  8  1  0  0  0
  8  9  1  0  0  0
  9 10  2  0  0  0
 10 11  1  0  0  0
 10 12  1  0  0  0
 12 13  2  0  0  0
 12 15  1  0  0  0
 13 14  1  0  0  0
 13  8  1  0  0  0
 15 16  1  0  0  0
 15 17  2  0  0  0
  4  5  1  0  0  0
  5  6  2  0  0  0
  6 18  1  0  0  0
  6  2  1  0  0  0
 18 19  1  0  0  0
 19 20  1  0  0  0
 20 21  2  0  0  0
 20 22  1  0  0  0
 22 23  2  0  0  0
 23 24  1  0  0  0
 24 25  2  0  0  0
 25 26  1  0  0  0
 25 27  1  0  0  0
 27 28  2  0  0  0
 28 22  1  0  0  0
M  CHG 1  15   1
M  CHG 1  16  -1
M  END
>  <minimizedAffinity>
-4.65313

>  <minimizedRMSD>
1.81862

$$$$
CHEMBL1858528 PubChem-56661953


 30 33  0  0  0  0  0  0  0  0999 V2000
   15.8076   -8.6948   17.0837 C   0  0  0  0  0  0  0  0  0  0  0  0
   15.2666   -9.1096   15.9208 N   0  0  0  0  0  0  0  0  0  0  0  0
   16.3073   -9.7048   15.3114 C   0  0  0  0  0  0  0  0  0  0  0  0
   17.4386   -9.6358   16.0950 C   0  0  0  0  0  0  0  0  0  0  0  0
   17.0809   -9.0030   17.1870 O   0  0  0  0  0  0  0  0  0  0  0  0
   14.8859   -7.1690   20.4164 C   0  0  0  0  0  0  0  0  0  0  0  0
   15.5829   -7.8545   19.4089 C   0  0  0  0  0  0  0  0  0  0  0  0
   15.0577   -7.9735   18.1217 C   0  0  0  0  0  0  0  0  0  0  0  0
   13.8177   -7.4027   17.8337 C   0  0  0  0  0  0  0  0  0  0  0  0
   13.1005   -6.7096   18.8196 C   0  0  0  0  0  0  0  0  0  0  0  0
   13.6281   -6.5848   20.1167 C   0  0  0  0  0  0  0  0  0  0  0  0
   16.7048   -6.4881   21.9578 C   0  0  0  0  0  0  0  0  0  0  0  0
   15.4329   -7.0688   21.7012 O   0  0  0  0  0  0  0  0  0  0  0  0
   11.8582   -6.1327   18.5323 O   0  0  0  0  0  0  0  0  0  0  0  0
   10.6639   -6.8941   18.4129 C   0  0  0  0  0  0  0  0  0  0  0  0
   12.8622   -5.8767   21.0584 O   0  0  0  0  0  0  0  0  0  0  0  0
   13.0535   -4.5130   21.4055 C   0  0  0  0  0  0  0  0  0  0  0  0
   16.2393  -10.3151   13.9527 C   0  0  0  0  0  0  0  0  0  0  0  0
   15.5522   -9.4180   13.0258 N   0  0  0  0  0  0  0  0  0  0  0  0
   15.2173  -10.1404   11.7893 C   0  0  0  0  0  0  0  0  0  0  0  0
   16.4627  -10.5349   10.9892 C   0  0  0  0  0  0  0  0  0  0  0  0
   17.2902   -9.3547   10.7857 N   0  0  0  0  0  0  0  0  0  0  0  0
   17.6497   -8.5757   11.9618 C   0  0  0  0  0  0  0  0  0  0  0  0
   16.3785   -8.2319   12.7429 C   0  0  0  0  0  0  0  0  0  0  0  0
   17.7098   -8.9563    9.4735 C   0  0  0  0  0  0  0  0  0  0  0  0
   17.1950   -9.5715    8.3728 N   0  0  0  0  0  0  0  0  0  0  0  0
   17.5839   -9.2116    7.1223 C   0  0  0  0  0  0  0  0  0  0  0  0
   18.5236   -8.1975    6.9501 C   0  0  0  0  0  0  0  0  0  0  0  0
   19.0417   -7.5761    8.0846 C   0  0  0  0  0  0  0  0  0  0  0  0
   18.6295   -7.9639    9.3192 N   0  0  0  0  0  0  0  0  0  0  0  0
 12 13  1  0  0  0
 13  6  1  0  0  0
  6  7  2  0  0  0
  7  8  1  0  0  0
  8  1  1  0  0  0
  8  9  2  0  0  0
  1  2  2  0  0  0
  2  3  1  0  0  0
  3 18  1  0  0  0
  3  4  2  0  0  0
 18 19  1  0  0  0
 19 20  1  0  0  0
 20 21  1  0  0  0
 21 22  1  0  0  0
 22 25  1  0  0  0
 22 23  1  0  0  0
 25 26  2  0  0  0
 26 27  1  0  0  0
 27 28  2  0  0  0
 28 29  1  0  0  0
 29 30  2  0  0  0
 30 25  1  0  0  0
 23 24  1  0  0  0
 24 19  1  0  0  0
  4  5  1  0  0  0
  5  1  1  0  0  0
  9 10  1  0  0  0
 10 14  1  0  0  0
 10 11  2  0  0  0
 14 15  1  0  0  0
 11 16  1  0  0  0
 11  6  1  0  0  0
 16 17  1  0  0  0
M  END
>  <minimizedAffinity>
-4.65098

>  <minimizedRMSD>
1.42627

$$$$
CHEMBL3344407 PubChem-118717766


 34 37  0  0  0  0  0  0  0  0999 V2000
   17.1155   -9.4963   16.7088 N   0  0  0  0  0  0  0  0  0  0  0  0
   16.6383   -9.0353   17.8243 O   0  0  0  0  0  0  0  0  0  0  0  0
   15.5167   -8.3921   17.6014 C   0  0  0  0  0  0  0  0  0  0  0  0
   15.1989   -8.4027   16.2901 N   0  0  0  0  0  0  0  0  0  0  0  0
   16.2279   -9.1063   15.7746 C   0  0  0  0  0  0  0  0  0  0  0  0
   16.3676   -9.3970   14.3795 N   0  0  0  0  0  0  0  0  0  0  0  0
   17.6665   -9.2530   13.7245 C   0  0  0  0  0  0  0  0  0  0  0  0
   17.4826   -8.6007   12.3584 C   0  0  0  0  0  0  0  0  0  0  0  0
   16.4161   -9.2868   11.6339 N   0  0  0  0  0  0  0  0  0  0  0  0
   15.1120   -9.3984   12.2814 C   0  0  0  0  0  0  0  0  0  0  0  0
   15.2797  -10.0483   13.6519 C   0  0  0  0  0  0  0  0  0  0  0  0
   16.6435   -9.8619   10.3388 C   0  0  0  0  0  0  0  0  0  0  0  0
   15.7027  -10.4579    9.7433 O   0  0  0  0  0  0  0  0  0  0  0  0
   17.9988   -9.7616    9.6920 C   0  0  0  0  0  0  0  0  0  0  0  0
   18.4403   -8.3167    9.5512 C   0  0  0  0  0  0  0  0  0  0  0  0
   18.3486   -8.4354    8.0422 C   0  0  0  0  0  0  0  0  0  0  0  0
   17.8983   -9.8768    8.1826 C   0  0  0  0  0  0  0  0  0  0  0  0
   14.6921   -7.7329   18.6384 C   0  0  0  0  0  0  0  0  0  0  0  0
   13.3014   -7.7089   18.4585 C   0  0  0  0  0  0  0  0  0  0  0  0
   12.4638   -7.1035   19.3968 C   0  0  0  0  0  0  0  0  0  0  0  0
   13.0048   -6.5055   20.5384 C   0  0  0  0  0  0  0  0  0  0  0  0
   14.3934   -6.5261   20.7300 C   0  0  0  0  0  0  0  0  0  0  0  0
   15.2399   -7.1301   19.7956 C   0  0  0  0  0  0  0  0  0  0  0  0
   16.9635   -7.0930   20.1387 Cl  0  0  0  0  0  0  0  0  0  0  0  0
   11.1238   -7.0978   19.1919 F   0  0  0  0  0  0  0  0  0  0  0  0
   12.1480   -5.9054   21.4682 O   0  0  0  0  0  0  0  0  0  0  0  0
   12.5885   -5.4213   22.7347 C   0  0  0  0  0  0  0  0  0  0  0  0
   12.4858   -3.8997   22.8142 C   0  0  0  0  0  0  0  0  0  0  0  0
   13.5391   -3.2779   22.0313 N   0  0  0  0  0  0  0  0  0  0  0  0
   13.4350   -3.5411   21.0514 H   0  0  0  0  0  0  0  0  0  0  0  0
   14.4474   -3.5920   22.3731 H   0  0  0  0  0  0  0  0  0  0  0  0
   11.1303   -3.4103   22.3315 C   0  0  0  0  0  0  0  0  0  0  0  0
   10.3136   -3.1134   23.4230 O   0  0  0  0  0  0  0  0  0  0  0  0
   10.1884   -3.9116   23.9598 H   0  0  0  0  0  0  0  0  0  0  0  0
  1  2  1  0  0  0
  2  3  1  0  0  0
  3  4  2  0  0  0
  4  5  1  0  0  0
  5  6  1  0  0  0
  6  7  1  0  0  0
  7  8  1  0  0  0
  8  9  1  0  0  0
  9 10  1  0  0  0
 10 11  1  0  0  0
  9 12  1  0  0  0
 12 13  2  0  0  0
 12 14  1  0  0  0
 14 15  1  0  0  0
 15 16  1  0  0  0
 16 17  1  0  0  0
  3 18  1  0  0  0
 18 19  2  0  0  0
 19 20  1  0  0  0
 20 21  2  0  0  0
 21 22  1  0  0  0
 22 23  2  0  0  0
 23 24  1  0  0  0
 21 26  1  0  0  0
 26 27  1  0  0  0
 28 27  1  0  0  0
 28 32  1  0  0  0
 32 33  1  0  0  0
 28 29  1  0  0  0
 20 25  1  0  0  0
  5  1  2  0  0  0
 11  6  1  0  0  0
 17 14  1  0  0  0
 23 18  1  0  0  0
 33 34  1  0  0  0
 29 30  1  0  0  0
 29 31  1  0  0  0
M  END
>  <minimizedAffinity>
-4.64519

>  <minimizedRMSD>
1.66465

$$$$
CHEMBL1858993 PubChem-56658209


 30 33  0  0  0  0  0  0  0  0999 V2000
   15.6487   -8.5166   17.0172 C   0  0  0  0  0  0  0  0  0  0  0  0
   15.1283   -8.6141   15.7771 N   0  0  0  0  0  0  0  0  0  0  0  0
   16.0862   -9.2835   15.1111 C   0  0  0  0  0  0  0  0  0  0  0  0
   17.1553   -9.5604   15.9371 C   0  0  0  0  0  0  0  0  0  0  0  0
   16.8383   -9.0696   17.1117 O   0  0  0  0  0  0  0  0  0  0  0  0
   14.9204   -7.2102   20.4890 C   0  0  0  0  0  0  0  0  0  0  0  0
   15.5679   -7.8093   19.3962 C   0  0  0  0  0  0  0  0  0  0  0  0
   14.9582   -7.8694   18.1425 C   0  0  0  0  0  0  0  0  0  0  0  0
   13.6868   -7.3194   17.9731 C   0  0  0  0  0  0  0  0  0  0  0  0
   13.0180   -6.7133   19.0467 C   0  0  0  0  0  0  0  0  0  0  0  0
   13.6250   -6.6581   20.3130 C   0  0  0  0  0  0  0  0  0  0  0  0
   16.7681   -6.4594   21.9633 C   0  0  0  0  0  0  0  0  0  0  0  0
   15.5547   -7.1633   21.7365 O   0  0  0  0  0  0  0  0  0  0  0  0
   11.7453   -6.1584   18.8788 O   0  0  0  0  0  0  0  0  0  0  0  0
   10.5826   -6.9464   18.6550 C   0  0  0  0  0  0  0  0  0  0  0  0
   12.8974   -6.0504   21.3507 O   0  0  0  0  0  0  0  0  0  0  0  0
   13.0497   -4.7032   21.7740 C   0  0  0  0  0  0  0  0  0  0  0  0
   15.9974   -9.6363   13.6681 C   0  0  0  0  0  0  0  0  0  0  0  0
   17.3050   -9.5012   13.0462 N   0  0  0  0  0  0  0  0  0  0  0  0
   17.7075  -10.4226   12.8744 H   0  0  0  0  0  0  0  0  0  0  0  0
   17.1098   -8.7998   11.7876 C   0  0  0  0  0  0  0  0  0  0  0  0
   17.0589   -9.7879   10.6305 C   0  0  0  0  0  0  0  0  0  0  0  0
   18.4149  -10.5437   10.4631 C   0  0  0  0  0  0  0  0  0  0  0  0
   18.8453  -10.7579    8.9776 C   0  0  0  0  0  0  0  0  0  0  0  0
   18.0195   -9.9054    7.9775 C   0  0  0  0  0  0  0  0  0  0  0  0
   16.5702  -10.2418    8.3179 C   0  0  0  0  0  0  0  0  0  0  0  0
   16.5871   -9.0957    9.3256 C   0  0  0  0  0  0  0  0  0  0  0  0
   17.7787   -8.5050    8.5535 C   0  0  0  0  0  0  0  0  0  0  0  0
   17.3088   -7.5384    7.4736 C   0  0  0  0  0  0  0  0  0  0  0  0
   18.9169   -7.8605    9.3511 C   0  0  0  0  0  0  0  0  0  0  0  0
 12 13  1  0  0  0
 13  6  1  0  0  0
  6  7  2  0  0  0
  7  8  1  0  0  0
  8  1  1  0  0  0
  8  9  2  0  0  0
  1  2  2  0  0  0
  2  3  1  0  0  0
  3 18  1  0  0  0
  3  4  2  0  0  0
 18 19  1  0  0  0
 19 21  1  0  0  0
 22 21  1  0  0  0
 22 23  1  0  0  0
 23 24  1  0  0  0
 25 24  1  0  0  0
 25 26  1  0  0  0
 27 26  1  0  0  0
 27 28  1  0  0  0
 27 22  1  0  0  0
 28 29  1  0  0  0
 28 30  1  0  0  0
 28 25  1  0  0  0
  4  5  1  0  0  0
  5  1  1  0  0  0
  9 10  1  0  0  0
 10 14  1  0  0  0
 10 11  2  0  0  0
 14 15  1  0  0  0
 11 16  1  0  0  0
 11  6  1  0  0  0
 16 17  1  0  0  0
 19 20  1  0  0  0
M  END
>  <minimizedAffinity>
-4.63329

>  <minimizedRMSD>
1.70718

$$$$
CHEMBL1361284 ChemDiv-E966-0106 MCULE-4683375564 MolPort-007-777-751 PubChem-16024248


 28 30  0  0  0  0  0  0  0  0999 V2000
   12.0911   -5.0673   20.5097 C   0  0  0  0  0  0  0  0  0  0  0  0
   11.7630   -5.2807   21.9609 C   0  0  0  0  0  0  0  0  0  0  0  0
   10.9318   -4.5833   22.5993 O   0  0  0  0  0  0  0  0  0  0  0  0
   12.4981   -6.3410   22.5703 N   0  0  0  0  0  0  0  0  0  0  0  0
   13.3176   -6.8186   21.5168 C   0  0  0  0  0  0  0  0  0  0  0  0
   14.2440   -7.8547   21.6163 C   0  0  0  0  0  0  0  0  0  0  0  0
   14.9892   -8.1901   20.4749 C   0  0  0  0  0  0  0  0  0  0  0  0
   14.8015   -7.4912   19.2659 C   0  0  0  0  0  0  0  0  0  0  0  0
   13.8655   -6.4459   19.1927 C   0  0  0  0  0  0  0  0  0  0  0  0
   13.1266   -6.1340   20.3345 C   0  0  0  0  0  0  0  0  0  0  0  0
   12.4481   -6.6634   23.4992 H   0  0  0  0  0  0  0  0  0  0  0  0
   10.9854   -4.4598   18.3333 C   0  0  0  0  0  0  0  0  0  0  0  0
   10.8521   -5.2549   19.6180 C   0  0  0  0  0  0  0  0  0  0  0  0
   10.5389   -6.7116   19.3006 C   0  0  0  0  0  0  0  0  0  0  0  0
   15.7516   -7.9162   17.8550 S   0  0  0  0  0  0  0  0  0  0  0  0
   17.0662   -7.1887   17.9044 O   0  0  0  0  0  0  0  0  0  0  0  0
   15.0044   -7.5212   16.6111 O   0  0  0  0  0  0  0  0  0  0  0  0
   16.0224   -9.6281   17.8416 N   0  0  0  0  0  0  0  0  0  0  0  0
   15.1315  -10.1191   17.7668 H   0  0  0  0  0  0  0  0  0  0  0  0
   16.8563   -9.9407   16.6930 C   0  0  0  0  0  0  0  0  0  0  0  0
   15.9795  -10.3731   15.5250 C   0  0  0  0  0  0  0  0  0  0  0  0
   16.6000  -10.1262   14.1804 C   0  0  0  0  0  0  0  0  0  0  0  0
   15.8660   -9.4014   13.2349 C   0  0  0  0  0  0  0  0  0  0  0  0
   16.4013   -9.1440   11.9691 C   0  0  0  0  0  0  0  0  0  0  0  0
   17.6770   -9.6112   11.6412 C   0  0  0  0  0  0  0  0  0  0  0  0
   18.2455   -9.3375   10.2957 C   0  0  0  0  0  0  0  0  0  0  0  0
   18.4179  -10.3356   12.5787 C   0  0  0  0  0  0  0  0  0  0  0  0
   17.8824  -10.5927   13.8441 C   0  0  0  0  0  0  0  0  0  0  0  0
 12 13  1  0  0  0
 13 14  1  0  0  0
  1 13  1  0  0  0
  1  2  1  0  0  0
  2  3  2  0  0  0
  2  4  1  0  0  0
  4  5  1  0  0  0
  5  6  2  0  0  0
  6  7  1  0  0  0
  7  8  2  0  0  0
  8  9  1  0  0  0
  8 15  1  0  0  0
  9 10  2  0  0  0
 10  1  1  0  0  0
 10  5  1  0  0  0
 15 16  2  0  0  0
 15 17  2  0  0  0
 15 18  1  0  0  0
 18 20  1  0  0  0
 20 21  1  0  0  0
 21 22  1  0  0  0
 22 23  2  0  0  0
 23 24  1  0  0  0
 24 25  2  0  0  0
 25 26  1  0  0  0
 25 27  1  0  0  0
 27 28  2  0  0  0
 28 22  1  0  0  0
  4 11  1  0  0  0
 18 19  1  0  0  0
M  END
>  <minimizedAffinity>
-4.59717

>  <minimizedRMSD>
1.55293

$$$$
CHEMBL2272108 PubChem-76326992


 31 33  0  0  0  0  0  0  0  0999 V2000
   16.2712   -8.2666   15.1075 C   0  0  0  0  0  0  0  0  0  0  0  0
   15.5586   -8.0335   13.9257 C   0  0  0  0  0  0  0  0  0  0  0  0
   16.0234   -8.5333   12.7058 C   0  0  0  0  0  0  0  0  0  0  0  0
   17.2088   -9.2746   12.6582 C   0  0  0  0  0  0  0  0  0  0  0  0
   17.9251   -9.5161   13.8339 C   0  0  0  0  0  0  0  0  0  0  0  0
   17.4590   -9.0148   15.0522 C   0  0  0  0  0  0  0  0  0  0  0  0
   15.7605   -7.7448   16.3060 O   0  0  0  0  0  0  0  0  0  0  0  0
   15.7130   -8.4016   17.5469 C   0  0  0  0  0  0  0  0  0  0  0  0
   16.3866   -9.4474   17.7573 O   0  0  0  0  0  0  0  0  0  0  0  0
   14.4601   -7.4224   20.9803 C   0  0  0  0  0  0  0  0  0  0  0  0
   15.2616   -7.9462   19.9559 C   0  0  0  0  0  0  0  0  0  0  0  0
   14.8678   -7.8515   18.6193 C   0  0  0  0  0  0  0  0  0  0  0  0
   13.6588   -7.2264   18.3085 C   0  0  0  0  0  0  0  0  0  0  0  0
   12.8357   -6.6943   19.3139 C   0  0  0  0  0  0  0  0  0  0  0  0
   13.2422   -6.7932   20.6692 C   0  0  0  0  0  0  0  0  0  0  0  0
   15.8989   -6.7259   22.8728 C   0  0  0  0  0  0  0  0  0  0  0  0
   14.8544   -7.5157   22.3200 O   0  0  0  0  0  0  0  0  0  0  0  0
   11.6284   -6.0734   18.9733 O   0  0  0  0  0  0  0  0  0  0  0  0
   11.5471   -4.7239   18.5333 C   0  0  0  0  0  0  0  0  0  0  0  0
   12.4849   -6.2903   21.7410 O   0  0  0  0  0  0  0  0  0  0  0  0
   12.5051   -4.9442   22.1939 C   0  0  0  0  0  0  0  0  0  0  0  0
   17.7112   -9.8061   11.3575 C   0  0  0  0  0  0  0  0  0  0  0  0
   17.6594   -8.7431   10.2662 C   0  0  0  0  0  0  0  0  0  0  0  0
   16.8689   -9.2399    9.1482 N   0  0  0  0  0  0  0  0  0  0  0  0
   17.7278   -9.2954    8.0161 C   0  0  0  0  0  0  0  0  0  0  0  0
   17.2274   -9.8050    6.5484 S   0  0  0  0  0  0  0  0  0  0  0  0
   19.0553   -8.8724    8.2722 N   0  0  0  0  0  0  0  0  0  0  0  0
   19.0078   -8.5325    9.6495 C   0  0  0  0  0  0  0  0  0  0  0  0
   20.0037   -8.0709   10.2660 O   0  0  0  0  0  0  0  0  0  0  0  0
   15.9171   -9.4907    9.1719 H   0  0  0  0  0  0  0  0  0  0  0  0
   19.8181   -8.8260    7.6516 H   0  0  0  0  0  0  0  0  0  0  0  0
 16 17  1  0  0  0
 17 10  1  0  0  0
 10 11  2  0  0  0
 11 12  1  0  0  0
 12  8  1  0  0  0
 12 13  2  0  0  0
  8  9  2  0  0  0
  8  7  1  0  0  0
  7  1  1  0  0  0
  1  2  2  0  0  0
  2  3  1  0  0  0
  3  4  2  0  0  0
  4 22  1  0  0  0
  4  5  1  0  0  0
 23 22  1  0  0  0
 23 24  1  0  0  0
 24 25  1  0  0  0
 25 26  2  0  0  0
 25 27  1  0  0  0
 27 28  1  0  0  0
 28 29  2  0  0  0
 28 23  1  0  0  0
  5  6  2  0  0  0
  6  1  1  0  0  0
 13 14  1  0  0  0
 14 18  1  0  0  0
 14 15  2  0  0  0
 18 19  1  0  0  0
 15 20  1  0  0  0
 15 10  1  0  0  0
 20 21  1  0  0  0
 24 30  1  0  0  0
 27 31  1  0  0  0
M  END
>  <minimizedAffinity>
-4.58837

>  <minimizedRMSD>
1.46561

$$$$
CHEMBL157143 PubChem-13108896


 36 39  0  0  0  0  0  0  0  0999 V2000
   16.1061   -9.8826   12.6905 N   0  0  0  0  0  0  0  0  0  0  0  0
   17.5412  -10.1055   12.8712 C   0  0  0  0  0  0  0  0  0  0  0  0
   17.8904  -10.0503   14.3577 C   0  0  0  0  0  0  0  0  0  0  0  0
   17.5202   -8.7431   14.9054 N   0  0  0  0  0  0  0  0  0  0  0  0
   16.0945   -8.4777   14.6907 C   0  0  0  0  0  0  0  0  0  0  0  0
   15.7749   -8.5529   13.1988 C   0  0  0  0  0  0  0  0  0  0  0  0
   15.8592   -9.8553   11.2599 C   0  0  0  0  0  0  0  0  0  0  0  0
   17.0106  -10.5242   10.5287 C   0  0  0  0  0  0  0  0  0  0  0  0
   16.6224  -10.8066    9.0864 C   0  0  0  0  0  0  0  0  0  0  0  0
   16.3630   -9.5912    8.3904 O   0  0  0  0  0  0  0  0  0  0  0  0
   19.3390   -7.3924    6.3789 C   0  0  0  0  0  0  0  0  0  0  0  0
   19.0806   -7.1374    7.7352 C   0  0  0  0  0  0  0  0  0  0  0  0
   18.0956   -7.8617    8.4125 C   0  0  0  0  0  0  0  0  0  0  0  0
   17.3566   -8.8494    7.7418 C   0  0  0  0  0  0  0  0  0  0  0  0
   17.6177   -9.1029    6.3919 C   0  0  0  0  0  0  0  0  0  0  0  0
   18.6028   -8.3783    5.7140 C   0  0  0  0  0  0  0  0  0  0  0  0
   21.6868   -7.0618    5.6720 C   0  0  0  0  0  0  0  0  0  0  0  0
   20.3162   -6.6850    5.6719 O   0  0  0  0  0  0  0  0  0  0  0  0
   17.8843   -8.6789   16.3301 C   0  0  0  0  0  0  0  0  0  0  0  0
   16.7518   -8.9407   17.3466 C   0  0  0  0  0  0  0  0  0  0  0  0
   16.4508  -10.2980   17.4654 O   0  0  0  0  0  0  0  0  0  0  0  0
   16.1056  -10.6278   16.6211 H   0  0  0  0  0  0  0  0  0  0  0  0
   15.4894   -8.1397   17.0433 C   0  0  0  0  0  0  0  0  0  0  0  0
   14.8918   -7.6124   18.2733 N   0  0  0  0  0  0  0  0  0  0  0  0
   13.5517   -7.3103   18.2905 C   0  0  0  0  0  0  0  0  0  0  0  0
   12.8311   -7.4746   17.2681 O   0  0  0  0  0  0  0  0  0  0  0  0
   13.0098   -6.8147   19.4696 C   0  0  0  0  0  0  0  0  0  0  0  0
   13.7838   -6.6480   20.5629 C   0  0  0  0  0  0  0  0  0  0  0  0
   13.0618   -6.1610   21.5922 N   0  0  0  0  0  0  0  0  0  0  0  0
   11.8121   -6.0419   21.0654 C   0  0  0  0  0  0  0  0  0  0  0  0
   11.7597   -6.4372   19.7705 N   0  0  0  0  0  0  0  0  0  0  0  0
   10.5842   -6.4408   18.9173 C   0  0  0  0  0  0  0  0  0  0  0  0
   15.1049   -6.9587   20.5664 N   0  0  0  0  0  0  0  0  0  0  0  0
   15.9020   -6.7776   21.7743 C   0  0  0  0  0  0  0  0  0  0  0  0
   15.6629   -7.4518   19.4107 C   0  0  0  0  0  0  0  0  0  0  0  0
   16.8874   -7.7626   19.3912 O   0  0  0  0  0  0  0  0  0  0  0  0
 17 18  1  0  0  0
 18 11  1  0  0  0
 11 12  2  0  0  0
 12 13  1  0  0  0
 13 14  2  0  0  0
 14 10  1  0  0  0
 14 15  1  0  0  0
 10  9  1  0  0  0
  9  8  1  0  0  0
  8  7  1  0  0  0
  7  1  1  0  0  0
  1  2  1  0  0  0
  2  3  1  0  0  0
  3  4  1  0  0  0
  4 19  1  0  0  0
  4  5  1  0  0  0
 20 19  1  0  0  0
 20 21  1  0  0  0
 20 23  1  0  0  0
 23 24  1  0  0  0
 24 25  1  0  0  0
 25 26  2  0  0  0
 25 27  1  0  0  0
 27 28  2  0  0  0
 28 29  1  0  0  0
 28 33  1  0  0  0
 29 30  2  0  0  0
 30 31  1  0  0  0
 31 32  1  0  0  0
 31 27  1  0  0  0
 33 34  1  0  0  0
 33 35  1  0  0  0
 35 36  2  0  0  0
 35 24  1  0  0  0
  5  6  1  0  0  0
  6  1  1  0  0  0
 15 16  2  0  0  0
 16 11  1  0  0  0
 21 22  1  0  0  0
M  END
>  <minimizedAffinity>
-4.55637

>  <minimizedRMSD>
1.95433

$$$$
CHEMBL3195172 LN00683117 MolPort-000-793-626 PubChem-6889494 ZINC02391680


 36 39  0  0  0  0  0  0  0  0999 V2000
   13.8669   -6.5036   21.0194 C   0  0  0  0  0  0  0  0  0  0  0  0
   14.8232   -7.1910   20.2880 C   0  0  0  0  0  0  0  0  0  0  0  0
   15.7271   -7.6884   21.1556 N   0  0  0  0  0  0  0  0  0  0  0  0
   15.3458   -7.3197   22.3701 N   0  0  0  0  0  0  0  0  0  0  0  0
   14.2294   -6.6095   22.3163 N   0  0  0  0  0  0  0  0  0  0  0  0
   13.6083   -6.0185   23.4692 C   0  0  0  0  0  0  0  0  0  0  0  0
   12.3340   -5.5966   23.5339 N   0  0  0  0  0  0  0  0  0  0  0  0
   12.1955   -5.0933   24.7315 O   0  0  0  0  0  0  0  0  0  0  0  0
   13.2799   -5.1444   25.4578 N   0  0  0  0  0  0  0  0  0  0  0  0
   14.1968   -5.7268   24.6710 C   0  0  0  0  0  0  0  0  0  0  0  0
   15.5423   -5.9856   25.0566 N   0  0  0  0  0  0  0  0  0  0  0  0
   15.8552   -5.7291   25.9542 H   0  0  0  0  0  0  0  0  0  0  0  0
   16.1601   -6.4210   24.4257 H   0  0  0  0  0  0  0  0  0  0  0  0
   10.3892   -4.5039   19.5248 C   0  0  0  0  0  0  0  0  0  0  0  0
   10.4102   -5.8982   19.6327 C   0  0  0  0  0  0  0  0  0  0  0  0
   11.5451   -6.5514   20.1210 C   0  0  0  0  0  0  0  0  0  0  0  0
   12.6708   -5.8139   20.5076 C   0  0  0  0  0  0  0  0  0  0  0  0
   12.6543   -4.4182   20.3996 C   0  0  0  0  0  0  0  0  0  0  0  0
   11.5196   -3.7653   19.9111 C   0  0  0  0  0  0  0  0  0  0  0  0
    9.2393   -3.8804   19.0323 O   0  0  0  0  0  0  0  0  0  0  0  0
    7.8282   -2.1483   18.1605 C   0  0  0  0  0  0  0  0  0  0  0  0
    9.1831   -2.4898   18.7444 C   0  0  0  0  0  0  0  0  0  0  0  0
   14.8719   -7.4337   18.8369 C   0  0  0  0  0  0  0  0  0  0  0  0
   14.0153   -6.9179   18.0703 O   0  0  0  0  0  0  0  0  0  0  0  0
   15.8913   -8.2757   18.2994 N   0  0  0  0  0  0  0  0  0  0  0  0
   16.5539   -8.6811   18.9042 H   0  0  0  0  0  0  0  0  0  0  0  0
   15.9638   -8.5339   16.9260 N   0  0  0  0  0  0  0  0  0  0  0  0
   17.0342   -9.0535   16.4212 C   0  0  0  0  0  0  0  0  0  0  0  0
   17.1437   -9.3370   14.9864 C   0  0  0  0  0  0  0  0  0  0  0  0
   18.2366  -10.0741   14.5209 C   0  0  0  0  0  0  0  0  0  0  0  0
   18.3644  -10.3579   13.1582 C   0  0  0  0  0  0  0  0  0  0  0  0
   17.3965   -9.9052   12.2466 C   0  0  0  0  0  0  0  0  0  0  0  0
   16.3041   -9.1680   12.7150 C   0  0  0  0  0  0  0  0  0  0  0  0
   16.1765   -8.8842   14.0778 C   0  0  0  0  0  0  0  0  0  0  0  0
   17.4958  -10.1724   10.8784 O   0  0  0  0  0  0  0  0  0  0  0  0
   17.9410   -9.2048    9.9377 C   0  0  0  0  0  0  0  0  0  0  0  0
 21 22  1  0  0  0
 22 20  1  0  0  0
 20 14  1  0  0  0
 14 15  2  0  0  0
 15 16  1  0  0  0
 16 17  2  0  0  0
 17 18  1  0  0  0
 17  1  1  0  0  0
 18 19  2  0  0  0
 19 14  1  0  0  0
  1  2  2  0  0  0
  2  3  1  0  0  0
  2 23  1  0  0  0
  3  4  2  0  0  0
  4  5  1  0  0  0
  5  6  1  0  0  0
  5  1  1  0  0  0
  6  7  2  0  0  0
  7  8  1  0  0  0
  8  9  1  0  0  0
  9 10  2  0  0  0
 10 11  1  0  0  0
 10  6  1  0  0  0
 23 24  2  0  0  0
 23 25  1  0  0  0
 25 27  1  0  0  0
 27 28  2  0  0  0
 28 29  1  0  0  0
 29 30  2  0  0  0
 30 31  1  0  0  0
 31 32  2  0  0  0
 32 35  1  0  0  0
 32 33  1  0  0  0
 35 36  1  0  0  0
 33 34  2  0  0  0
 34 29  1  0  0  0
 11 12  1  0  0  0
 11 13  1  0  0  0
 25 26  1  0  0  0
M  END
>  <minimizedAffinity>
-4.54682

>  <minimizedRMSD>
1.62427

$$$$
CHEMBL3211584 LN00652005 MolPort-000-794-387 PubChem-5925437 ZINC02415431


 37 40  0  0  0  0  0  0  0  0999 V2000
   14.8811   -7.7264   20.5511 C   0  0  0  0  0  0  0  0  0  0  0  0
   14.5487   -6.4386   20.9356 C   0  0  0  0  0  0  0  0  0  0  0  0
   14.2111   -6.5030   22.2392 N   0  0  0  0  0  0  0  0  0  0  0  0
   14.3253   -7.7633   22.6291 N   0  0  0  0  0  0  0  0  0  0  0  0
   14.7296   -8.5285   21.6249 N   0  0  0  0  0  0  0  0  0  0  0  0
   13.8129   -5.4284   23.1043 C   0  0  0  0  0  0  0  0  0  0  0  0
   13.1338   -4.3349   22.7178 N   0  0  0  0  0  0  0  0  0  0  0  0
   12.9897   -3.6170   23.7999 O   0  0  0  0  0  0  0  0  0  0  0  0
   13.5221   -4.1507   24.8666 N   0  0  0  0  0  0  0  0  0  0  0  0
   14.0561   -5.3070   24.4464 C   0  0  0  0  0  0  0  0  0  0  0  0
   14.7432   -6.2297   25.2846 N   0  0  0  0  0  0  0  0  0  0  0  0
   14.8580   -6.0334   26.2425 H   0  0  0  0  0  0  0  0  0  0  0  0
   15.1036   -7.0641   24.9064 H   0  0  0  0  0  0  0  0  0  0  0  0
   14.9797   -7.4820   18.0430 N   0  0  0  0  0  0  0  0  0  0  0  0
   15.3325   -8.2036   19.2338 C   0  0  0  0  0  0  0  0  0  0  0  0
   16.0426   -9.2426   19.1705 O   0  0  0  0  0  0  0  0  0  0  0  0
   14.4516   -6.6591   18.1575 H   0  0  0  0  0  0  0  0  0  0  0  0
   16.2629   -8.6898   16.4404 C   0  0  0  0  0  0  0  0  0  0  0  0
   15.3218   -7.8463   16.7265 N   0  0  0  0  0  0  0  0  0  0  0  0
   17.2444   -9.7330   12.4121 C   0  0  0  0  0  0  0  0  0  0  0  0
   18.0763  -10.1099   13.4714 C   0  0  0  0  0  0  0  0  0  0  0  0
   17.7475   -9.7642   14.7855 C   0  0  0  0  0  0  0  0  0  0  0  0
   16.5828   -9.0383   15.0525 C   0  0  0  0  0  0  0  0  0  0  0  0
   15.7460   -8.6585   13.9939 C   0  0  0  0  0  0  0  0  0  0  0  0
   16.0746   -9.0038   12.6802 C   0  0  0  0  0  0  0  0  0  0  0  0
   17.6012  -10.0942   11.1097 O   0  0  0  0  0  0  0  0  0  0  0  0
   17.1111   -9.3601    8.8797 C   0  0  0  0  0  0  0  0  0  0  0  0
   17.9550   -9.1398   10.1176 C   0  0  0  0  0  0  0  0  0  0  0  0
   14.5061   -5.2057   20.0836 C   0  0  0  0  0  0  0  0  0  0  0  0
   13.5048   -5.3242   19.0760 O   0  0  0  0  0  0  0  0  0  0  0  0
   12.1461   -5.5184   19.3481 C   0  0  0  0  0  0  0  0  0  0  0  0
   11.5057   -6.6441   18.8191 C   0  0  0  0  0  0  0  0  0  0  0  0
   10.1489   -6.8686   19.0712 C   0  0  0  0  0  0  0  0  0  0  0  0
    9.4245   -5.9659   19.8546 C   0  0  0  0  0  0  0  0  0  0  0  0
    8.1102   -6.1841   20.0995 F   0  0  0  0  0  0  0  0  0  0  0  0
   10.0560   -4.8379   20.3851 C   0  0  0  0  0  0  0  0  0  0  0  0
   11.4120   -4.6140   20.1322 C   0  0  0  0  0  0  0  0  0  0  0  0
 27 28  1  0  0  0
 28 26  1  0  0  0
 26 20  1  0  0  0
 20 21  2  0  0  0
 21 22  1  0  0  0
 22 23  2  0  0  0
 23 18  1  0  0  0
 23 24  1  0  0  0
 18 19  2  0  0  0
 19 14  1  0  0  0
 14 15  1  0  0  0
 15 16  2  0  0  0
 15  1  1  0  0  0
  1  2  2  0  0  0
  2 29  1  0  0  0
  2  3  1  0  0  0
 29 30  1  0  0  0
 30 31  1  0  0  0
 31 32  2  0  0  0
 32 33  1  0  0  0
 33 34  2  0  0  0
 34 35  1  0  0  0
 34 36  1  0  0  0
 36 37  2  0  0  0
 37 31  1  0  0  0
  3  4  1  0  0  0
  3  6  1  0  0  0
  4  5  2  0  0  0
  5  1  1  0  0  0
  6  7  2  0  0  0
  7  8  1  0  0  0
  8  9  1  0  0  0
  9 10  2  0  0  0
 10 11  1  0  0  0
 10  6  1  0  0  0
 24 25  2  0  0  0
 25 20  1  0  0  0
 14 17  1  0  0  0
 11 12  1  0  0  0
 11 13  1  0  0  0
M  END
>  <minimizedAffinity>
-4.54567

>  <minimizedRMSD>
1.55760

$$$$
CHEMBL1500549 MCULE-8545829511 MolPort-000-104-537 PubChem-651590


 33 36  0  0  0  0  0  0  0  0999 V2000
   16.0278   -8.5718   15.2148 C   0  0  0  0  0  0  0  0  0  0  0  0
   15.2191   -7.8101   15.9766 N   0  0  0  0  0  0  0  0  0  0  0  0
   15.5232   -8.2543   17.2151 C   0  0  0  0  0  0  0  0  0  0  0  0
   16.4595   -9.2243   17.1997 N   0  0  0  0  0  0  0  0  0  0  0  0
   16.7457   -9.3913   15.9449 O   0  0  0  0  0  0  0  0  0  0  0  0
   18.1519   -9.5736   10.8565 C   0  0  0  0  0  0  0  0  0  0  0  0
   19.2813   -9.7893   11.3763 O   0  0  0  0  0  0  0  0  0  0  0  0
   16.9842   -9.5591   11.6975 N   0  0  0  0  0  0  0  0  0  0  0  0
   15.6608   -9.8701   11.1439 C   0  0  0  0  0  0  0  0  0  0  0  0
   14.5947   -9.9243   12.2358 C   0  0  0  0  0  0  0  0  0  0  0  0
   14.6895   -8.6812   13.1170 C   0  0  0  0  0  0  0  0  0  0  0  0
   16.0892   -8.4780   13.7225 C   0  0  0  0  0  0  0  0  0  0  0  0
   17.1500   -9.4246   13.1451 C   0  0  0  0  0  0  0  0  0  0  0  0
   18.8194   -8.2822    8.7866 C   0  0  0  0  0  0  0  0  0  0  0  0
   18.6777   -8.0491    7.4077 C   0  0  0  0  0  0  0  0  0  0  0  0
   17.8024   -8.8196    6.6414 C   0  0  0  0  0  0  0  0  0  0  0  0
   17.0566   -9.8315    7.2443 C   0  0  0  0  0  0  0  0  0  0  0  0
   17.1866  -10.0720    8.6129 C   0  0  0  0  0  0  0  0  0  0  0  0
   18.0666   -9.3109    9.3979 C   0  0  0  0  0  0  0  0  0  0  0  0
   21.0330   -7.9333    9.8466 C   0  0  0  0  0  0  0  0  0  0  0  0
   19.7075   -7.5145    9.5505 O   0  0  0  0  0  0  0  0  0  0  0  0
   14.9023   -7.7366   18.4442 C   0  0  0  0  0  0  0  0  0  0  0  0
   15.6026   -7.7530   19.6494 C   0  0  0  0  0  0  0  0  0  0  0  0
   15.0326   -7.2662   20.8281 C   0  0  0  0  0  0  0  0  0  0  0  0
   13.7125   -6.7404   20.8062 C   0  0  0  0  0  0  0  0  0  0  0  0
   12.9982   -6.7252   19.5778 C   0  0  0  0  0  0  0  0  0  0  0  0
   13.6068   -7.2240   18.4168 C   0  0  0  0  0  0  0  0  0  0  0  0
   15.8305   -7.3335   21.9815 O   0  0  0  0  0  0  0  0  0  0  0  0
   16.8595   -6.4157   22.3223 C   0  0  0  0  0  0  0  0  0  0  0  0
   13.1591   -6.2532   22.0033 O   0  0  0  0  0  0  0  0  0  0  0  0
   13.2710   -4.9207   22.4832 C   0  0  0  0  0  0  0  0  0  0  0  0
   11.6944   -6.2190   19.5142 O   0  0  0  0  0  0  0  0  0  0  0  0
   11.3846   -4.9329   18.9931 C   0  0  0  0  0  0  0  0  0  0  0  0
 20 21  1  0  0  0
 21 14  1  0  0  0
 14 15  2  0  0  0
 15 16  1  0  0  0
 16 17  2  0  0  0
 17 18  1  0  0  0
 18 19  2  0  0  0
 19  6  1  0  0  0
 19 14  1  0  0  0
  6  7  2  0  0  0
  6  8  1  0  0  0
  8  9  1  0  0  0
  9 10  1  0  0  0
 10 11  1  0  0  0
 11 12  1  0  0  0
 12  1  1  0  0  0
 12 13  1  0  0  0
  1  2  2  0  0  0
  2  3  1  0  0  0
  3 22  1  0  0  0
  3  4  2  0  0  0
 22 23  2  0  0  0
 23 24  1  0  0  0
 24 28  1  0  0  0
 24 25  2  0  0  0
 28 29  1  0  0  0
 25 30  1  0  0  0
 25 26  1  0  0  0
 30 31  1  0  0  0
 26 32  1  0  0  0
 26 27  2  0  0  0
 32 33  1  0  0  0
 27 22  1  0  0  0
  4  5  1  0  0  0
  5  1  1  0  0  0
 13  8  1  0  0  0
M  END
>  <minimizedAffinity>
-4.53951

>  <minimizedRMSD>
1.32726

$$$$
CHEMBL4077702 44135896 LN01288731 MCULE-9022909871 MolPort-006-394-739 PubChem-144482483 PubChem-161781915 PubChem-44608359 ZINC000044135896


 31 35  0  0  0  0  0  0  0  0999 V2000
   16.6890   -8.3100   14.8256 N   0  0  0  0  0  0  0  0  0  0  0  0
   17.4090   -9.5633   14.5817 C   0  0  0  0  0  0  0  0  0  0  0  0
   17.6548   -9.7422   13.0864 C   0  0  0  0  0  0  0  0  0  0  0  0
   16.3202   -9.7394   12.3427 C   0  0  0  0  0  0  0  0  0  0  0  0
   15.5133   -8.4872   12.6820 C   0  0  0  0  0  0  0  0  0  0  0  0
   15.3664   -8.3664   14.1960 C   0  0  0  0  0  0  0  0  0  0  0  0
   16.5372   -9.8444   10.8670 C   0  0  0  0  0  0  0  0  0  0  0  0
   15.8379  -10.6758   10.0588 N   0  0  0  0  0  0  0  0  0  0  0  0
   16.2847  -10.5094    8.8407 O   0  0  0  0  0  0  0  0  0  0  0  0
   17.2382   -9.6107    8.8262 C   0  0  0  0  0  0  0  0  0  0  0  0
   17.9744   -9.1424    7.7418 C   0  0  0  0  0  0  0  0  0  0  0  0
   18.9527   -8.1628    8.0006 C   0  0  0  0  0  0  0  0  0  0  0  0
   19.6980   -7.6722    6.9816 F   0  0  0  0  0  0  0  0  0  0  0  0
   19.1634   -7.6870    9.3160 C   0  0  0  0  0  0  0  0  0  0  0  0
   18.4005   -8.1826   10.3901 C   0  0  0  0  0  0  0  0  0  0  0  0
   17.4434   -9.1500   10.0941 C   0  0  0  0  0  0  0  0  0  0  0  0
   16.5380   -8.1021   16.2689 C   0  0  0  0  0  0  0  0  0  0  0  0
   15.3138   -8.8085   16.8593 C   0  0  0  0  0  0  0  0  0  0  0  0
   12.7780   -7.3153   16.6010 C   0  0  0  0  0  0  0  0  0  0  0  0
   13.5614   -7.2961   17.8704 C   0  0  0  0  0  0  0  0  0  0  0  0
   13.0945   -6.5705   18.9160 N   0  0  0  0  0  0  0  0  0  0  0  0
   13.7642   -6.5132   20.0967 C   0  0  0  0  0  0  0  0  0  0  0  0
   14.9436   -7.1940   20.2524 N   0  0  0  0  0  0  0  0  0  0  0  0
   15.4447   -7.9443   19.2246 C   0  0  0  0  0  0  0  0  0  0  0  0
   16.5248   -8.5826   19.3721 O   0  0  0  0  0  0  0  0  0  0  0  0
   14.7602   -8.0104   18.0012 C   0  0  0  0  0  0  0  0  0  0  0  0
   15.6324   -7.1931   21.5497 C   0  0  0  0  0  0  0  0  0  0  0  0
   15.4913   -5.8415   22.2428 C   0  0  0  0  0  0  0  0  0  0  0  0
   14.0175   -5.5132   22.4610 C   0  0  0  0  0  0  0  0  0  0  0  0
   13.2291   -5.6906   21.1993 C   0  0  0  0  0  0  0  0  0  0  0  0
   12.0991   -5.1447   21.0952 O   0  0  0  0  0  0  0  0  0  0  0  0
 19 20  1  0  0  0
 20 21  1  0  0  0
 21 22  2  0  0  0
 22 23  1  0  0  0
 23 24  1  0  0  0
 24 25  2  0  0  0
 24 26  1  0  0  0
 26 18  1  0  0  0
 18 17  1  0  0  0
 17  1  1  0  0  0
  1  2  1  0  0  0
  2  3  1  0  0  0
  3  4  1  0  0  0
  4  7  1  0  0  0
  7  8  2  0  0  0
  8  9  1  0  0  0
  9 10  1  0  0  0
 10 11  2  0  0  0
 11 12  1  0  0  0
 12 13  1  0  0  0
 12 14  2  0  0  0
 14 15  1  0  0  0
 15 16  2  0  0  0
  4  5  1  0  0  0
  5  6  1  0  0  0
 23 27  1  0  0  0
 27 28  1  0  0  0
 28 29  1  0  0  0
 29 30  1  0  0  0
 30 31  2  0  0  0
 26 20  2  0  0  0
  6  1  1  0  0  0
 30 22  1  0  0  0
 16  7  1  0  0  0
 16 10  1  0  0  0
M  END
>  <minimizedAffinity>
-4.53829

>  <minimizedRMSD>
1.93289

$$$$
CHEMBL1183111 CHEMBL280620 PubChem-44279610 PubChem-44279611


 35 38  0  0  0  0  0  0  0  0999 V2000
   15.6677  -10.0222   14.9551 S   0  0  0  0  0  0  0  0  0  0  0  0
   17.3236   -9.8331   10.0723 C   0  0  0  0  0  0  0  0  0  0  0  0
   18.4987  -10.4769   10.7459 C   0  0  0  0  0  0  0  0  0  0  0  0
   19.3218  -11.3789   10.4416 O   0  0  0  0  0  0  0  0  0  0  0  0
   18.2284   -9.6737   11.9547 N   0  0  0  0  0  0  0  0  0  0  0  0
   17.8986  -10.0260   13.2718 C   0  0  0  0  0  0  0  0  0  0  0  0
   16.6084   -9.7449   13.4506 C   0  0  0  0  0  0  0  0  0  0  0  0
   15.9970   -9.1578   12.1866 C   0  0  0  0  0  0  0  0  0  0  0  0
   14.9095  -10.0742   11.6384 C   0  0  0  0  0  0  0  0  0  0  0  0
   17.2112   -8.9752   11.2288 C   0  0  0  0  0  0  0  0  0  0  0  0
   16.5849   -8.7428    7.9552 C   0  0  0  0  0  0  0  0  0  0  0  0
   17.7725   -9.0348    8.8532 C   0  0  0  0  0  0  0  0  0  0  0  0
   18.3385   -7.8256    9.2602 O   0  0  0  0  0  0  0  0  0  0  0  0
   17.6787   -7.3073    9.7470 H   0  0  0  0  0  0  0  0  0  0  0  0
   18.8335  -10.6857   14.1990 C   0  0  0  0  0  0  0  0  0  0  0  0
   19.0331  -11.9249   14.1024 O   0  0  0  0  0  0  0  0  0  0  0  0
   19.4986   -9.9670   15.1843 O   0  0  0  0  0  0  0  0  0  0  0  0
   19.3584   -9.0442   15.2663 H   0  0  0  0  0  0  0  0  0  0  0  0
   16.2764   -8.4963   15.7357 C   0  0  0  0  0  0  0  0  0  0  0  0
   17.0181   -8.8290   17.0140 C   0  0  0  0  0  0  0  0  0  0  0  0
   16.1050   -8.6127   18.1247 N   0  0  0  0  0  0  0  0  0  0  0  0
   15.1995   -7.5658   17.6764 C   0  0  0  0  0  0  0  0  0  0  0  0
   15.0960   -7.6634   16.1704 C   0  0  0  0  0  0  0  0  0  0  0  0
   16.6163   -8.3122   18.9546 H   0  0  0  0  0  0  0  0  0  0  0  0
   13.8258   -7.7534   18.2991 C   0  0  0  0  0  0  0  0  0  0  0  0
   13.7045   -6.9860   19.5766 C   0  0  0  0  0  0  0  0  0  0  0  0
   14.2713   -7.3363   20.7925 C   0  0  0  0  0  0  0  0  0  0  0  0
   13.9082   -6.3847   21.6754 N   0  0  0  0  0  0  0  0  0  0  0  0
   14.2902   -6.3388   23.0767 C   0  0  0  0  0  0  0  0  0  0  0  0
   13.1395   -5.4993   21.0116 C   0  0  0  0  0  0  0  0  0  0  0  0
   13.0025   -5.8443   19.7190 N   0  0  0  0  0  0  0  0  0  0  0  0
   12.2659   -5.1283   18.6889 C   0  0  0  0  0  0  0  0  0  0  0  0
   12.5716   -4.2561   21.6168 C   0  0  0  0  0  0  0  0  0  0  0  0
   13.5495   -3.2625   21.6468 O   0  0  0  0  0  0  0  0  0  0  0  0
   14.3018   -3.5652   22.1792 H   0  0  0  0  0  0  0  0  0  0  0  0
 12 11  1  0  0  0
 12 13  1  0  0  0
 12  2  1  0  0  0
  2  3  1  0  0  0
  3  4  2  0  0  0
  3  5  1  0  0  0
  5  6  1  0  0  0
  6 15  1  0  0  0
  6  7  2  0  0  0
 15 16  2  0  0  0
 15 17  1  0  0  0
  7  1  1  0  0  0
  7  8  1  0  0  0
 19  1  1  0  0  0
 19 20  1  0  0  0
 20 21  1  0  0  0
 21 22  1  0  0  0
 22 25  1  0  0  0
 22 23  1  0  0  0
 25 26  1  0  0  0
 26 27  2  0  0  0
 27 28  1  0  0  0
 28 29  1  0  0  0
 28 30  2  0  0  0
 30 33  1  0  0  0
 30 31  1  0  0  0
 33 34  1  0  0  0
 31 32  1  0  0  0
 31 26  1  0  0  0
 23 19  1  0  0  0
  8  9  1  0  0  0
  8 10  1  0  0  0
 10  2  1  0  0  0
 10  5  1  0  0  0
 13 14  1  0  0  0
 17 18  1  0  0  0
 21 24  1  0  0  0
 34 35  1  0  0  0
M  CHG 1  28   1
M  END
>  <minimizedAffinity>
-4.53095

>  <minimizedRMSD>
1.85484

$$$$
CHEMBL1440674 6303476 LN00722587 MolPort-000-244-143 PubChem-5807536 ZINC000006303476 ZINC06303476


 33 35  0  0  0  0  0  0  0  0999 V2000
   17.7349   -9.4391   12.5706 C   0  0  0  0  0  0  0  0  0  0  0  0
   18.1592  -10.1629   13.6953 C   0  0  0  0  0  0  0  0  0  0  0  0
   17.4082  -10.1347   14.8733 C   0  0  0  0  0  0  0  0  0  0  0  0
   16.2236   -9.3838   14.9448 C   0  0  0  0  0  0  0  0  0  0  0  0
   15.8072   -8.6627   13.8203 C   0  0  0  0  0  0  0  0  0  0  0  0
   16.5566   -8.6901   12.6404 C   0  0  0  0  0  0  0  0  0  0  0  0
   19.1053   -8.3600   10.8379 C   0  0  0  0  0  0  0  0  0  0  0  0
   18.4969   -9.4437   11.3148 C   0  0  0  0  0  0  0  0  0  0  0  0
   19.8820   -8.3275    9.5830 C   0  0  0  0  0  0  0  0  0  0  0  0
   21.1383   -8.3185    9.6858 O   0  0  0  0  0  0  0  0  0  0  0  0
   18.2033   -8.2748    5.6181 C   0  0  0  0  0  0  0  0  0  0  0  0
   17.5326   -8.9441    6.6531 C   0  0  0  0  0  0  0  0  0  0  0  0
   18.0676   -8.9594    7.9440 C   0  0  0  0  0  0  0  0  0  0  0  0
   19.2772   -8.3059    8.2260 C   0  0  0  0  0  0  0  0  0  0  0  0
   19.9450   -7.6446    7.1834 C   0  0  0  0  0  0  0  0  0  0  0  0
   19.4112   -7.6267    5.8918 C   0  0  0  0  0  0  0  0  0  0  0  0
   18.5270   -8.3306    3.1655 C   0  0  0  0  0  0  0  0  0  0  0  0
   17.6966   -8.2415    4.3156 O   0  0  0  0  0  0  0  0  0  0  0  0
   15.4350   -9.3219   16.1043 O   0  0  0  0  0  0  0  0  0  0  0  0
   15.7975   -8.7342   17.3276 C   0  0  0  0  0  0  0  0  0  0  0  0
   16.9778   -8.8164   17.7661 O   0  0  0  0  0  0  0  0  0  0  0  0
   14.7772   -8.0208   18.1129 C   0  0  0  0  0  0  0  0  0  0  0  0
   15.0686   -7.5426   19.3925 C   0  0  0  0  0  0  0  0  0  0  0  0
   14.0976   -6.8680   20.1464 C   0  0  0  0  0  0  0  0  0  0  0  0
   12.8122   -6.6622   19.6160 C   0  0  0  0  0  0  0  0  0  0  0  0
   12.5099   -7.1431   18.3159 C   0  0  0  0  0  0  0  0  0  0  0  0
   13.5007   -7.8169   17.5842 C   0  0  0  0  0  0  0  0  0  0  0  0
   14.3876   -6.3926   21.4309 O   0  0  0  0  0  0  0  0  0  0  0  0
   15.6359   -6.6178   22.0726 C   0  0  0  0  0  0  0  0  0  0  0  0
   11.8848   -5.9795   20.4214 O   0  0  0  0  0  0  0  0  0  0  0  0
   11.5485   -4.6055   20.2935 C   0  0  0  0  0  0  0  0  0  0  0  0
   11.2383   -6.9539   17.7616 O   0  0  0  0  0  0  0  0  0  0  0  0
   10.2298   -7.9561   17.7739 C   0  0  0  0  0  0  0  0  0  0  0  0
 17 18  1  0  0  0
 18 11  1  0  0  0
 11 12  2  0  0  0
 12 13  1  0  0  0
 13 14  2  0  0  0
 14 15  1  0  0  0
 14  9  1  0  0  0
 15 16  2  0  0  0
 16 11  1  0  0  0
  9 10  2  0  0  0
  9  7  1  0  0  0
  7  8  2  0  0  0
  8  1  1  0  0  0
  1  2  2  0  0  0
  2  3  1  0  0  0
  3  4  2  0  0  0
  4 19  1  0  0  0
  4  5  1  0  0  0
 19 20  1  0  0  0
 20 21  2  0  0  0
 20 22  1  0  0  0
 22 23  2  0  0  0
 23 24  1  0  0  0
 24 28  1  0  0  0
 24 25  2  0  0  0
 28 29  1  0  0  0
 25 30  1  0  0  0
 25 26  1  0  0  0
 30 31  1  0  0  0
 26 32  1  0  0  0
 26 27  2  0  0  0
 32 33  1  0  0  0
 27 22  1  0  0  0
  5  6  2  0  0  0
  6  1  1  0  0  0
M  END
>  <minimizedAffinity>
-4.50303

>  <minimizedRMSD>
1.95702

$$$$
CHEMBL3189863 LN00629817 MolPort-000-775-408 PubChem-135614515 ZINC05162540


 25 26  0  0  0  0  0  0  0  0999 V2000
   15.3957   -8.2353   17.9114 C   0  0  0  0  0  0  0  0  0  0  0  0
   16.6697   -8.9766   18.1840 C   0  0  0  0  0  0  0  0  0  0  0  0
   14.8722   -8.2459   16.7221 N   0  0  0  0  0  0  0  0  0  0  0  0
   12.8743   -6.1065   19.7876 C   0  0  0  0  0  0  0  0  0  0  0  0
   13.4548   -6.0653   21.0626 C   0  0  0  0  0  0  0  0  0  0  0  0
   12.8366   -5.3664   22.0918 O   0  0  0  0  0  0  0  0  0  0  0  0
   14.6602   -6.7281   21.3066 C   0  0  0  0  0  0  0  0  0  0  0  0
   15.2931   -7.4348   20.2815 C   0  0  0  0  0  0  0  0  0  0  0  0
   14.7280   -7.4878   18.9989 C   0  0  0  0  0  0  0  0  0  0  0  0
   13.5170   -6.8193   18.7623 C   0  0  0  0  0  0  0  0  0  0  0  0
   12.0280   -4.9196   21.9351 H   0  0  0  0  0  0  0  0  0  0  0  0
   11.4547   -4.5931   18.4379 C   0  0  0  0  0  0  0  0  0  0  0  0
   11.6668   -5.4370   19.5615 O   0  0  0  0  0  0  0  0  0  0  0  0
   15.4609   -8.9373   15.6536 N   0  0  0  0  0  0  0  0  0  0  0  0
   16.4513   -8.3185   14.8354 C   0  0  0  0  0  0  0  0  0  0  0  0
   16.8076   -7.1300   15.0524 O   0  0  0  0  0  0  0  0  0  0  0  0
   15.1862   -9.8638   15.4655 H   0  0  0  0  0  0  0  0  0  0  0  0
   17.0414   -9.0699   13.6966 C   0  0  0  0  0  0  0  0  0  0  0  0
   15.7262   -9.9135   12.7712 S   0  0  0  0  0  0  0  0  0  0  0  0
   16.5906   -9.7167   11.2204 C   0  0  0  0  0  0  0  0  0  0  0  0
   17.9066   -9.4290   11.1283 N   0  0  0  0  0  0  0  0  0  0  0  0
   18.3336   -9.3358    9.8702 N   0  0  0  0  0  0  0  0  0  0  0  0
   17.3581   -9.5509    8.9616 C   0  0  0  0  0  0  0  0  0  0  0  0
   17.5786   -9.5039    7.4928 C   0  0  0  0  0  0  0  0  0  0  0  0
   15.8814   -9.8761    9.7017 S   0  0  0  0  0  0  0  0  0  0  0  0
 12 13  1  0  0  0
 13  4  1  0  0  0
  4  5  2  0  0  0
  5  6  1  0  0  0
  5  7  1  0  0  0
  7  8  2  0  0  0
  8  9  1  0  0  0
  9 10  2  0  0  0
  9  1  1  0  0  0
 10  4  1  0  0  0
  1  2  1  0  0  0
  1  3  2  0  0  0
  3 14  1  0  0  0
 14 15  1  0  0  0
 15 16  2  0  0  0
 15 18  1  0  0  0
 18 19  1  0  0  0
 19 20  1  0  0  0
 20 21  2  0  0  0
 21 22  1  0  0  0
 22 23  2  0  0  0
 23 24  1  0  0  0
 23 25  1  0  0  0
 25 20  1  0  0  0
  6 11  1  0  0  0
 14 17  1  0  0  0
M  END
>  <minimizedAffinity>
-4.49991

>  <minimizedRMSD>
1.21627

$$$$
CHEMBL3657553 PubChem-71699577


 38 42  0  0  0  0  0  0  0  0999 V2000
   16.9596   -9.8437   15.3246 C   0  0  0  0  0  0  0  0  0  0  0  0
   18.2012   -9.9875   15.8622 N   0  0  0  0  0  0  0  0  0  0  0  0
   18.4895   -9.5068   17.0989 C   0  0  0  0  0  0  0  0  0  0  0  0
   17.5061   -8.8540   17.8382 C   0  0  0  0  0  0  0  0  0  0  0  0
   16.2323   -8.7105   17.2779 C   0  0  0  0  0  0  0  0  0  0  0  0
   15.9901   -9.2088   16.0349 N   0  0  0  0  0  0  0  0  0  0  0  0
   15.1850   -8.0462   17.9975 N   0  0  0  0  0  0  0  0  0  0  0  0
   15.1088   -7.9136   19.3404 C   0  0  0  0  0  0  0  0  0  0  0  0
   13.9493   -7.2150   19.6066 C   0  0  0  0  0  0  0  0  0  0  0  0
   13.3833   -6.9412   18.3804 C   0  0  0  0  0  0  0  0  0  0  0  0
   14.1513   -7.4616   17.4088 N   0  0  0  0  0  0  0  0  0  0  0  0
   12.1285   -6.1800   18.1326 C   0  0  0  0  0  0  0  0  0  0  0  0
   13.4703   -6.7710   20.9467 C   0  0  0  0  0  0  0  0  0  0  0  0
   14.1125   -5.5077   21.3084 N   0  0  0  0  0  0  0  0  0  0  0  0
   13.0294   -4.5528   21.5221 C   0  0  0  0  0  0  0  0  0  0  0  0
   12.7186   -4.4858   23.0131 C   0  0  0  0  0  0  0  0  0  0  0  0
   13.7552   -5.3488   23.6915 C   0  0  0  0  0  0  0  0  0  0  0  0
   14.7830   -5.5861   22.6122 C   0  0  0  0  0  0  0  0  0  0  0  0
   12.8470   -3.1688   23.4529 O   0  0  0  0  0  0  0  0  0  0  0  0
   13.7440   -2.8511   23.2646 H   0  0  0  0  0  0  0  0  0  0  0  0
   15.6223   -6.8110   22.8388 C   0  0  0  0  0  0  0  0  0  0  0  0
   16.7670   -6.8822   22.3221 O   0  0  0  0  0  0  0  0  0  0  0  0
   15.1617   -7.8537   23.6346 O   0  0  0  0  0  0  0  0  0  0  0  0
   14.3099   -7.8063   24.0222 H   0  0  0  0  0  0  0  0  0  0  0  0
   16.6493  -10.3491   14.0190 N   0  0  0  0  0  0  0  0  0  0  0  0
   15.9752  -11.0655   13.9782 H   0  0  0  0  0  0  0  0  0  0  0  0
   17.2806   -8.8146    6.8464 C   0  0  0  0  0  0  0  0  0  0  0  0
   17.4050   -9.0442    8.3151 C   0  0  0  0  0  0  0  0  0  0  0  0
   16.3970   -9.5333    9.1396 C   0  0  0  0  0  0  0  0  0  0  0  0
   16.9445   -9.5838   10.4045 C   0  0  0  0  0  0  0  0  0  0  0  0
   18.2372   -9.1334   10.3062 C   0  0  0  0  0  0  0  0  0  0  0  0
   18.5267   -8.8019    9.0343 N   0  0  0  0  0  0  0  0  0  0  0  0
   19.7922   -8.2863    8.5335 C   0  0  0  0  0  0  0  0  0  0  0  0
   19.0720   -9.0599   11.4204 C   0  0  0  0  0  0  0  0  0  0  0  0
   18.5420   -9.4653   12.6578 C   0  0  0  0  0  0  0  0  0  0  0  0
   17.2078   -9.9311   12.7655 C   0  0  0  0  0  0  0  0  0  0  0  0
   16.3952   -9.9912   11.6176 C   0  0  0  0  0  0  0  0  0  0  0  0
   14.7682   -9.9917    8.6732 Cl  0  0  0  0  0  0  0  0  0  0  0  0
 27 28  1  0  0  0
 28 29  2  0  0  0
 29 30  1  0  0  0
 29 38  1  0  0  0
 30 31  2  0  0  0
 31 32  1  0  0  0
 31 34  1  0  0  0
 32 33  1  0  0  0
 32 28  1  0  0  0
 34 35  2  0  0  0
 35 36  1  0  0  0
 36 37  2  0  0  0
 36 25  1  0  0  0
 37 30  1  0  0  0
 25  1  1  0  0  0
  1  2  2  0  0  0
  2  3  1  0  0  0
  3  4  2  0  0  0
  4  5  1  0  0  0
  5  6  2  0  0  0
  5  7  1  0  0  0
  6  1  1  0  0  0
  7  8  1  0  0  0
  8  9  2  0  0  0
  9 10  1  0  0  0
  9 13  1  0  0  0
 10 11  2  0  0  0
 10 12  1  0  0  0
 11  7  1  0  0  0
 13 14  1  0  0  0
 14 15  1  0  0  0
 15 16  1  0  0  0
 16 17  1  0  0  0
 16 19  1  0  0  0
 17 18  1  0  0  0
 18 21  1  0  0  0
 18 14  1  0  0  0
 21 22  2  0  0  0
 21 23  1  0  0  0
 25 26  1  0  0  0
 23 24  1  0  0  0
 19 20  1  0  0  0
M  END
>  <minimizedAffinity>
-4.48646

>  <minimizedRMSD>
1.84620

$$$$
CHEMBL134691 PubChem-161754066 PubChem-9869915


 35 38  0  0  0  0  0  0  0  0999 V2000
   13.5293   -6.9688   20.3406 C   0  0  0  0  0  0  0  0  0  0  0  0
   12.6025   -7.0720   19.2893 C   0  0  0  0  0  0  0  0  0  0  0  0
   11.1655   -6.7396   19.5426 C   0  0  0  0  0  0  0  0  0  0  0  0
   13.0278   -7.4657   18.0074 C   0  0  0  0  0  0  0  0  0  0  0  0
   12.0542   -7.5621   16.8754 C   0  0  0  0  0  0  0  0  0  0  0  0
   14.3755   -7.7774   17.7828 C   0  0  0  0  0  0  0  0  0  0  0  0
   15.3011   -7.7037   18.8366 C   0  0  0  0  0  0  0  0  0  0  0  0
   14.8828   -7.3005   20.1172 C   0  0  0  0  0  0  0  0  0  0  0  0
   15.8610   -7.2849   21.2502 C   0  0  0  0  0  0  0  0  0  0  0  0
   16.7457   -7.9890   18.5487 C   0  0  0  0  0  0  0  0  0  0  0  0
   16.8742   -9.0570   17.4695 C   0  0  0  0  0  0  0  0  0  0  0  0
   16.1093   -8.6635   16.2018 C   0  0  0  0  0  0  0  0  0  0  0  0
   16.8866   -7.5955   15.4490 C   0  0  0  0  0  0  0  0  0  0  0  0
   14.7962   -8.1724   16.5030 O   0  0  0  0  0  0  0  0  0  0  0  0
   13.0762   -6.5637   21.6052 O   0  0  0  0  0  0  0  0  0  0  0  0
   12.3729   -4.8859   23.3068 C   0  0  0  0  0  0  0  0  0  0  0  0
   13.0495   -5.2312   22.0299 C   0  0  0  0  0  0  0  0  0  0  0  0
   13.5605   -4.3155   21.3309 O   0  0  0  0  0  0  0  0  0  0  0  0
   15.9889   -9.9042   15.3300 C   0  0  0  0  0  0  0  0  0  0  0  0
   15.1036   -9.6698   14.2395 O   0  0  0  0  0  0  0  0  0  0  0  0
   15.5133   -9.7456   12.9062 C   0  0  0  0  0  0  0  0  0  0  0  0
   14.5433   -9.7404   11.8987 C   0  0  0  0  0  0  0  0  0  0  0  0
   14.9211   -9.8135   10.5549 C   0  0  0  0  0  0  0  0  0  0  0  0
   16.2745   -9.8909   10.2088 C   0  0  0  0  0  0  0  0  0  0  0  0
   17.2487   -9.9008   11.2130 C   0  0  0  0  0  0  0  0  0  0  0  0
   16.8710   -9.8277   12.5564 C   0  0  0  0  0  0  0  0  0  0  0  0
   16.6774   -9.9601    8.7674 C   0  0  0  0  0  0  0  0  0  0  0  0
   18.1332   -9.5500    8.5080 C   0  0  0  0  0  0  0  0  0  0  0  0
   18.4188   -9.1132    6.7466 S   0  0  0  0  0  0  0  0  0  0  0  0
   18.9369   -7.4771    7.2462 C   0  0  0  0  0  0  0  0  0  0  0  0
   19.2322   -6.5841    6.4111 O   0  0  0  0  0  0  0  0  0  0  0  0
   18.9884   -7.2337    8.6387 N   0  0  0  0  0  0  0  0  0  0  0  0
   18.5594   -8.3842    9.3423 C   0  0  0  0  0  0  0  0  0  0  0  0
   18.5527   -8.4181   10.6006 O   0  0  0  0  0  0  0  0  0  0  0  0
   19.2791   -6.3906    9.0557 H   0  0  0  0  0  0  0  0  0  0  0  0
 16 17  1  0  0  0
 17 18  2  0  0  0
 17 15  1  0  0  0
 15  1  1  0  0  0
  1  2  2  0  0  0
  2  3  1  0  0  0
  2  4  1  0  0  0
  4  5  1  0  0  0
  4  6  2  0  0  0
  6  7  1  0  0  0
  7  8  2  0  0  0
  7 10  1  0  0  0
  8  9  1  0  0  0
  8  1  1  0  0  0
 10 11  1  0  0  0
 11 12  1  0  0  0
 12 13  1  0  0  0
 12 19  1  0  0  0
 12 14  1  0  0  0
 19 20  1  0  0  0
 20 21  1  0  0  0
 21 22  2  0  0  0
 22 23  1  0  0  0
 23 24  2  0  0  0
 24 27  1  0  0  0
 24 25  1  0  0  0
 28 27  1  0  0  0
 28 29  1  0  0  0
 29 30  1  0  0  0
 30 31  2  0  0  0
 30 32  1  0  0  0
 32 33  1  0  0  0
 33 34  2  0  0  0
 33 28  1  0  0  0
 25 26  2  0  0  0
 26 21  1  0  0  0
 14  6  1  0  0  0
 32 35  1  0  0  0
M  END
>  <minimizedAffinity>
-4.48477

>  <minimizedRMSD>
1.80644

$$$$
CHEMBL4070746 PubChem-135127179


 35 38  0  0  0  0  0  0  0  0999 V2000
   13.2724   -6.5361   19.5030 C   0  0  0  0  0  0  0  0  0  0  0  0
   14.1308   -7.6421   19.3755 C   0  0  0  0  0  0  0  0  0  0  0  0
   15.1620   -7.8408   20.2993 C   0  0  0  0  0  0  0  0  0  0  0  0
   15.3408   -6.9513   21.3604 C   0  0  0  0  0  0  0  0  0  0  0  0
   14.4830   -5.8411   21.5033 C   0  0  0  0  0  0  0  0  0  0  0  0
   13.4552   -5.6426   20.5712 C   0  0  0  0  0  0  0  0  0  0  0  0
   14.6794   -4.9562   22.5774 C   0  0  0  0  0  0  0  0  0  0  0  0
   13.9175   -3.9594   22.7149 O   0  0  0  0  0  0  0  0  0  0  0  0
   15.7289   -5.1921   23.4931 C   0  0  0  0  0  0  0  0  0  0  0  0
   16.5487   -6.3129   23.2975 C   0  0  0  0  0  0  0  0  0  0  0  0
   16.3422   -7.1560   22.2528 N   0  0  0  0  0  0  0  0  0  0  0  0
   16.9337   -7.9349   22.1403 H   0  0  0  0  0  0  0  0  0  0  0  0
   15.9978   -4.3040   24.6493 C   0  0  0  0  0  0  0  0  0  0  0  0
   16.6627   -3.2438   24.4810 O   0  0  0  0  0  0  0  0  0  0  0  0
   15.5225   -4.6303   25.9219 O   0  0  0  0  0  0  0  0  0  0  0  0
   16.3845   -4.7225   27.0461 C   0  0  0  0  0  0  0  0  0  0  0  0
   12.2497   -6.3425   18.5669 O   0  0  0  0  0  0  0  0  0  0  0  0
   11.5904   -5.0956   18.3936 C   0  0  0  0  0  0  0  0  0  0  0  0
   13.9837   -8.5984   18.2382 C   0  0  0  0  0  0  0  0  0  0  0  0
   15.1967   -8.6072   17.4376 N   0  0  0  0  0  0  0  0  0  0  0  0
   15.0068   -7.6313   16.3632 C   0  0  0  0  0  0  0  0  0  0  0  0
   16.2464   -7.5971   15.4740 C   0  0  0  0  0  0  0  0  0  0  0  0
   16.5129   -8.9475   14.9826 N   0  0  0  0  0  0  0  0  0  0  0  0
   16.5486  -10.0265   15.9681 C   0  0  0  0  0  0  0  0  0  0  0  0
   15.3007   -9.9409   16.8449 C   0  0  0  0  0  0  0  0  0  0  0  0
   16.6816   -9.2122   13.5777 C   0  0  0  0  0  0  0  0  0  0  0  0
   17.9465   -9.5297   13.0576 C   0  0  0  0  0  0  0  0  0  0  0  0
   18.1100   -9.7889   11.6944 C   0  0  0  0  0  0  0  0  0  0  0  0
   17.0092   -9.7471   10.8286 C   0  0  0  0  0  0  0  0  0  0  0  0
   15.7488   -9.4094   11.3393 C   0  0  0  0  0  0  0  0  0  0  0  0
   15.5855   -9.1504   12.7025 C   0  0  0  0  0  0  0  0  0  0  0  0
   17.1942   -9.9735    9.3561 C   0  0  0  0  0  0  0  0  0  0  0  0
   18.5054  -10.3232    9.0824 F   0  0  0  0  0  0  0  0  0  0  0  0
   16.3657  -10.9913    8.9161 F   0  0  0  0  0  0  0  0  0  0  0  0
   16.8847   -8.8122    8.6730 F   0  0  0  0  0  0  0  0  0  0  0  0
  1  2  2  0  0  0
  2  3  1  0  0  0
  3  4  2  0  0  0
  4  5  1  0  0  0
  5  6  2  0  0  0
  5  7  1  0  0  0
  7  8  2  0  0  0
  7  9  1  0  0  0
  9 10  2  0  0  0
 10 11  1  0  0  0
  9 13  1  0  0  0
 13 14  2  0  0  0
 13 15  1  0  0  0
 15 16  1  0  0  0
  2 19  1  0  0  0
 19 20  1  0  0  0
 20 21  1  0  0  0
 21 22  1  0  0  0
 22 23  1  0  0  0
 23 24  1  0  0  0
 24 25  1  0  0  0
 23 26  1  0  0  0
 26 27  2  0  0  0
 27 28  1  0  0  0
 28 29  2  0  0  0
 29 30  1  0  0  0
 30 31  2  0  0  0
 29 32  1  0  0  0
 32 33  1  0  0  0
 32 34  1  0  0  0
 32 35  1  0  0  0
  1 17  1  0  0  0
 17 18  1  0  0  0
  6  1  1  0  0  0
 25 20  1  0  0  0
 31 26  1  0  0  0
 11  4  1  0  0  0
 11 12  1  0  0  0
M  END
>  <minimizedAffinity>
-4.45831

>  <minimizedRMSD>
1.76605

$$$$
CHEMBL3318200 PubChem-73670188


 31 33  0  0  0  0  0  0  0  0999 V2000
   16.3266   -8.7098   15.7129 C   0  0  0  0  0  0  0  0  0  0  0  0
   15.6409   -7.8741   16.5201 N   0  0  0  0  0  0  0  0  0  0  0  0
   15.3950   -8.4283   17.7410 C   0  0  0  0  0  0  0  0  0  0  0  0
   15.8772   -9.7296   17.9218 C   0  0  0  0  0  0  0  0  0  0  0  0
   16.6332  -10.1712   16.4832 S   0  0  0  0  0  0  0  0  0  0  0  0
   14.6627   -7.6927   18.7899 C   0  0  0  0  0  0  0  0  0  0  0  0
   15.1777   -7.5901   20.0849 C   0  0  0  0  0  0  0  0  0  0  0  0
   14.4837   -6.8917   21.0831 C   0  0  0  0  0  0  0  0  0  0  0  0
   13.2522   -6.2822   20.7891 C   0  0  0  0  0  0  0  0  0  0  0  0
   12.7220   -6.3813   19.4774 C   0  0  0  0  0  0  0  0  0  0  0  0
   13.4384   -7.0868   18.4977 C   0  0  0  0  0  0  0  0  0  0  0  0
   11.4977   -5.7847   19.1544 O   0  0  0  0  0  0  0  0  0  0  0  0
   11.3969   -4.5445   18.4669 C   0  0  0  0  0  0  0  0  0  0  0  0
   12.6067   -5.5974   21.8327 O   0  0  0  0  0  0  0  0  0  0  0  0
   12.6756   -4.1963   22.0553 C   0  0  0  0  0  0  0  0  0  0  0  0
   15.0006   -6.7896   22.3799 O   0  0  0  0  0  0  0  0  0  0  0  0
   16.3585   -6.4636   22.6450 C   0  0  0  0  0  0  0  0  0  0  0  0
   16.3590   -7.0598   13.8473 C   0  0  0  0  0  0  0  0  0  0  0  0
   16.6818   -8.3855   14.3583 N   0  0  0  0  0  0  0  0  0  0  0  0
   17.4548   -9.2866   13.5451 C   0  0  0  0  0  0  0  0  0  0  0  0
   18.4125   -9.9220   14.0655 O   0  0  0  0  0  0  0  0  0  0  0  0
   17.1565   -9.4826   12.1089 C   0  0  0  0  0  0  0  0  0  0  0  0
   18.0683   -9.0470   11.1378 C   0  0  0  0  0  0  0  0  0  0  0  0
   17.8151   -9.2410    9.7700 C   0  0  0  0  0  0  0  0  0  0  0  0
   16.6354   -9.8857    9.3692 C   0  0  0  0  0  0  0  0  0  0  0  0
   15.7253  -10.3306   10.3410 C   0  0  0  0  0  0  0  0  0  0  0  0
   15.9862  -10.1327   11.6980 C   0  0  0  0  0  0  0  0  0  0  0  0
   16.3891  -10.0744    8.0047 O   0  0  0  0  0  0  0  0  0  0  0  0
   17.1037   -9.3810    6.9908 C   0  0  0  0  0  0  0  0  0  0  0  0
   18.7199   -8.8037    8.7964 O   0  0  0  0  0  0  0  0  0  0  0  0
   19.4843   -7.6138    8.9358 C   0  0  0  0  0  0  0  0  0  0  0  0
 18 19  1  0  0  0
 19  1  1  0  0  0
 19 20  1  0  0  0
  1  2  2  0  0  0
  2  3  1  0  0  0
  3  4  2  0  0  0
  3  6  1  0  0  0
  4  5  1  0  0  0
  5  1  1  0  0  0
  6  7  2  0  0  0
  7  8  1  0  0  0
  8  9  2  0  0  0
  8 16  1  0  0  0
  9 10  1  0  0  0
  9 14  1  0  0  0
 10 11  2  0  0  0
 10 12  1  0  0  0
 11  6  1  0  0  0
 12 13  1  0  0  0
 14 15  1  0  0  0
 16 17  1  0  0  0
 20 21  2  0  0  0
 20 22  1  0  0  0
 22 23  2  0  0  0
 23 24  1  0  0  0
 24 25  2  0  0  0
 24 30  1  0  0  0
 25 26  1  0  0  0
 25 28  1  0  0  0
 26 27  2  0  0  0
 27 22  1  0  0  0
 28 29  1  0  0  0
 30 31  1  0  0  0
M  END
>  <minimizedAffinity>
-4.44901

>  <minimizedRMSD>
1.66612

$$$$
CHEMBL3210446 844770 LN00540298 MolPort-000-718-188 PubChem-5343141 ZINC000000844770 ZINC00844770


 29 31  0  0  0  0  0  0  0  0999 V2000
   15.6959   -7.5844   18.8873 C   0  0  0  0  0  0  0  0  0  0  0  0
   14.8506   -7.8305   17.9359 N   0  0  0  0  0  0  0  0  0  0  0  0
   15.7946   -6.7077   22.5457 C   0  0  0  0  0  0  0  0  0  0  0  0
   16.1887   -7.0709   21.2490 C   0  0  0  0  0  0  0  0  0  0  0  0
   15.2471   -7.1979   20.2285 C   0  0  0  0  0  0  0  0  0  0  0  0
   13.8990   -6.9430   20.4993 C   0  0  0  0  0  0  0  0  0  0  0  0
   13.4828   -6.5747   21.7879 C   0  0  0  0  0  0  0  0  0  0  0  0
   14.4371   -6.4806   22.8243 C   0  0  0  0  0  0  0  0  0  0  0  0
   18.1350   -6.6385   23.3525 C   0  0  0  0  0  0  0  0  0  0  0  0
   16.7328   -6.5765   23.5757 O   0  0  0  0  0  0  0  0  0  0  0  0
   12.1409   -6.2714   22.0453 O   0  0  0  0  0  0  0  0  0  0  0  0
   11.4982   -5.1139   21.5284 C   0  0  0  0  0  0  0  0  0  0  0  0
   14.0733   -6.1247   24.1311 O   0  0  0  0  0  0  0  0  0  0  0  0
   13.7183   -4.8307   24.5269 C   0  0  0  0  0  0  0  0  0  0  0  0
   14.7296   -3.7446   24.4579 C   0  0  0  0  0  0  0  0  0  0  0  0
   12.5713   -4.5812   24.9854 O   0  0  0  0  0  0  0  0  0  0  0  0
   15.2593   -8.2024   16.6439 N   0  0  0  0  0  0  0  0  0  0  0  0
   14.7380   -9.4399   16.0736 C   0  0  0  0  0  0  0  0  0  0  0  0
   15.8548  -10.1798   15.3445 C   0  0  0  0  0  0  0  0  0  0  0  0
   16.5479   -9.2539   14.4504 N   0  0  0  0  0  0  0  0  0  0  0  0
   17.1005   -8.0360   15.0408 C   0  0  0  0  0  0  0  0  0  0  0  0
   15.9966   -7.2811   15.7752 C   0  0  0  0  0  0  0  0  0  0  0  0
   16.6597   -9.5187   13.0398 C   0  0  0  0  0  0  0  0  0  0  0  0
   17.9212   -9.6270   12.4309 C   0  0  0  0  0  0  0  0  0  0  0  0
   18.0297   -9.8830   11.0612 C   0  0  0  0  0  0  0  0  0  0  0  0
   16.8778  -10.0333   10.2854 C   0  0  0  0  0  0  0  0  0  0  0  0
   17.0137  -10.3538    8.5702 Cl  0  0  0  0  0  0  0  0  0  0  0  0
   15.6176   -9.9279   10.8785 C   0  0  0  0  0  0  0  0  0  0  0  0
   15.5091   -9.6719   12.2482 C   0  0  0  0  0  0  0  0  0  0  0  0
  9 10  1  0  0  0
 10  3  1  0  0  0
  3  4  2  0  0  0
  4  5  1  0  0  0
  5  1  1  0  0  0
  5  6  2  0  0  0
  1  2  2  0  0  0
  2 17  1  0  0  0
 17 18  1  0  0  0
 18 19  1  0  0  0
 19 20  1  0  0  0
 20 21  1  0  0  0
 20 23  1  0  0  0
 21 22  1  0  0  0
 22 17  1  0  0  0
 23 24  2  0  0  0
 24 25  1  0  0  0
 25 26  2  0  0  0
 26 27  1  0  0  0
 26 28  1  0  0  0
 28 29  2  0  0  0
 29 23  1  0  0  0
  6  7  1  0  0  0
  7 11  1  0  0  0
  7  8  2  0  0  0
 11 12  1  0  0  0
  8 13  1  0  0  0
  8  3  1  0  0  0
 13 14  1  0  0  0
 14 15  1  0  0  0
 14 16  2  0  0  0
M  END
>  <minimizedAffinity>
-4.44391

>  <minimizedRMSD>
1.97791

$$$$
CHEMBL3621395 PubChem-122191139


 34 36  0  0  0  0  0  0  0  0999 V2000
   15.6592   -8.6809   17.2251 C   0  0  0  0  0  0  0  0  0  0  0  0
   16.7329   -8.0202   17.8362 C   0  0  0  0  0  0  0  0  0  0  0  0
   17.9781   -8.0516   17.2121 C   0  0  0  0  0  0  0  0  0  0  0  0
   18.1303   -8.7097   16.0343 N   0  0  0  0  0  0  0  0  0  0  0  0
   17.0796   -9.3429   15.4493 C   0  0  0  0  0  0  0  0  0  0  0  0
   15.8568   -9.3203   16.0424 N   0  0  0  0  0  0  0  0  0  0  0  0
   17.2962  -10.1737   13.9227 S   0  0  0  0  0  0  0  0  0  0  0  0
   17.3828  -11.6537   14.1702 O   0  0  0  0  0  0  0  0  0  0  0  0
   18.5729   -9.7098   13.2789 O   0  0  0  0  0  0  0  0  0  0  0  0
   15.9137   -9.8113   12.8569 C   0  0  0  0  0  0  0  0  0  0  0  0
   16.3359   -9.7888   11.4280 C   0  0  0  0  0  0  0  0  0  0  0  0
   15.8823  -10.6513   10.6292 O   0  0  0  0  0  0  0  0  0  0  0  0
   17.2402   -8.7689   10.9857 N   0  0  0  0  0  0  0  0  0  0  0  0
   17.5305   -8.1136   11.6606 H   0  0  0  0  0  0  0  0  0  0  0  0
   17.7660   -8.6041    9.6617 C   0  0  0  0  0  0  0  0  0  0  0  0
   17.1589   -9.1929    8.5426 C   0  0  0  0  0  0  0  0  0  0  0  0
   17.7014   -9.0125    7.2674 C   0  0  0  0  0  0  0  0  0  0  0  0
   18.8586   -8.2416    7.0926 C   0  0  0  0  0  0  0  0  0  0  0  0
   19.4651   -7.6542    8.2128 C   0  0  0  0  0  0  0  0  0  0  0  0
   18.9212   -7.8357    9.4875 C   0  0  0  0  0  0  0  0  0  0  0  0
   19.4127   -8.0583    5.7828 N   0  0  0  0  0  0  0  0  0  0  0  0
   20.5247   -7.5098    5.6355 O   0  0  0  0  0  0  0  0  0  0  0  0
   18.7237   -8.4860    4.6710 O   0  0  0  0  0  0  0  0  0  0  0  0
   14.3766   -8.6752   17.7887 O   0  0  0  0  0  0  0  0  0  0  0  0
   15.3188   -8.2692   20.5293 C   0  0  0  0  0  0  0  0  0  0  0  0
   14.3110   -7.3859   19.8775 C   0  0  0  0  0  0  0  0  0  0  0  0
   13.7698   -6.3327   20.6203 C   0  0  0  0  0  0  0  0  0  0  0  0
   12.7786   -5.5180   20.0704 C   0  0  0  0  0  0  0  0  0  0  0  0
   12.3101   -5.7650   18.7788 C   0  0  0  0  0  0  0  0  0  0  0  0
   12.8392   -6.8178   18.0275 C   0  0  0  0  0  0  0  0  0  0  0  0
   12.3202   -7.0537   16.6513 C   0  0  0  0  0  0  0  0  0  0  0  0
   13.8578   -7.6259   18.5620 C   0  0  0  0  0  0  0  0  0  0  0  0
   12.2308   -4.4360   20.8382 C   0  0  0  0  0  0  0  0  0  0  0  0
   11.7891   -3.5636   21.4572 N   0  0  0  0  0  0  0  0  0  0  0  0
 25 26  1  0  0  0
 26 27  2  0  0  0
 27 28  1  0  0  0
 28 33  1  0  0  0
 33 34  3  0  0  0
 28 29  2  0  0  0
 29 30  1  0  0  0
 30 31  1  0  0  0
 30 32  2  0  0  0
 32 24  1  0  0  0
 24  1  1  0  0  0
  1  2  2  0  0  0
  2  3  1  0  0  0
  3  4  2  0  0  0
  4  5  1  0  0  0
  5  7  1  0  0  0
  7  8  2  0  0  0
  7  9  2  0  0  0
  7 10  1  0  0  0
 10 11  1  0  0  0
 11 12  2  0  0  0
 11 13  1  0  0  0
 13 15  1  0  0  0
 15 16  2  0  0  0
 16 17  1  0  0  0
 17 18  2  0  0  0
 18 21  1  0  0  0
 21 22  2  0  0  0
 21 23  1  0  0  0
 18 19  1  0  0  0
 19 20  2  0  0  0
  5  6  2  0  0  0
 32 26  1  0  0  0
  6  1  1  0  0  0
 20 15  1  0  0  0
 13 14  1  0  0  0
M  CHG 1  21   1
M  CHG 1  23  -1
M  END
>  <minimizedAffinity>
-4.37596

>  <minimizedRMSD>
1.76418

$$$$
CHEMBL1883046 ChemDiv-E716-0481 MCULE-5549238235 MolPort-007-755-982 PubChem-16021771 ZINC000008591395


 32 34  0  0  0  0  0  0  0  0999 V2000
   17.2353   -8.8540   16.4178 C   0  0  0  0  0  0  0  0  0  0  0  0
   16.0328   -8.0324   18.4513 N   0  0  0  0  0  0  0  0  0  0  0  0
   16.0752   -8.2492   17.1238 C   0  0  0  0  0  0  0  0  0  0  0  0
   14.9623   -7.8906   16.5351 O   0  0  0  0  0  0  0  0  0  0  0  0
   14.1364   -7.4190   17.4182 N   0  0  0  0  0  0  0  0  0  0  0  0
   14.7961   -7.5072   18.5913 C   0  0  0  0  0  0  0  0  0  0  0  0
   14.2302   -7.0818   19.8810 C   0  0  0  0  0  0  0  0  0  0  0  0
   14.8717   -7.4160   21.0789 C   0  0  0  0  0  0  0  0  0  0  0  0
   14.3332   -7.0117   22.3020 C   0  0  0  0  0  0  0  0  0  0  0  0
   13.1438   -6.2665   22.3450 C   0  0  0  0  0  0  0  0  0  0  0  0
   12.4953   -5.9279   21.1475 C   0  0  0  0  0  0  0  0  0  0  0  0
   13.0443   -6.3389   19.9217 C   0  0  0  0  0  0  0  0  0  0  0  0
   11.3106   -5.1851   21.1980 O   0  0  0  0  0  0  0  0  0  0  0  0
   10.4298   -5.0654   20.0891 C   0  0  0  0  0  0  0  0  0  0  0  0
   12.5907   -5.8534   23.5621 O   0  0  0  0  0  0  0  0  0  0  0  0
   13.3443   -5.1780   24.5600 C   0  0  0  0  0  0  0  0  0  0  0  0
   17.1934  -10.6598   16.6115 S   0  0  0  0  0  0  0  0  0  0  0  0
   18.5066  -10.9087   15.3715 C   0  0  0  0  0  0  0  0  0  0  0  0
   17.9809  -11.0102   13.9719 C   0  0  0  0  0  0  0  0  0  0  0  0
   17.8152  -12.1535   13.4703 O   0  0  0  0  0  0  0  0  0  0  0  0
   17.6229   -9.8365   13.2302 N   0  0  0  0  0  0  0  0  0  0  0  0
   17.5221   -8.9972   13.7348 H   0  0  0  0  0  0  0  0  0  0  0  0
   17.3995   -9.7831   11.8159 C   0  0  0  0  0  0  0  0  0  0  0  0
   16.1189  -10.0775   11.3376 C   0  0  0  0  0  0  0  0  0  0  0  0
   15.8353  -10.0284    9.9710 C   0  0  0  0  0  0  0  0  0  0  0  0
   14.4587  -10.3636    9.5097 C   0  0  0  0  0  0  0  0  0  0  0  0
   16.8439   -9.6696    9.0635 C   0  0  0  0  0  0  0  0  0  0  0  0
   18.1153   -9.3407    9.5378 C   0  0  0  0  0  0  0  0  0  0  0  0
   18.4048   -9.3803   10.9115 C   0  0  0  0  0  0  0  0  0  0  0  0
   16.5456   -9.6000    7.3334 Cl  0  0  0  0  0  0  0  0  0  0  0  0
   19.6633   -8.9938   11.3870 O   0  0  0  0  0  0  0  0  0  0  0  0
   20.5841   -8.2399   10.6102 C   0  0  0  0  0  0  0  0  0  0  0  0
  2  3  2  0  0  0
  3  1  1  0  0  0
  1 17  1  0  0  0
 17 18  1  0  0  0
 18 19  1  0  0  0
 19 20  2  0  0  0
 19 21  1  0  0  0
 21 23  1  0  0  0
 23 24  2  0  0  0
 24 25  1  0  0  0
 25 26  1  0  0  0
 25 27  2  0  0  0
 27 28  1  0  0  0
 28 29  2  0  0  0
 29 31  1  0  0  0
 31 32  1  0  0  0
 27 30  1  0  0  0
  3  4  1  0  0  0
  4  5  1  0  0  0
  5  6  2  0  0  0
  6  7  1  0  0  0
  7  8  2  0  0  0
  8  9  1  0  0  0
  9 10  2  0  0  0
 10 11  1  0  0  0
 11 13  1  0  0  0
 13 14  1  0  0  0
 11 12  2  0  0  0
 10 15  1  0  0  0
 15 16  1  0  0  0
  6  2  1  0  0  0
 12  7  1  0  0  0
 29 23  1  0  0  0
 21 22  1  0  0  0
M  END
>  <minimizedAffinity>
-4.36346

>  <minimizedRMSD>
1.57675

$$$$
CHEMBL3641946 PubChem-58299930


 35 39  0  0  0  0  0  0  0  0999 V2000
   13.4117   -7.3904   18.3309 N   0  0  0  0  0  0  0  0  0  0  0  0
   13.9363   -6.9206   19.4916 C   0  0  0  0  0  0  0  0  0  0  0  0
   15.2464   -7.3227   19.6508 C   0  0  0  0  0  0  0  0  0  0  0  0
   15.9983   -6.9678   20.7647 C   0  0  0  0  0  0  0  0  0  0  0  0
   15.3554   -6.1727   21.7298 C   0  0  0  0  0  0  0  0  0  0  0  0
   14.0527   -5.7796   21.5604 N   0  0  0  0  0  0  0  0  0  0  0  0
   13.3212   -6.1338   20.4620 C   0  0  0  0  0  0  0  0  0  0  0  0
   15.5488   -8.0754   18.5410 C   0  0  0  0  0  0  0  0  0  0  0  0
   16.6889   -8.7454   18.1296 C   0  0  0  0  0  0  0  0  0  0  0  0
   16.6302   -9.4113   16.9392 N   0  0  0  0  0  0  0  0  0  0  0  0
   15.4921   -9.4260   16.1690 C   0  0  0  0  0  0  0  0  0  0  0  0
   14.3733   -8.7605   16.5879 N   0  0  0  0  0  0  0  0  0  0  0  0
   14.4176   -8.0944   17.7672 C   0  0  0  0  0  0  0  0  0  0  0  0
   11.5574   -5.8084   18.0843 C   0  0  0  0  0  0  0  0  0  0  0  0
   12.0675   -7.2059   17.7846 C   0  0  0  0  0  0  0  0  0  0  0  0
   11.1057   -8.2435   18.3404 C   0  0  0  0  0  0  0  0  0  0  0  0
   10.1422   -8.5592   17.3823 O   0  0  0  0  0  0  0  0  0  0  0  0
    9.6456   -7.7597   17.1475 H   0  0  0  0  0  0  0  0  0  0  0  0
   15.4510  -10.1322   14.9216 N   0  0  0  0  0  0  0  0  0  0  0  0
   14.8209  -10.8868   14.8692 H   0  0  0  0  0  0  0  0  0  0  0  0
   16.2220   -9.8664   13.7413 C   0  0  0  0  0  0  0  0  0  0  0  0
   15.5847   -9.4352   12.6211 N   0  0  0  0  0  0  0  0  0  0  0  0
   16.2478   -9.1716   11.4932 N   0  0  0  0  0  0  0  0  0  0  0  0
   17.5983   -9.3217   11.4042 C   0  0  0  0  0  0  0  0  0  0  0  0
   18.3015   -9.7615   12.5303 C   0  0  0  0  0  0  0  0  0  0  0  0
   17.6084  -10.0358   13.7053 C   0  0  0  0  0  0  0  0  0  0  0  0
   18.2809   -9.0237   10.1746 N   0  0  0  0  0  0  0  0  0  0  0  0
   19.5232   -8.2462   10.1800 C   0  0  0  0  0  0  0  0  0  0  0  0
   19.9695   -7.9452    8.7556 C   0  0  0  0  0  0  0  0  0  0  0  0
   18.8162   -7.4856    7.9849 N   0  0  0  0  0  0  0  0  0  0  0  0
   17.8425   -8.5694    7.7687 C   0  0  0  0  0  0  0  0  0  0  0  0
   17.7916   -9.5936    8.9175 C   0  0  0  0  0  0  0  0  0  0  0  0
   16.4664   -7.9547    7.6175 C   0  0  0  0  0  0  0  0  0  0  0  0
   18.1804   -9.2985    6.4828 C   0  0  0  0  0  0  0  0  0  0  0  0
   19.1380   -7.1440    7.0793 H   0  0  0  0  0  0  0  0  0  0  0  0
 15 14  1  0  0  0
 15 16  1  0  0  0
 15  1  1  0  0  0
 16 17  1  0  0  0
  1  2  1  0  0  0
  2  3  2  0  0  0
  3  4  1  0  0  0
  3  8  1  0  0  0
  4  5  2  0  0  0
  5  6  1  0  0  0
  6  7  2  0  0  0
  7  2  1  0  0  0
  8  9  2  0  0  0
  9 10  1  0  0  0
 10 11  2  0  0  0
 11 12  1  0  0  0
 11 19  1  0  0  0
 12 13  2  0  0  0
 13  1  1  0  0  0
 13  8  1  0  0  0
 19 21  1  0  0  0
 21 22  2  0  0  0
 22 23  1  0  0  0
 23 24  2  0  0  0
 24 25  1  0  0  0
 24 27  1  0  0  0
 25 26  2  0  0  0
 26 21  1  0  0  0
 27 28  1  0  0  0
 28 29  1  0  0  0
 29 30  1  0  0  0
 30 31  1  0  0  0
 31 32  1  0  0  0
 31 33  1  0  0  0
 31 34  1  0  0  0
 32 27  1  0  0  0
 17 18  1  0  0  0
 19 20  1  0  0  0
 30 35  1  0  0  0
M  END
>  <minimizedAffinity>
-4.35243

>  <minimizedRMSD>
1.69785

$$$$
CHEMBL4569140 PubChem-155550686


 29 31  0  0  0  0  0  0  0  0999 V2000
   16.9329   -9.8673   15.3329 C   0  0  0  0  0  0  0  0  0  0  0  0
   16.5768   -9.8536   16.6421 N   0  0  0  0  0  0  0  0  0  0  0  0
   16.0240   -8.7389   17.1833 C   0  0  0  0  0  0  0  0  0  0  0  0
   15.8321   -7.6361   16.4156 N   0  0  0  0  0  0  0  0  0  0  0  0
   16.1838   -7.6511   15.1056 C   0  0  0  0  0  0  0  0  0  0  0  0
   16.0020   -6.6300   14.3937 O   0  0  0  0  0  0  0  0  0  0  0  0
   16.7319   -8.7673   14.5636 N   0  0  0  0  0  0  0  0  0  0  0  0
   16.9840   -8.7795   13.6120 H   0  0  0  0  0  0  0  0  0  0  0  0
   17.6633  -11.3356   14.6194 S   0  0  0  0  0  0  0  0  0  0  0  0
   18.8288  -10.3905   13.5853 C   0  0  0  0  0  0  0  0  0  0  0  0
   16.3318  -10.0800   10.7502 C   0  0  0  0  0  0  0  0  0  0  0  0
   17.1188   -9.4891    9.7570 C   0  0  0  0  0  0  0  0  0  0  0  0
   18.4626   -9.1979   10.0099 C   0  0  0  0  0  0  0  0  0  0  0  0
   19.0195   -9.4965   11.2569 C   0  0  0  0  0  0  0  0  0  0  0  0
   18.2332  -10.0865   12.2527 C   0  0  0  0  0  0  0  0  0  0  0  0
   16.8882  -10.3784   11.9977 C   0  0  0  0  0  0  0  0  0  0  0  0
   16.4217   -9.1145    8.1960 Cl  0  0  0  0  0  0  0  0  0  0  0  0
   15.5602   -8.7194   18.9094 S   0  0  0  0  0  0  0  0  0  0  0  0
   14.3132   -7.4177   18.6554 C   0  0  0  0  0  0  0  0  0  0  0  0
   13.9097   -6.8091   19.9552 C   0  0  0  0  0  0  0  0  0  0  0  0
   14.7230   -6.9800   21.0785 C   0  0  0  0  0  0  0  0  0  0  0  0
   14.3509   -6.4278   22.3146 C   0  0  0  0  0  0  0  0  0  0  0  0
   13.1551   -5.7094   22.4131 C   0  0  0  0  0  0  0  0  0  0  0  0
   12.3284   -5.5399   21.2905 C   0  0  0  0  0  0  0  0  0  0  0  0
   12.7112   -6.0955   20.0665 C   0  0  0  0  0  0  0  0  0  0  0  0
   11.1278   -4.8287   21.3643 O   0  0  0  0  0  0  0  0  0  0  0  0
   10.7603   -4.0587   22.5006 C   0  0  0  0  0  0  0  0  0  0  0  0
   15.1460   -6.5779   23.4539 O   0  0  0  0  0  0  0  0  0  0  0  0
   16.1102   -5.6120   23.8497 C   0  0  0  0  0  0  0  0  0  0  0  0
 11 12  2  0  0  0
 12 13  1  0  0  0
 13 14  2  0  0  0
 14 15  1  0  0  0
 15 16  2  0  0  0
 15 10  1  0  0  0
 10  9  1  0  0  0
  9  1  1  0  0  0
  1  2  2  0  0  0
  2  3  1  0  0  0
  3  4  2  0  0  0
  4  5  1  0  0  0
  5  6  2  0  0  0
  5  7  1  0  0  0
  3 18  1  0  0  0
 18 19  1  0  0  0
 19 20  1  0  0  0
 20 21  2  0  0  0
 21 22  1  0  0  0
 22 23  2  0  0  0
 23 24  1  0  0  0
 24 25  2  0  0  0
 24 26  1  0  0  0
 26 27  1  0  0  0
 22 28  1  0  0  0
 28 29  1  0  0  0
 12 17  1  0  0  0
 16 11  1  0  0  0
  7  1  1  0  0  0
 25 20  1  0  0  0
  7  8  1  0  0  0
M  END
>  <minimizedAffinity>
-4.34371

>  <minimizedRMSD>
1.98088

$$$$
CHEMBL3653849 PubChem-57520683


 36 40  0  0  0  0  0  0  0  0999 V2000
   15.3797   -8.0138   16.7415 C   0  0  0  0  0  0  0  0  0  0  0  0
   14.8185   -7.1878   15.8145 N   0  0  0  0  0  0  0  0  0  0  0  0
   15.0859   -7.2853   14.4890 C   0  0  0  0  0  0  0  0  0  0  0  0
   15.9631   -8.2576   14.0240 C   0  0  0  0  0  0  0  0  0  0  0  0
   16.5726   -9.1441   14.9175 C   0  0  0  0  0  0  0  0  0  0  0  0
   17.4563  -10.1618   14.4618 C   0  0  0  0  0  0  0  0  0  0  0  0
   17.9840  -11.0634   15.3985 C   0  0  0  0  0  0  0  0  0  0  0  0
   17.6690  -10.9677   16.7504 C   0  0  0  0  0  0  0  0  0  0  0  0
   16.8181   -9.9621   17.1964 C   0  0  0  0  0  0  0  0  0  0  0  0
   16.2663   -9.0342   16.3026 C   0  0  0  0  0  0  0  0  0  0  0  0
   13.2782   -7.3425   19.8318 C   0  0  0  0  0  0  0  0  0  0  0  0
   13.6703   -7.5846   18.5060 C   0  0  0  0  0  0  0  0  0  0  0  0
   15.0125   -7.7971   18.1672 C   0  0  0  0  0  0  0  0  0  0  0  0
   15.9764   -7.7383   19.1807 C   0  0  0  0  0  0  0  0  0  0  0  0
   15.6040   -7.4987   20.5032 C   0  0  0  0  0  0  0  0  0  0  0  0
   14.2600   -7.3015   20.8513 C   0  0  0  0  0  0  0  0  0  0  0  0
   13.9341   -7.0539   22.2778 C   0  0  0  0  0  0  0  0  0  0  0  0
   12.9462   -6.3459   22.6074 O   0  0  0  0  0  0  0  0  0  0  0  0
   14.7431   -7.6217   23.3049 N   0  0  0  0  0  0  0  0  0  0  0  0
   15.5200   -8.1783   23.0684 H   0  0  0  0  0  0  0  0  0  0  0  0
   14.5250   -7.4572   24.2507 H   0  0  0  0  0  0  0  0  0  0  0  0
   11.8934   -7.1366   20.1364 N   0  0  0  0  0  0  0  0  0  0  0  0
   11.5236   -7.5621   20.9436 H   0  0  0  0  0  0  0  0  0  0  0  0
   10.6262   -5.0724   20.0639 C   0  0  0  0  0  0  0  0  0  0  0  0
   11.0067   -6.3301   19.3124 C   0  0  0  0  0  0  0  0  0  0  0  0
   17.8315  -10.3168   13.0739 N   0  0  0  0  0  0  0  0  0  0  0  0
   18.6326  -11.2863   12.5814 C   0  0  0  0  0  0  0  0  0  0  0  0
   18.8336  -11.1501   11.2556 N   0  0  0  0  0  0  0  0  0  0  0  0
   18.1333  -10.0485   10.9257 C   0  0  0  0  0  0  0  0  0  0  0  0
   17.5144   -9.5186   12.0363 C   0  0  0  0  0  0  0  0  0  0  0  0
   18.0592   -9.5035    9.5656 C   0  0  0  0  0  0  0  0  0  0  0  0
   17.3312  -10.0275    8.5124 C   0  0  0  0  0  0  0  0  0  0  0  0
   17.5324   -9.2325    7.4435 N   0  0  0  0  0  0  0  0  0  0  0  0
   18.3471   -8.2561    7.8060 N   0  0  0  0  0  0  0  0  0  0  0  0
   18.7906   -7.2030    6.9124 C   0  0  0  0  0  0  0  0  0  0  0  0
   18.7001   -8.3744    9.0962 C   0  0  0  0  0  0  0  0  0  0  0  0
 24 25  1  0  0  0
 25 22  1  0  0  0
 22 11  1  0  0  0
 11 12  2  0  0  0
 12 13  1  0  0  0
 13 14  2  0  0  0
 14 15  1  0  0  0
 15 16  2  0  0  0
 16 17  1  0  0  0
 17 18  2  0  0  0
 17 19  1  0  0  0
 13  1  1  0  0  0
  1  2  2  0  0  0
  2  3  1  0  0  0
  3  4  2  0  0  0
  4  5  1  0  0  0
  5  6  2  0  0  0
  6  7  1  0  0  0
  7  8  2  0  0  0
  8  9  1  0  0  0
  9 10  2  0  0  0
  6 26  1  0  0  0
 26 27  1  0  0  0
 27 28  2  0  0  0
 28 29  1  0  0  0
 29 30  2  0  0  0
 29 31  1  0  0  0
 31 32  1  0  0  0
 32 33  2  0  0  0
 33 34  1  0  0  0
 34 35  1  0  0  0
 34 36  1  0  0  0
 16 11  1  0  0  0
 10  1  1  0  0  0
 30 26  1  0  0  0
 36 31  2  0  0  0
 10  5  1  0  0  0
 22 23  1  0  0  0
 19 20  1  0  0  0
 19 21  1  0  0  0
M  END
>  <minimizedAffinity>
-4.34302

>  <minimizedRMSD>
0.81228

$$$$
CHEMBL1357203 CSC046079648 ChemDiv-C660-0413 MCULE-6888601922 MolPort-007-654-056 PubChem-16009296 ZINC000058058213 ZSXLOOVNEXCOPJ-UHFFFAOYSA-N


 32 35  0  0  0  0  0  0  0  0999 V2000
   15.5807   -8.4376   18.1234 C   0  0  0  0  0  0  0  0  0  0  0  0
   16.6593   -9.1552   18.4981 N   0  0  0  0  0  0  0  0  0  0  0  0
   17.0461   -9.7638   17.4191 O   0  0  0  0  0  0  0  0  0  0  0  0
   16.2514   -9.4468   16.4286 C   0  0  0  0  0  0  0  0  0  0  0  0
   15.2868   -8.5908   16.8139 N   0  0  0  0  0  0  0  0  0  0  0  0
   12.8283   -6.2448   19.5072 C   0  0  0  0  0  0  0  0  0  0  0  0
   13.5766   -7.0641   18.6491 C   0  0  0  0  0  0  0  0  0  0  0  0
   14.8110   -7.5803   19.0384 C   0  0  0  0  0  0  0  0  0  0  0  0
   15.3078   -7.2750   20.3048 C   0  0  0  0  0  0  0  0  0  0  0  0
   14.5936   -6.4638   21.1898 C   0  0  0  0  0  0  0  0  0  0  0  0
   13.3343   -5.9338   20.7981 C   0  0  0  0  0  0  0  0  0  0  0  0
   11.4485   -4.4990   18.4084 C   0  0  0  0  0  0  0  0  0  0  0  0
   11.5920   -5.7426   19.0827 O   0  0  0  0  0  0  0  0  0  0  0  0
   15.1906   -6.2251   22.4382 O   0  0  0  0  0  0  0  0  0  0  0  0
   15.2976   -7.1720   23.4914 C   0  0  0  0  0  0  0  0  0  0  0  0
   12.6332   -5.1182   21.7035 O   0  0  0  0  0  0  0  0  0  0  0  0
   11.8149   -5.5800   22.7690 C   0  0  0  0  0  0  0  0  0  0  0  0
   16.4122   -9.9444   15.0355 C   0  0  0  0  0  0  0  0  0  0  0  0
   17.1216   -8.9502   14.2363 N   0  0  0  0  0  0  0  0  0  0  0  0
   18.2366   -9.5848   13.5167 C   0  0  0  0  0  0  0  0  0  0  0  0
   17.7565  -10.5596   12.4378 C   0  0  0  0  0  0  0  0  0  0  0  0
   16.8017   -9.8827   11.5690 N   0  0  0  0  0  0  0  0  0  0  0  0
   15.6702   -9.2392   12.2265 C   0  0  0  0  0  0  0  0  0  0  0  0
   16.1891   -8.2894   13.3101 C   0  0  0  0  0  0  0  0  0  0  0  0
   17.0272   -9.7188   10.1531 C   0  0  0  0  0  0  0  0  0  0  0  0
   18.1516   -9.0202    9.6482 C   0  0  0  0  0  0  0  0  0  0  0  0
   18.3110   -8.8810    8.2582 C   0  0  0  0  0  0  0  0  0  0  0  0
   17.3826   -9.4308    7.3742 C   0  0  0  0  0  0  0  0  0  0  0  0
   16.2835  -10.1312    7.8675 C   0  0  0  0  0  0  0  0  0  0  0  0
   16.1097  -10.2744    9.2445 C   0  0  0  0  0  0  0  0  0  0  0  0
   19.1064   -8.4900   10.5243 O   0  0  0  0  0  0  0  0  0  0  0  0
   20.3824   -8.0339   10.0949 C   0  0  0  0  0  0  0  0  0  0  0  0
 12 13  1  0  0  0
 13  6  1  0  0  0
  6  7  2  0  0  0
  7  8  1  0  0  0
  8  9  2  0  0  0
  8  1  1  0  0  0
  9 10  1  0  0  0
 10 14  1  0  0  0
 10 11  2  0  0  0
 14 15  1  0  0  0
 11 16  1  0  0  0
 11  6  1  0  0  0
 16 17  1  0  0  0
  1  2  2  0  0  0
  2  3  1  0  0  0
  3  4  1  0  0  0
  4 18  1  0  0  0
  4  5  2  0  0  0
 18 19  1  0  0  0
 19 20  1  0  0  0
 20 21  1  0  0  0
 21 22  1  0  0  0
 22 23  1  0  0  0
 22 25  1  0  0  0
 23 24  1  0  0  0
 24 19  1  0  0  0
 25 26  2  0  0  0
 26 31  1  0  0  0
 26 27  1  0  0  0
 31 32  1  0  0  0
 27 28  2  0  0  0
 28 29  1  0  0  0
 29 30  2  0  0  0
 30 25  1  0  0  0
  5  1  1  0  0  0
M  END
>  <minimizedAffinity>
-4.33566

>  <minimizedRMSD>
1.42612

$$$$
CHEMBL3234912 PubChem-67412320


 30 32  0  0  0  0  0  0  0  0999 V2000
   14.5883   -7.4003   19.0480 C   0  0  0  0  0  0  0  0  0  0  0  0
   15.8396   -8.0294   19.0028 C   0  0  0  0  0  0  0  0  0  0  0  0
   16.3510   -8.4969   17.7927 C   0  0  0  0  0  0  0  0  0  0  0  0
   15.6058   -8.3346   16.6168 C   0  0  0  0  0  0  0  0  0  0  0  0
   14.3907   -7.7205   16.6793 N   0  0  0  0  0  0  0  0  0  0  0  0
   13.8749   -7.2579   17.8493 C   0  0  0  0  0  0  0  0  0  0  0  0
   14.1996   -6.6525   22.7545 C   0  0  0  0  0  0  0  0  0  0  0  0
   14.7097   -7.1197   21.5331 C   0  0  0  0  0  0  0  0  0  0  0  0
   14.0339   -6.8993   20.3278 C   0  0  0  0  0  0  0  0  0  0  0  0
   12.8249   -6.1966   20.3550 C   0  0  0  0  0  0  0  0  0  0  0  0
   12.2919   -5.7184   21.5603 C   0  0  0  0  0  0  0  0  0  0  0  0
   12.9730   -5.9416   22.7686 C   0  0  0  0  0  0  0  0  0  0  0  0
   16.3169   -6.7986   24.0381 C   0  0  0  0  0  0  0  0  0  0  0  0
   14.9014   -6.8905   23.9420 O   0  0  0  0  0  0  0  0  0  0  0  0
   11.0815   -5.0159   21.5817 O   0  0  0  0  0  0  0  0  0  0  0  0
   10.4215   -4.5813   20.4004 C   0  0  0  0  0  0  0  0  0  0  0  0
   12.3866   -5.4371   23.9417 O   0  0  0  0  0  0  0  0  0  0  0  0
   13.0567   -5.2703   25.1829 C   0  0  0  0  0  0  0  0  0  0  0  0
   16.1227   -8.8202   15.3191 C   0  0  0  0  0  0  0  0  0  0  0  0
   15.3343   -8.7252   14.1689 C   0  0  0  0  0  0  0  0  0  0  0  0
   15.7999   -9.1782   12.9244 C   0  0  0  0  0  0  0  0  0  0  0  0
   17.0968   -9.7441   12.8320 C   0  0  0  0  0  0  0  0  0  0  0  0
   17.8909   -9.8406   13.9872 C   0  0  0  0  0  0  0  0  0  0  0  0
   17.4001   -9.3800   15.2171 C   0  0  0  0  0  0  0  0  0  0  0  0
   14.9858   -9.0688   11.7911 O   0  0  0  0  0  0  0  0  0  0  0  0
   14.3228  -10.1801   11.2024 C   0  0  0  0  0  0  0  0  0  0  0  0
   17.6461  -10.2236   11.6307 O   0  0  0  0  0  0  0  0  0  0  0  0
   18.1657   -9.4102   10.5886 C   0  0  0  0  0  0  0  0  0  0  0  0
   19.1700  -10.4003   13.8885 O   0  0  0  0  0  0  0  0  0  0  0  0
   19.6543  -11.3812   14.7958 C   0  0  0  0  0  0  0  0  0  0  0  0
 13 14  1  0  0  0
 14  7  1  0  0  0
  7  8  2  0  0  0
  8  9  1  0  0  0
  9  1  1  0  0  0
  9 10  2  0  0  0
  1  2  2  0  0  0
  2  3  1  0  0  0
  3  4  2  0  0  0
  4 19  1  0  0  0
  4  5  1  0  0  0
 19 20  2  0  0  0
 20 21  1  0  0  0
 21 25  1  0  0  0
 21 22  2  0  0  0
 25 26  1  0  0  0
 22 27  1  0  0  0
 22 23  1  0  0  0
 27 28  1  0  0  0
 23 29  1  0  0  0
 23 24  2  0  0  0
 29 30  1  0  0  0
 24 19  1  0  0  0
  5  6  2  0  0  0
  6  1  1  0  0  0
 10 11  1  0  0  0
 11 15  1  0  0  0
 11 12  2  0  0  0
 15 16  1  0  0  0
 12 17  1  0  0  0
 12  7  1  0  0  0
 17 18  1  0  0  0
M  END
>  <minimizedAffinity>
-4.31020

>  <minimizedRMSD>
1.96444

$$$$
CHEMBL2409586 PubChem-71812967


 32 34  0  0  0  0  0  0  0  0999 V2000
   14.3324   -7.4046   18.0958 C   0  0  0  0  0  0  0  0  0  0  0  0
   15.1320   -7.8523   19.0990 N   0  0  0  0  0  0  0  0  0  0  0  0
   16.2438   -8.5749   18.8147 C   0  0  0  0  0  0  0  0  0  0  0  0
   16.5598   -8.8522   17.5255 N   0  0  0  0  0  0  0  0  0  0  0  0
   15.7659   -8.4084   16.5161 C   0  0  0  0  0  0  0  0  0  0  0  0
   14.6546   -7.6857   16.8077 N   0  0  0  0  0  0  0  0  0  0  0  0
   13.1509   -6.6388   18.3686 N   0  0  0  0  0  0  0  0  0  0  0  0
   12.5959   -6.4041   17.5901 H   0  0  0  0  0  0  0  0  0  0  0  0
   11.7409   -5.2313   22.1257 C   0  0  0  0  0  0  0  0  0  0  0  0
   12.6100   -6.3224   22.0715 C   0  0  0  0  0  0  0  0  0  0  0  0
   13.0770   -6.7899   20.8417 C   0  0  0  0  0  0  0  0  0  0  0  0
   12.6822   -6.1739   19.6447 C   0  0  0  0  0  0  0  0  0  0  0  0
   11.8079   -5.0752   19.6913 C   0  0  0  0  0  0  0  0  0  0  0  0
   11.3425   -4.6108   20.9326 C   0  0  0  0  0  0  0  0  0  0  0  0
   10.4525   -3.6470   23.5213 C   0  0  0  0  0  0  0  0  0  0  0  0
   11.2898   -4.7854   23.3708 O   0  0  0  0  0  0  0  0  0  0  0  0
   11.4143   -4.4608   18.4969 O   0  0  0  0  0  0  0  0  0  0  0  0
   10.2108   -3.7147   18.3751 C   0  0  0  0  0  0  0  0  0  0  0  0
   16.0767   -8.6875   15.1442 N   0  0  0  0  0  0  0  0  0  0  0  0
   15.4726   -8.2945   14.4735 H   0  0  0  0  0  0  0  0  0  0  0  0
   17.1661   -9.4731   14.6332 C   0  0  0  0  0  0  0  0  0  0  0  0
   18.3010   -9.7483   15.4121 C   0  0  0  0  0  0  0  0  0  0  0  0
   19.3494  -10.5141   14.8980 C   0  0  0  0  0  0  0  0  0  0  0  0
   19.2740  -11.0137   13.5976 C   0  0  0  0  0  0  0  0  0  0  0  0
   18.1503  -10.7469   12.8134 C   0  0  0  0  0  0  0  0  0  0  0  0
   17.0924   -9.9782   13.3222 C   0  0  0  0  0  0  0  0  0  0  0  0
   15.9373   -9.7015   12.5209 N   0  0  0  0  0  0  0  0  0  0  0  0
   15.1465   -9.3187   12.9651 H   0  0  0  0  0  0  0  0  0  0  0  0
   15.8497  -10.0009   10.8161 S   0  0  0  0  0  0  0  0  0  0  0  0
   17.0126   -8.9651    9.9588 C   0  0  0  0  0  0  0  0  0  0  0  0
   14.4636   -9.6823   10.3331 O   0  0  0  0  0  0  0  0  0  0  0  0
   16.1463  -11.4475   10.5387 O   0  0  0  0  0  0  0  0  0  0  0  0
 15 16  1  0  0  0
 16  9  1  0  0  0
  9 10  2  0  0  0
 10 11  1  0  0  0
 11 12  2  0  0  0
 12  7  1  0  0  0
 12 13  1  0  0  0
  7  1  1  0  0  0
  1  2  2  0  0  0
  2  3  1  0  0  0
  3  4  2  0  0  0
  4  5  1  0  0  0
  5 19  1  0  0  0
  5  6  2  0  0  0
 19 21  1  0  0  0
 21 22  2  0  0  0
 22 23  1  0  0  0
 23 24  2  0  0  0
 24 25  1  0  0  0
 25 26  2  0  0  0
 26 27  1  0  0  0
 26 21  1  0  0  0
 27 29  1  0  0  0
 29 30  1  0  0  0
 29 31  2  0  0  0
 29 32  2  0  0  0
  6  1  1  0  0  0
 13 17  1  0  0  0
 13 14  2  0  0  0
 17 18  1  0  0  0
 14  9  1  0  0  0
  7  8  1  0  0  0
 19 20  1  0  0  0
 27 28  1  0  0  0
M  END
>  <minimizedAffinity>
-4.28292

>  <minimizedRMSD>
1.88983

$$$$
CHEMBL1478867 8589754 ChemDiv-E594-0204 MCULE-8315993152 MolPort-007-745-067 PubChem-16019877 ZINC000008589754


 33 36  0  0  0  0  0  0  0  0999 V2000
   16.0447   -8.6546   17.2616 C   0  0  0  0  0  0  0  0  0  0  0  0
   15.1324   -7.7078   17.5601 N   0  0  0  0  0  0  0  0  0  0  0  0
   14.9745   -7.8955   18.8875 C   0  0  0  0  0  0  0  0  0  0  0  0
   15.7443   -8.8951   19.3612 N   0  0  0  0  0  0  0  0  0  0  0  0
   16.3903   -9.3375   18.3263 O   0  0  0  0  0  0  0  0  0  0  0  0
   17.2459   -9.5626   10.9643 C   0  0  0  0  0  0  0  0  0  0  0  0
   15.8615   -9.4101   11.1599 C   0  0  0  0  0  0  0  0  0  0  0  0
   15.3370   -9.2007   12.4385 C   0  0  0  0  0  0  0  0  0  0  0  0
   16.1944   -9.1441   13.5373 C   0  0  0  0  0  0  0  0  0  0  0  0
   15.7008   -8.9345   14.8203 C   0  0  0  0  0  0  0  0  0  0  0  0
   16.5820   -8.8823   15.9046 C   0  0  0  0  0  0  0  0  0  0  0  0
   17.9609   -9.0474   15.6518 C   0  0  0  0  0  0  0  0  0  0  0  0
   18.7971   -9.0068   16.5931 O   0  0  0  0  0  0  0  0  0  0  0  0
   18.3982   -9.2459   14.4095 O   0  0  0  0  0  0  0  0  0  0  0  0
   17.5824   -9.2984   13.3619 C   0  0  0  0  0  0  0  0  0  0  0  0
   18.0990   -9.5064   12.0807 C   0  0  0  0  0  0  0  0  0  0  0  0
   17.7814   -9.7823    9.6410 N   0  0  0  0  0  0  0  0  0  0  0  0
   19.4577   -8.0263    9.3784 C   0  0  0  0  0  0  0  0  0  0  0  0
   19.1830   -9.5186    9.3351 C   0  0  0  0  0  0  0  0  0  0  0  0
   16.9888  -10.4251    8.5990 C   0  0  0  0  0  0  0  0  0  0  0  0
   16.9348   -9.5457    7.3631 C   0  0  0  0  0  0  0  0  0  0  0  0
   14.0642   -7.0976   19.7233 C   0  0  0  0  0  0  0  0  0  0  0  0
   12.7578   -6.8458   19.3021 C   0  0  0  0  0  0  0  0  0  0  0  0
   11.8821   -6.0868   20.0917 C   0  0  0  0  0  0  0  0  0  0  0  0
   12.3158   -5.5675   21.3237 C   0  0  0  0  0  0  0  0  0  0  0  0
   13.6420   -5.8213   21.7581 C   0  0  0  0  0  0  0  0  0  0  0  0
   14.4973   -6.5845   20.9474 C   0  0  0  0  0  0  0  0  0  0  0  0
   10.5715   -5.8335   19.6704 O   0  0  0  0  0  0  0  0  0  0  0  0
    9.8510   -6.7159   18.8204 C   0  0  0  0  0  0  0  0  0  0  0  0
   11.3915   -4.8132   22.0662 O   0  0  0  0  0  0  0  0  0  0  0  0
   11.3551   -3.3946   22.1239 C   0  0  0  0  0  0  0  0  0  0  0  0
   14.1006   -5.3224   22.9831 O   0  0  0  0  0  0  0  0  0  0  0  0
   14.5001   -6.1595   24.0603 C   0  0  0  0  0  0  0  0  0  0  0  0
 18 19  1  0  0  0
 19 17  1  0  0  0
 17 20  1  0  0  0
 17  6  1  0  0  0
 20 21  1  0  0  0
  6  7  2  0  0  0
  7  8  1  0  0  0
  8  9  2  0  0  0
  9 10  1  0  0  0
 10 11  2  0  0  0
 11  1  1  0  0  0
 11 12  1  0  0  0
  1  2  2  0  0  0
  2  3  1  0  0  0
  3  4  2  0  0  0
  3 22  1  0  0  0
  4  5  1  0  0  0
  5  1  1  0  0  0
 22 23  2  0  0  0
 23 24  1  0  0  0
 24 28  1  0  0  0
 24 25  2  0  0  0
 28 29  1  0  0  0
 25 30  1  0  0  0
 25 26  1  0  0  0
 30 31  1  0  0  0
 26 32  1  0  0  0
 26 27  2  0  0  0
 32 33  1  0  0  0
 27 22  1  0  0  0
 12 13  2  0  0  0
 12 14  1  0  0  0
 14 15  1  0  0  0
 15 16  2  0  0  0
 15  9  1  0  0  0
 16  6  1  0  0  0
M  END
>  <minimizedAffinity>
-4.25531

>  <minimizedRMSD>
1.92081

$$$$
CHEMBL4168748 PubChem-145955050


 31 33  0  0  0  0  0  0  0  0999 V2000
   16.0455   -8.9742   15.6531 C   0  0  0  0  0  0  0  0  0  0  0  0
   16.7200   -9.7590   14.7994 C   0  0  0  0  0  0  0  0  0  0  0  0
   15.0768   -7.9033   15.2109 C   0  0  0  0  0  0  0  0  0  0  0  0
   14.0451   -7.7426   16.1599 O   0  0  0  0  0  0  0  0  0  0  0  0
   14.6269   -7.1823   17.3147 C   0  0  0  0  0  0  0  0  0  0  0  0
   15.5051   -8.2024   17.9919 C   0  0  0  0  0  0  0  0  0  0  0  0
   15.6314   -8.2793   19.3220 C   0  0  0  0  0  0  0  0  0  0  0  0
   16.2873   -9.0811   17.1051 C   0  0  0  0  0  0  0  0  0  0  0  0
   17.1186   -9.9084   17.5720 O   0  0  0  0  0  0  0  0  0  0  0  0
   16.6378   -9.7851   13.3245 C   0  0  0  0  0  0  0  0  0  0  0  0
   17.8334   -9.7131   12.6026 C   0  0  0  0  0  0  0  0  0  0  0  0
   17.8260   -9.7374   11.2046 C   0  0  0  0  0  0  0  0  0  0  0  0
   16.6136   -9.8361   10.5082 C   0  0  0  0  0  0  0  0  0  0  0  0
   15.4120   -9.9106   11.2302 C   0  0  0  0  0  0  0  0  0  0  0  0
   15.4257   -9.8858   12.6267 C   0  0  0  0  0  0  0  0  0  0  0  0
   19.0280   -9.6633   10.5120 O   0  0  0  0  0  0  0  0  0  0  0  0
   19.8361   -9.5974   10.9817 H   0  0  0  0  0  0  0  0  0  0  0  0
   16.6254   -9.8588    9.1094 O   0  0  0  0  0  0  0  0  0  0  0  0
   16.8140   -8.6902    8.3232 C   0  0  0  0  0  0  0  0  0  0  0  0
   14.8691   -7.4727   20.2989 C   0  0  0  0  0  0  0  0  0  0  0  0
   15.5767   -6.6735   21.2164 C   0  0  0  0  0  0  0  0  0  0  0  0
   14.8720   -5.9090   22.1588 C   0  0  0  0  0  0  0  0  0  0  0  0
   13.4790   -5.9424   22.2108 C   0  0  0  0  0  0  0  0  0  0  0  0
   12.7794   -6.7648   21.3195 C   0  0  0  0  0  0  0  0  0  0  0  0
   13.4606   -7.5418   20.3704 C   0  0  0  0  0  0  0  0  0  0  0  0
   12.7579   -8.4011   19.5163 O   0  0  0  0  0  0  0  0  0  0  0  0
   11.5037   -8.0622   18.9404 C   0  0  0  0  0  0  0  0  0  0  0  0
   12.8174   -5.1580   23.1594 O   0  0  0  0  0  0  0  0  0  0  0  0
   11.4025   -5.1430   23.2911 C   0  0  0  0  0  0  0  0  0  0  0  0
   16.9764   -6.6416   21.1701 O   0  0  0  0  0  0  0  0  0  0  0  0
   17.7789   -6.3373   22.3029 C   0  0  0  0  0  0  0  0  0  0  0  0
  1  2  2  0  0  0
  2 10  1  0  0  0
 10 11  2  0  0  0
 11 12  1  0  0  0
 12 13  2  0  0  0
 13 14  1  0  0  0
 14 15  2  0  0  0
 13 18  1  0  0  0
 18 19  1  0  0  0
 12 16  1  0  0  0
  1  3  1  0  0  0
  3  4  1  0  0  0
  4  5  1  0  0  0
  5  6  1  0  0  0
  6  7  2  0  0  0
  7 20  1  0  0  0
 20 21  2  0  0  0
 21 22  1  0  0  0
 22 23  2  0  0  0
 23 24  1  0  0  0
 24 25  2  0  0  0
 25 26  1  0  0  0
 26 27  1  0  0  0
 23 28  1  0  0  0
 28 29  1  0  0  0
 21 30  1  0  0  0
 30 31  1  0  0  0
  6  8  1  0  0  0
  8  9  2  0  0  0
  8  1  1  0  0  0
 15 10  1  0  0  0
 25 20  1  0  0  0
 16 17  1  0  0  0
M  END
>  <minimizedAffinity>
-4.25312

>  <minimizedRMSD>
1.63749

$$$$
CHEMBL3657557 PubChem-89708653


 35 39  0  0  0  0  0  0  0  0999 V2000
   15.9847   -8.3542   17.6705 C   0  0  0  0  0  0  0  0  0  0  0  0
   15.8171   -9.0606   16.5195 N   0  0  0  0  0  0  0  0  0  0  0  0
   16.8738   -9.6111   15.8655 C   0  0  0  0  0  0  0  0  0  0  0  0
   18.1292   -9.4560   16.3671 N   0  0  0  0  0  0  0  0  0  0  0  0
   18.3450   -8.7594   17.5124 C   0  0  0  0  0  0  0  0  0  0  0  0
   17.2719   -8.1899   18.1933 C   0  0  0  0  0  0  0  0  0  0  0  0
   13.3953   -7.1885   19.8643 C   0  0  0  0  0  0  0  0  0  0  0  0
   14.5787   -7.8679   19.6553 C   0  0  0  0  0  0  0  0  0  0  0  0
   14.8460   -7.7876   18.3328 N   0  0  0  0  0  0  0  0  0  0  0  0
   13.9023   -7.1015   17.7039 N   0  0  0  0  0  0  0  0  0  0  0  0
   13.0019   -6.7264   18.6276 C   0  0  0  0  0  0  0  0  0  0  0  0
   11.7823   -5.9281   18.3262 C   0  0  0  0  0  0  0  0  0  0  0  0
   12.6898   -7.0009   21.1667 C   0  0  0  0  0  0  0  0  0  0  0  0
   11.4645   -3.9160   21.5829 C   0  0  0  0  0  0  0  0  0  0  0  0
   11.8773   -5.1472   22.3665 C   0  0  0  0  0  0  0  0  0  0  0  0
   12.1895   -4.7575   23.7985 C   0  0  0  0  0  0  0  0  0  0  0  0
   13.6398   -5.1032   24.0015 C   0  0  0  0  0  0  0  0  0  0  0  0
   13.9676   -6.0486   22.8742 C   0  0  0  0  0  0  0  0  0  0  0  0
   13.0753   -5.7331   21.7690 N   0  0  0  0  0  0  0  0  0  0  0  0
   13.8081   -5.7487   25.2254 O   0  0  0  0  0  0  0  0  0  0  0  0
   13.2488   -6.5407   25.2529 H   0  0  0  0  0  0  0  0  0  0  0  0
   16.6398  -10.3449   14.6559 N   0  0  0  0  0  0  0  0  0  0  0  0
   16.0706  -11.1443   14.7348 H   0  0  0  0  0  0  0  0  0  0  0  0
   17.1393  -10.0486   13.3443 C   0  0  0  0  0  0  0  0  0  0  0  0
   16.2437  -10.1012   12.2596 C   0  0  0  0  0  0  0  0  0  0  0  0
   16.7363   -9.8129   10.9893 C   0  0  0  0  0  0  0  0  0  0  0  0
   18.0518   -9.4850   10.7766 C   0  0  0  0  0  0  0  0  0  0  0  0
   18.9683   -9.4230   11.8253 C   0  0  0  0  0  0  0  0  0  0  0  0
   18.4968   -9.7096   13.1183 C   0  0  0  0  0  0  0  0  0  0  0  0
   18.2755   -9.2529    9.4698 N   0  0  0  0  0  0  0  0  0  0  0  0
   17.0884   -9.4352    8.8439 C   0  0  0  0  0  0  0  0  0  0  0  0
   16.1049   -9.7858    9.7633 C   0  0  0  0  0  0  0  0  0  0  0  0
   14.4140  -10.1239    9.4367 Cl  0  0  0  0  0  0  0  0  0  0  0  0
   16.8782   -9.2791    7.3754 C   0  0  0  0  0  0  0  0  0  0  0  0
   19.5407   -8.8808    8.8540 C   0  0  0  0  0  0  0  0  0  0  0  0
 15 14  1  0  0  0
 15 16  1  0  0  0
 16 17  1  0  0  0
 17 18  1  0  0  0
 17 20  1  0  0  0
 18 19  1  0  0  0
 19 13  1  0  0  0
 19 15  1  0  0  0
 13  7  1  0  0  0
  7  8  2  0  0  0
  8  9  1  0  0  0
  9 10  1  0  0  0
  9  1  1  0  0  0
 10 11  2  0  0  0
 11 12  1  0  0  0
 11  7  1  0  0  0
  1  2  2  0  0  0
  2  3  1  0  0  0
  3  4  2  0  0  0
  3 22  1  0  0  0
  4  5  1  0  0  0
  5  6  2  0  0  0
  6  1  1  0  0  0
 22 24  1  0  0  0
 24 25  2  0  0  0
 25 26  1  0  0  0
 26 27  2  0  0  0
 27 28  1  0  0  0
 27 30  1  0  0  0
 28 29  2  0  0  0
 29 24  1  0  0  0
 30 31  1  0  0  0
 30 35  1  0  0  0
 31 32  2  0  0  0
 31 34  1  0  0  0
 32 33  1  0  0  0
 32 26  1  0  0  0
 22 23  1  0  0  0
 20 21  1  0  0  0
M  END
>  <minimizedAffinity>
-4.22753

>  <minimizedRMSD>
1.77897

$$$$
CHEMBL3670648 PubChem-71226289


 35 40  0  0  0  0  0  0  0  0999 V2000
   15.7318   -7.8490   17.2092 O   0  0  0  0  0  0  0  0  0  0  0  0
   13.1425   -7.1710   19.8041 C   0  0  0  0  0  0  0  0  0  0  0  0
   13.9406   -7.1865   20.9629 C   0  0  0  0  0  0  0  0  0  0  0  0
   15.3081   -7.4719   20.8548 C   0  0  0  0  0  0  0  0  0  0  0  0
   15.8931   -7.6882   19.6061 C   0  0  0  0  0  0  0  0  0  0  0  0
   15.1166   -7.6381   18.4473 C   0  0  0  0  0  0  0  0  0  0  0  0
   13.7411   -7.3851   18.5519 C   0  0  0  0  0  0  0  0  0  0  0  0
   10.8943   -6.9390   18.7898 C   0  0  0  0  0  0  0  0  0  0  0  0
   11.7635   -6.9556   19.9140 O   0  0  0  0  0  0  0  0  0  0  0  0
   13.3130   -6.9863   22.3236 C   0  0  0  0  0  0  0  0  0  0  0  0
   13.3238   -5.5993   22.8372 N   0  0  0  0  0  0  0  0  0  0  0  0
   14.2485   -4.7859   22.0453 C   0  0  0  0  0  0  0  0  0  0  0  0
   13.4613   -3.6788   21.3471 C   0  0  0  0  0  0  0  0  0  0  0  0
   11.9993   -3.9818   21.5839 C   0  0  0  0  0  0  0  0  0  0  0  0
   12.0331   -4.9083   22.7680 C   0  0  0  0  0  0  0  0  0  0  0  0
   11.7038   -4.2162   24.0588 C   0  0  0  0  0  0  0  0  0  0  0  0
   10.5591   -5.0065   24.2650 O   0  0  0  0  0  0  0  0  0  0  0  0
   10.7925   -5.7046   23.0675 C   0  0  0  0  0  0  0  0  0  0  0  0
   15.1633   -7.4168   15.9782 C   0  0  0  0  0  0  0  0  0  0  0  0
   14.4286   -8.5437   15.3393 C   0  0  0  0  0  0  0  0  0  0  0  0
   15.4023   -8.7810   14.2653 N   0  0  0  0  0  0  0  0  0  0  0  0
   16.1318   -7.6603   14.8764 C   0  0  0  0  0  0  0  0  0  0  0  0
   15.5471   -9.6759   13.1633 C   0  0  0  0  0  0  0  0  0  0  0  0
   14.6625  -10.5461   12.9499 O   0  0  0  0  0  0  0  0  0  0  0  0
   16.7134   -9.5955   12.2763 C   0  0  0  0  0  0  0  0  0  0  0  0
   17.9465  -10.0329   12.5954 N   0  0  0  0  0  0  0  0  0  0  0  0
   18.7122   -9.7854   11.5441 N   0  0  0  0  0  0  0  0  0  0  0  0
   17.9161   -9.2061   10.6239 C   0  0  0  0  0  0  0  0  0  0  0  0
   16.6870   -9.0868   11.0678 O   0  0  0  0  0  0  0  0  0  0  0  0
   18.3658   -8.7657    9.2964 C   0  0  0  0  0  0  0  0  0  0  0  0
   19.4026   -7.8305    9.1719 C   0  0  0  0  0  0  0  0  0  0  0  0
   19.8274   -7.4143    7.9066 C   0  0  0  0  0  0  0  0  0  0  0  0
   19.2177   -7.9307    6.7597 C   0  0  0  0  0  0  0  0  0  0  0  0
   18.1834   -8.8635    6.8778 C   0  0  0  0  0  0  0  0  0  0  0  0
   17.7586   -9.2799    8.1431 C   0  0  0  0  0  0  0  0  0  0  0  0
  8  9  1  0  0  0
  9  2  1  0  0  0
  2  3  2  0  0  0
  3  4  1  0  0  0
  3 10  1  0  0  0
  4  5  2  0  0  0
  5  6  1  0  0  0
  6  7  2  0  0  0
  6  1  1  0  0  0
  7  2  1  0  0  0
  1 19  1  0  0  0
 19 20  1  0  0  0
 20 21  1  0  0  0
 21 22  1  0  0  0
 21 23  1  0  0  0
 22 19  1  0  0  0
 23 24  2  0  0  0
 23 25  1  0  0  0
 25 26  2  0  0  0
 26 27  1  0  0  0
 27 28  2  0  0  0
 28 29  1  0  0  0
 28 30  1  0  0  0
 29 25  1  0  0  0
 30 31  2  0  0  0
 31 32  1  0  0  0
 32 33  2  0  0  0
 33 34  1  0  0  0
 34 35  2  0  0  0
 35 30  1  0  0  0
 10 11  1  0  0  0
 11 12  1  0  0  0
 12 13  1  0  0  0
 13 14  1  0  0  0
 14 15  1  0  0  0
 15 16  1  0  0  0
 15 11  1  0  0  0
 16 17  1  0  0  0
 17 18  1  0  0  0
 18 15  1  0  0  0
M  END
>  <minimizedAffinity>
-4.22317

>  <minimizedRMSD>
1.99099

$$$$
CHEMBL3799118 PubChem-127046264


 34 37  0  0  0  0  0  0  0  0999 V2000
   17.8472   -8.5691   17.5081 N   0  0  0  0  0  0  0  0  0  0  0  0
   16.5090   -8.5309   17.3399 C   0  0  0  0  0  0  0  0  0  0  0  0
   16.0591   -9.2145   15.8651 S   0  0  0  0  0  0  0  0  0  0  0  0
   17.6711   -9.5713   15.5014 C   0  0  0  0  0  0  0  0  0  0  0  0
   18.4909   -9.1349   16.4881 N   0  0  0  0  0  0  0  0  0  0  0  0
   18.1556  -10.1581   14.2017 C   0  0  0  0  0  0  0  0  0  0  0  0
   18.9617   -9.0792   13.4613 C   0  0  0  0  0  0  0  0  0  0  0  0
   19.3372   -9.5127   12.0446 C   0  0  0  0  0  0  0  0  0  0  0  0
   18.1395   -9.9507   11.3381 N   0  0  0  0  0  0  0  0  0  0  0  0
   17.3433  -11.0118   11.9442 C   0  0  0  0  0  0  0  0  0  0  0  0
   16.9447  -10.6029   13.3622 C   0  0  0  0  0  0  0  0  0  0  0  0
   17.7453   -9.3310   10.1052 C   0  0  0  0  0  0  0  0  0  0  0  0
   18.4517   -8.4117    9.6073 O   0  0  0  0  0  0  0  0  0  0  0  0
   19.0444  -11.3679   14.4791 C   0  0  0  0  0  0  0  0  0  0  0  0
   16.5062   -9.7745    9.3910 C   0  0  0  0  0  0  0  0  0  0  0  0
   15.3782   -9.4769   10.1558 O   0  0  0  0  0  0  0  0  0  0  0  0
   16.4041   -9.0928    8.0406 C   0  0  0  0  0  0  0  0  0  0  0  0
   15.3248   -8.5182   10.2936 H   0  0  0  0  0  0  0  0  0  0  0  0
   15.6303   -7.9550   18.3138 N   0  0  0  0  0  0  0  0  0  0  0  0
   14.3436   -7.3722   18.0626 C   0  0  0  0  0  0  0  0  0  0  0  0
   13.8736   -7.3337   16.8934 O   0  0  0  0  0  0  0  0  0  0  0  0
   15.9401   -7.9597   19.2483 H   0  0  0  0  0  0  0  0  0  0  0  0
   13.5638   -6.8148   19.1815 C   0  0  0  0  0  0  0  0  0  0  0  0
   12.1934   -6.4938   19.0050 C   0  0  0  0  0  0  0  0  0  0  0  0
   11.4357   -5.9619   20.0638 C   0  0  0  0  0  0  0  0  0  0  0  0
   12.0779   -5.7638   21.2821 C   0  0  0  0  0  0  0  0  0  0  0  0
   13.3949   -6.0689   21.4579 C   0  0  0  0  0  0  0  0  0  0  0  0
   14.1790   -6.5987   20.4343 C   0  0  0  0  0  0  0  0  0  0  0  0
   13.7397   -5.7777   22.7194 N   0  0  0  0  0  0  0  0  0  0  0  0
   12.6737   -5.3048   23.3547 N   0  0  0  0  0  0  0  0  0  0  0  0
   11.6227   -5.2770   22.4939 C   0  0  0  0  0  0  0  0  0  0  0  0
   10.1255   -5.6570   19.8985 F   0  0  0  0  0  0  0  0  0  0  0  0
   15.0377   -5.9848   23.3426 C   0  0  0  0  0  0  0  0  0  0  0  0
   15.1629   -7.4220   23.8095 C   0  0  0  0  0  0  0  0  0  0  0  0
  1  2  2  0  0  0
  2  3  1  0  0  0
  3  4  1  0  0  0
  4  5  2  0  0  0
  4  6  1  0  0  0
  6  7  1  0  0  0
  7  8  1  0  0  0
  8  9  1  0  0  0
  9 10  1  0  0  0
 10 11  1  0  0  0
  9 12  1  0  0  0
 12 13  2  0  0  0
 12 15  1  0  0  0
 15 16  1  0  0  0
 15 17  1  0  0  0
  6 14  1  0  0  0
  2 19  1  0  0  0
 19 20  1  0  0  0
 20 21  2  0  0  0
 20 23  1  0  0  0
 23 24  2  0  0  0
 24 25  1  0  0  0
 25 26  2  0  0  0
 26 27  1  0  0  0
 27 28  2  0  0  0
 27 29  1  0  0  0
 29 30  1  0  0  0
 30 31  2  0  0  0
 29 33  1  0  0  0
 33 34  1  0  0  0
 25 32  1  0  0  0
  5  1  1  0  0  0
 11  6  1  0  0  0
 28 23  1  0  0  0
 31 26  1  0  0  0
 16 18  1  0  0  0
 19 22  1  0  0  0
M  END
>  <minimizedAffinity>
-4.19697

>  <minimizedRMSD>
1.89848

$$$$
CHEMBL1574212 12805116 CSC026962347 MCULE-6083229414 MolPort-004-656-608 PubChem-24677698 Z94561538 ZINC000012805116 ZINC12805116


 33 34  0  0  0  0  0  0  0  0999 V2000
   16.9686   -9.1396   16.8748 C   0  0  0  0  0  0  0  0  0  0  0  0
   15.8037   -8.1646   16.8448 C   0  0  0  0  0  0  0  0  0  0  0  0
   15.3301   -7.9331   18.1655 O   0  0  0  0  0  0  0  0  0  0  0  0
   14.1426   -7.2455   18.4288 C   0  0  0  0  0  0  0  0  0  0  0  0
   13.3117   -7.0517   17.4990 O   0  0  0  0  0  0  0  0  0  0  0  0
   13.1907   -5.7391   22.3531 C   0  0  0  0  0  0  0  0  0  0  0  0
   14.4792   -6.1997   22.0734 C   0  0  0  0  0  0  0  0  0  0  0  0
   14.8272   -6.6962   20.8081 C   0  0  0  0  0  0  0  0  0  0  0  0
   13.8530   -6.7325   19.7886 C   0  0  0  0  0  0  0  0  0  0  0  0
   12.5613   -6.2696   20.0684 C   0  0  0  0  0  0  0  0  0  0  0  0
   12.2122   -5.7725   21.3333 C   0  0  0  0  0  0  0  0  0  0  0  0
   13.8961   -5.2786   24.7095 C   0  0  0  0  0  0  0  0  0  0  0  0
   12.9509   -5.2637   23.6510 O   0  0  0  0  0  0  0  0  0  0  0  0
   16.1285   -7.1492   20.5606 O   0  0  0  0  0  0  0  0  0  0  0  0
   17.2755   -6.5851   21.1830 C   0  0  0  0  0  0  0  0  0  0  0  0
   10.9115   -5.3152   21.5743 O   0  0  0  0  0  0  0  0  0  0  0  0
   10.0466   -4.8554   20.5419 C   0  0  0  0  0  0  0  0  0  0  0  0
   16.5226  -10.5436   16.5063 C   0  0  0  0  0  0  0  0  0  0  0  0
   16.9093  -10.8348   15.1701 O   0  0  0  0  0  0  0  0  0  0  0  0
   16.2724  -10.2617   14.0669 C   0  0  0  0  0  0  0  0  0  0  0  0
   15.0292  -10.0436   14.1040 O   0  0  0  0  0  0  0  0  0  0  0  0
   17.0401   -9.9248   12.8447 C   0  0  0  0  0  0  0  0  0  0  0  0
   16.3472   -9.7869   11.6339 C   0  0  0  0  0  0  0  0  0  0  0  0
   17.0011   -9.4713   10.4399 C   0  0  0  0  0  0  0  0  0  0  0  0
   18.4023   -9.2810   10.4521 C   0  0  0  0  0  0  0  0  0  0  0  0
   19.0972   -9.4115   11.6630 C   0  0  0  0  0  0  0  0  0  0  0  0
   18.4365   -9.7298   12.8587 C   0  0  0  0  0  0  0  0  0  0  0  0
   16.2084   -9.3643    9.2874 O   0  0  0  0  0  0  0  0  0  0  0  0
   16.5041   -9.9721    8.0376 C   0  0  0  0  0  0  0  0  0  0  0  0
   19.0928   -8.9650    9.2757 O   0  0  0  0  0  0  0  0  0  0  0  0
   19.4050   -7.6320    8.8936 C   0  0  0  0  0  0  0  0  0  0  0  0
   19.1569   -9.8519   14.0531 O   0  0  0  0  0  0  0  0  0  0  0  0
   19.7039  -11.0833   14.5042 C   0  0  0  0  0  0  0  0  0  0  0  0
 12 13  1  0  0  0
 13  6  1  0  0  0
  6  7  2  0  0  0
  7  8  1  0  0  0
  8 14  1  0  0  0
  8  9  2  0  0  0
 14 15  1  0  0  0
  9 10  1  0  0  0
  9  4  1  0  0  0
 10 11  2  0  0  0
 11 16  1  0  0  0
 11  6  1  0  0  0
 16 17  1  0  0  0
  4  5  2  0  0  0
  4  3  1  0  0  0
  3  2  1  0  0  0
  2  1  1  0  0  0
  1 18  1  0  0  0
 18 19  1  0  0  0
 19 20  1  0  0  0
 20 21  2  0  0  0
 20 22  1  0  0  0
 22 23  2  0  0  0
 23 24  1  0  0  0
 24 28  1  0  0  0
 24 25  2  0  0  0
 28 29  1  0  0  0
 25 30  1  0  0  0
 25 26  1  0  0  0
 30 31  1  0  0  0
 26 27  2  0  0  0
 27 32  1  0  0  0
 27 22  1  0  0  0
 32 33  1  0  0  0
M  END
>  <minimizedAffinity>
-4.17718

>  <minimizedRMSD>
1.84541

$$$$
CHEMBL5084608


 31 33  0  0  0  0  0  0  0  0999 V2000
   14.6794   -8.1440   16.2743 C   0  0  0  0  0  0  0  0  0  0  0  0
   16.1246   -8.2054   16.0632 N   0  0  0  0  0  0  0  0  0  0  0  0
   16.4731   -7.5348   14.8018 C   0  0  0  0  0  0  0  0  0  0  0  0
   15.9464   -8.2857   13.5751 C   0  0  0  0  0  0  0  0  0  0  0  0
   16.3686   -9.6786   13.6456 N   0  0  0  0  0  0  0  0  0  0  0  0
   16.0591  -10.3981   14.8734 C   0  0  0  0  0  0  0  0  0  0  0  0
   16.5875   -9.6028   16.0703 C   0  0  0  0  0  0  0  0  0  0  0  0
   17.2184  -10.2771   12.6493 C   0  0  0  0  0  0  0  0  0  0  0  0
   17.9372  -11.2634   12.9705 O   0  0  0  0  0  0  0  0  0  0  0  0
   17.2734   -9.7825   11.2531 C   0  0  0  0  0  0  0  0  0  0  0  0
   16.2466  -10.0618   10.3383 C   0  0  0  0  0  0  0  0  0  0  0  0
   16.3275   -9.6097    9.0183 C   0  0  0  0  0  0  0  0  0  0  0  0
   17.4413   -8.8790    8.5979 C   0  0  0  0  0  0  0  0  0  0  0  0
   18.4758   -8.6052    9.4957 C   0  0  0  0  0  0  0  0  0  0  0  0
   18.3932   -9.0579   10.8156 C   0  0  0  0  0  0  0  0  0  0  0  0
   17.5434   -8.3120    6.9454 Cl  0  0  0  0  0  0  0  0  0  0  0  0
   13.7643   -6.6281   20.1884 C   0  0  0  0  0  0  0  0  0  0  0  0
   12.9218   -6.3295   19.1063 C   0  0  0  0  0  0  0  0  0  0  0  0
   13.2408   -6.8425   17.8393 C   0  0  0  0  0  0  0  0  0  0  0  0
   14.3766   -7.6376   17.6498 C   0  0  0  0  0  0  0  0  0  0  0  0
   15.2146   -7.9254   18.7440 C   0  0  0  0  0  0  0  0  0  0  0  0
   14.9008   -7.4190   20.0079 C   0  0  0  0  0  0  0  0  0  0  0  0
   16.3940   -8.7399   18.5982 C   0  0  0  0  0  0  0  0  0  0  0  0
   17.3413   -9.3942   18.4806 N   0  0  0  0  0  0  0  0  0  0  0  0
   11.7512   -5.5104   19.2921 N   0  0  0  0  0  0  0  0  0  0  0  0
   11.3636   -4.5205   18.2963 C   0  0  0  0  0  0  0  0  0  0  0  0
   10.9334   -5.6225   20.4953 C   0  0  0  0  0  0  0  0  0  0  0  0
   11.0142   -4.3436   21.3193 C   0  0  0  0  0  0  0  0  0  0  0  0
   11.8353   -4.5516   22.5012 N   0  0  0  0  0  0  0  0  0  0  0  0
   11.0778   -4.0596   23.6386 C   0  0  0  0  0  0  0  0  0  0  0  0
   12.9891   -3.6823   22.3650 C   0  0  0  0  0  0  0  0  0  0  0  0
 17 18  2  0  0  0
 18 19  1  0  0  0
 19 20  2  0  0  0
 20 21  1  0  0  0
 21 22  2  0  0  0
 21 23  1  0  0  0
 23 24  3  0  0  0
 20  1  1  0  0  0
  1  2  1  0  0  0
  2  3  1  0  0  0
  3  4  1  0  0  0
  4  5  1  0  0  0
  5  6  1  0  0  0
  6  7  1  0  0  0
  5  8  1  0  0  0
  8  9  2  0  0  0
  8 10  1  0  0  0
 10 11  2  0  0  0
 11 12  1  0  0  0
 12 13  2  0  0  0
 13 14  1  0  0  0
 14 15  2  0  0  0
 13 16  1  0  0  0
 18 25  1  0  0  0
 25 27  1  0  0  0
 27 28  1  0  0  0
 28 29  1  0  0  0
 29 30  1  0  0  0
 29 31  1  0  0  0
 25 26  1  0  0  0
 22 17  1  0  0  0
  7  2  1  0  0  0
 15 10  1  0  0  0
M  END
>  <minimizedAffinity>
-4.16256

>  <minimizedRMSD>
1.94806

$$$$
CHEMBL1859149 PubChem-56661482


 32 35  0  0  0  0  0  0  0  0999 V2000
   17.2351   -9.7350   15.5796 C   0  0  0  0  0  0  0  0  0  0  0  0
   18.1559   -8.8820   16.1484 C   0  0  0  0  0  0  0  0  0  0  0  0
   17.4976   -8.1920   17.0494 O   0  0  0  0  0  0  0  0  0  0  0  0
   16.2460   -8.5942   17.0400 C   0  0  0  0  0  0  0  0  0  0  0  0
   16.0211   -9.5668   16.1344 N   0  0  0  0  0  0  0  0  0  0  0  0
   15.2060   -8.0435   17.9206 C   0  0  0  0  0  0  0  0  0  0  0  0
   13.9590   -7.6856   17.4067 C   0  0  0  0  0  0  0  0  0  0  0  0
   12.9630   -7.1595   18.2418 C   0  0  0  0  0  0  0  0  0  0  0  0
   13.2139   -6.9866   19.6142 C   0  0  0  0  0  0  0  0  0  0  0  0
   14.4799   -7.3489   20.1417 C   0  0  0  0  0  0  0  0  0  0  0  0
   15.4586   -7.8733   19.2824 C   0  0  0  0  0  0  0  0  0  0  0  0
   11.7114   -6.7997   17.7286 O   0  0  0  0  0  0  0  0  0  0  0  0
   10.6198   -7.7067   17.6526 C   0  0  0  0  0  0  0  0  0  0  0  0
   12.1749   -6.4548   20.3969 O   0  0  0  0  0  0  0  0  0  0  0  0
   12.0476   -5.0889   20.7651 C   0  0  0  0  0  0  0  0  0  0  0  0
   14.7588   -7.1881   21.5040 O   0  0  0  0  0  0  0  0  0  0  0  0
   15.9597   -6.5988   21.9854 C   0  0  0  0  0  0  0  0  0  0  0  0
   17.5297  -10.7215   14.5018 C   0  0  0  0  0  0  0  0  0  0  0  0
   18.1581   -9.3770   11.3414 N   0  0  0  0  0  0  0  0  0  0  0  0
   18.3272  -10.7966   11.6239 C   0  0  0  0  0  0  0  0  0  0  0  0
   17.0360  -11.3454   12.2382 C   0  0  0  0  0  0  0  0  0  0  0  0
   16.5874  -10.5586   13.3969 N   0  0  0  0  0  0  0  0  0  0  0  0
   16.4416   -9.1342   13.0537 C   0  0  0  0  0  0  0  0  0  0  0  0
   17.7220   -8.5441   12.4559 C   0  0  0  0  0  0  0  0  0  0  0  0
   17.1895   -9.0568    9.0596 C   0  0  0  0  0  0  0  0  0  0  0  0
   17.3036   -8.5043    7.7722 C   0  0  0  0  0  0  0  0  0  0  0  0
   18.4285   -7.7629    7.4104 C   0  0  0  0  0  0  0  0  0  0  0  0
   19.4568   -7.5669    8.3301 C   0  0  0  0  0  0  0  0  0  0  0  0
   19.3560   -8.1058    9.6133 C   0  0  0  0  0  0  0  0  0  0  0  0
   18.2260   -8.8462   10.0016 C   0  0  0  0  0  0  0  0  0  0  0  0
   15.8890  -11.1655    8.9627 C   0  0  0  0  0  0  0  0  0  0  0  0
   16.0707   -9.8257    9.4016 O   0  0  0  0  0  0  0  0  0  0  0  0
 31 32  1  0  0  0
 32 25  1  0  0  0
 25 26  2  0  0  0
 26 27  1  0  0  0
 27 28  2  0  0  0
 28 29  1  0  0  0
 29 30  2  0  0  0
 30 19  1  0  0  0
 30 25  1  0  0  0
 19 20  1  0  0  0
 20 21  1  0  0  0
 21 22  1  0  0  0
 22 18  1  0  0  0
 22 23  1  0  0  0
 18  1  1  0  0  0
  1  2  2  0  0  0
  2  3  1  0  0  0
  3  4  1  0  0  0
  4  6  1  0  0  0
  4  5  2  0  0  0
  6  7  2  0  0  0
  7  8  1  0  0  0
  8 12  1  0  0  0
  8  9  2  0  0  0
 12 13  1  0  0  0
  9 14  1  0  0  0
  9 10  1  0  0  0
 14 15  1  0  0  0
 10 16  1  0  0  0
 10 11  2  0  0  0
 16 17  1  0  0  0
 11  6  1  0  0  0
  5  1  1  0  0  0
 23 24  1  0  0  0
 24 19  1  0  0  0
M  END
>  <minimizedAffinity>
-4.15497

>  <minimizedRMSD>
1.86112

$$$$
CHEMBL4589569 PubChem-135335223


 31 34  0  0  0  0  0  0  0  0999 V2000
   16.8910   -9.5802   14.1842 C   0  0  0  0  0  0  0  0  0  0  0  0
   16.0381   -8.5848   14.7062 C   0  0  0  0  0  0  0  0  0  0  0  0
   15.8604   -8.5351   16.0857 C   0  0  0  0  0  0  0  0  0  0  0  0
   15.0884   -7.6576   16.7487 N   0  0  0  0  0  0  0  0  0  0  0  0
   15.2521   -8.0217   18.0460 C   0  0  0  0  0  0  0  0  0  0  0  0
   16.1173   -9.1101   18.1501 C   0  0  0  0  0  0  0  0  0  0  0  0
   16.4798   -9.4053   16.8945 N   0  0  0  0  0  0  0  0  0  0  0  0
   17.3087  -10.3805   16.4516 C   0  0  0  0  0  0  0  0  0  0  0  0
   17.5273  -10.4810   15.0706 C   0  0  0  0  0  0  0  0  0  0  0  0
   14.5957   -7.3476   19.1916 C   0  0  0  0  0  0  0  0  0  0  0  0
   15.2966   -7.2425   20.4022 C   0  0  0  0  0  0  0  0  0  0  0  0
   14.7291   -6.6187   21.5140 C   0  0  0  0  0  0  0  0  0  0  0  0
   13.4380   -6.0833   21.4350 C   0  0  0  0  0  0  0  0  0  0  0  0
   12.7295   -6.1833   20.2296 C   0  0  0  0  0  0  0  0  0  0  0  0
   13.2918   -6.8092   19.1050 C   0  0  0  0  0  0  0  0  0  0  0  0
   15.6565   -6.5189   22.9999 Cl  0  0  0  0  0  0  0  0  0  0  0  0
   12.5676   -6.8989   17.9098 O   0  0  0  0  0  0  0  0  0  0  0  0
   11.1945   -7.2632   17.8628 C   0  0  0  0  0  0  0  0  0  0  0  0
   12.8783   -5.4598   22.5558 O   0  0  0  0  0  0  0  0  0  0  0  0
   11.6778   -4.7018   22.4951 C   0  0  0  0  0  0  0  0  0  0  0  0
   18.3984   -8.9675   10.3127 C   0  0  0  0  0  0  0  0  0  0  0  0
   19.1074   -9.8275   11.3672 C   0  0  0  0  0  0  0  0  0  0  0  0
   18.0986  -10.6030   12.2123 C   0  0  0  0  0  0  0  0  0  0  0  0
   17.1125   -9.6775   12.7651 N   0  0  0  0  0  0  0  0  0  0  0  0
   16.3779   -8.8367   11.8224 C   0  0  0  0  0  0  0  0  0  0  0  0
   17.3654   -8.0446   10.9662 C   0  0  0  0  0  0  0  0  0  0  0  0
   16.8919  -10.2715    6.9837 C   0  0  0  0  0  0  0  0  0  0  0  0
   17.5219   -9.3527    7.9668 C   0  0  0  0  0  0  0  0  0  0  0  0
   17.8352   -8.1841    7.6162 O   0  0  0  0  0  0  0  0  0  0  0  0
   17.7615   -9.8032    9.3010 N   0  0  0  0  0  0  0  0  0  0  0  0
   17.4853  -10.7153    9.5479 H   0  0  0  0  0  0  0  0  0  0  0  0
 27 28  1  0  0  0
 28 29  2  0  0  0
 28 30  1  0  0  0
 30 21  1  0  0  0
 21 22  1  0  0  0
 22 23  1  0  0  0
 23 24  1  0  0  0
 24 25  1  0  0  0
 25 26  1  0  0  0
 24  1  1  0  0  0
  1  2  2  0  0  0
  2  3  1  0  0  0
  3  4  2  0  0  0
  4  5  1  0  0  0
  5  6  2  0  0  0
  6  7  1  0  0  0
  7  8  1  0  0  0
  8  9  2  0  0  0
  5 10  1  0  0  0
 10 11  2  0  0  0
 11 12  1  0  0  0
 12 13  2  0  0  0
 13 14  1  0  0  0
 14 15  2  0  0  0
 15 17  1  0  0  0
 17 18  1  0  0  0
 13 19  1  0  0  0
 19 20  1  0  0  0
 12 16  1  0  0  0
 26 21  1  0  0  0
  9  1  1  0  0  0
  7  3  1  0  0  0
 15 10  1  0  0  0
 30 31  1  0  0  0
M  END
>  <minimizedAffinity>
-4.13745

>  <minimizedRMSD>
1.94563

$$$$
CHEMBL4525679 PubChem-135335124


 35 39  0  0  0  0  0  0  0  0999 V2000
   17.2732   -9.5860   13.9475 C   0  0  0  0  0  0  0  0  0  0  0  0
   16.1954   -8.7791   14.3716 C   0  0  0  0  0  0  0  0  0  0  0  0
   15.9881   -8.6311   15.7401 C   0  0  0  0  0  0  0  0  0  0  0  0
   15.0152   -7.9041   16.3150 N   0  0  0  0  0  0  0  0  0  0  0  0
   15.2403   -8.0802   17.6426 C   0  0  0  0  0  0  0  0  0  0  0  0
   16.3423   -8.9082   17.8503 C   0  0  0  0  0  0  0  0  0  0  0  0
   16.7868   -9.2352   16.6295 N   0  0  0  0  0  0  0  0  0  0  0  0
   17.8352  -10.0196   16.2838 C   0  0  0  0  0  0  0  0  0  0  0  0
   18.0946  -10.2066   14.9190 C   0  0  0  0  0  0  0  0  0  0  0  0
   14.4005   -7.4557   18.6926 C   0  0  0  0  0  0  0  0  0  0  0  0
   13.0298   -7.3055   18.4386 C   0  0  0  0  0  0  0  0  0  0  0  0
   12.1786   -6.7264   19.3806 C   0  0  0  0  0  0  0  0  0  0  0  0
   12.6877   -6.2823   20.6065 C   0  0  0  0  0  0  0  0  0  0  0  0
   14.0566   -6.4274   20.8706 C   0  0  0  0  0  0  0  0  0  0  0  0
   14.9220   -7.0090   19.9293 C   0  0  0  0  0  0  0  0  0  0  0  0
   10.4729   -6.5671   19.0023 Cl  0  0  0  0  0  0  0  0  0  0  0  0
   16.2862   -7.1440   20.2145 O   0  0  0  0  0  0  0  0  0  0  0  0
   16.8909   -6.5996   21.3799 C   0  0  0  0  0  0  0  0  0  0  0  0
   11.8255   -5.7029   21.5442 O   0  0  0  0  0  0  0  0  0  0  0  0
   12.2179   -5.4251   22.8814 C   0  0  0  0  0  0  0  0  0  0  0  0
   17.5487   -9.3547    9.7917 N   0  0  0  0  0  0  0  0  0  0  0  0
   18.8444   -9.5286   10.4492 C   0  0  0  0  0  0  0  0  0  0  0  0
   18.7310   -9.1741   11.9312 C   0  0  0  0  0  0  0  0  0  0  0  0
   17.5365   -9.7724   12.5430 N   0  0  0  0  0  0  0  0  0  0  0  0
   16.6385  -10.5954   11.7285 C   0  0  0  0  0  0  0  0  0  0  0  0
   16.3303   -9.8878   10.4105 C   0  0  0  0  0  0  0  0  0  0  0  0
   18.5146   -8.0516    6.4931 C   0  0  0  0  0  0  0  0  0  0  0  0
   17.3460   -7.4908    6.0834 N   0  0  0  0  0  0  0  0  0  0  0  0
   16.2491   -7.5385    6.8793 C   0  0  0  0  0  0  0  0  0  0  0  0
   16.3149   -8.1473    8.0893 N   0  0  0  0  0  0  0  0  0  0  0  0
   17.4776   -8.7124    8.5101 C   0  0  0  0  0  0  0  0  0  0  0  0
   18.5739   -8.6605    7.7073 N   0  0  0  0  0  0  0  0  0  0  0  0
   19.6794   -8.6406    4.3464 C   0  0  0  0  0  0  0  0  0  0  0  0
   19.6757   -8.0013    5.6519 N   0  0  0  0  0  0  0  0  0  0  0  0
   20.8791   -7.3092    6.0832 C   0  0  0  0  0  0  0  0  0  0  0  0
 33 34  1  0  0  0
 34 35  1  0  0  0
 34 27  1  0  0  0
 27 28  2  0  0  0
 28 29  1  0  0  0
 29 30  2  0  0  0
 30 31  1  0  0  0
 31 32  2  0  0  0
 31 21  1  0  0  0
 21 22  1  0  0  0
 22 23  1  0  0  0
 23 24  1  0  0  0
 24 25  1  0  0  0
 25 26  1  0  0  0
 24  1  1  0  0  0
  1  2  2  0  0  0
  2  3  1  0  0  0
  3  4  2  0  0  0
  4  5  1  0  0  0
  5  6  2  0  0  0
  6  7  1  0  0  0
  7  8  1  0  0  0
  8  9  2  0  0  0
  5 10  1  0  0  0
 10 11  2  0  0  0
 11 12  1  0  0  0
 12 13  2  0  0  0
 13 14  1  0  0  0
 14 15  2  0  0  0
 15 17  1  0  0  0
 17 18  1  0  0  0
 13 19  1  0  0  0
 19 20  1  0  0  0
 12 16  1  0  0  0
 32 27  1  0  0  0
 26 21  1  0  0  0
  9  1  1  0  0  0
  7  3  1  0  0  0
 15 10  1  0  0  0
M  END
>  <minimizedAffinity>
-4.11835

>  <minimizedRMSD>
1.30847

$$$$
CHEMBL3702233 PubChem-58299922


 33 37  0  0  0  0  0  0  0  0999 V2000
   13.3323   -7.4959   18.7457 N   0  0  0  0  0  0  0  0  0  0  0  0
   13.9218   -6.9831   19.8559 C   0  0  0  0  0  0  0  0  0  0  0  0
   15.2708   -7.2707   19.8877 C   0  0  0  0  0  0  0  0  0  0  0  0
   16.0920   -6.8488   20.9267 C   0  0  0  0  0  0  0  0  0  0  0  0
   15.4779   -6.1093   21.9529 C   0  0  0  0  0  0  0  0  0  0  0  0
   14.1362   -5.8296   21.9098 N   0  0  0  0  0  0  0  0  0  0  0  0
   13.3368   -6.2482   20.8836 C   0  0  0  0  0  0  0  0  0  0  0  0
   15.5308   -7.9931   18.7474 C   0  0  0  0  0  0  0  0  0  0  0  0
   16.6816   -8.5558   18.2213 C   0  0  0  0  0  0  0  0  0  0  0  0
   16.5695   -9.2180   17.0326 N   0  0  0  0  0  0  0  0  0  0  0  0
   15.3694   -9.3296   16.3723 C   0  0  0  0  0  0  0  0  0  0  0  0
   14.2410   -8.7685   16.9032 N   0  0  0  0  0  0  0  0  0  0  0  0
   14.3375   -8.1090   18.0832 C   0  0  0  0  0  0  0  0  0  0  0  0
   11.9339   -7.4158   18.3227 C   0  0  0  0  0  0  0  0  0  0  0  0
   11.2082   -8.7106   18.6392 C   0  0  0  0  0  0  0  0  0  0  0  0
   11.4997   -4.9622   18.2270 C   0  0  0  0  0  0  0  0  0  0  0  0
   11.2256   -6.2453   18.9877 C   0  0  0  0  0  0  0  0  0  0  0  0
   15.2730  -10.0291   15.1241 N   0  0  0  0  0  0  0  0  0  0  0  0
   14.6010  -10.7471   15.0782 H   0  0  0  0  0  0  0  0  0  0  0  0
   16.0427   -9.8036   13.9346 C   0  0  0  0  0  0  0  0  0  0  0  0
   15.3986   -9.4608   12.7880 N   0  0  0  0  0  0  0  0  0  0  0  0
   16.0601   -9.2386   11.6504 N   0  0  0  0  0  0  0  0  0  0  0  0
   17.4156   -9.3451   11.5775 C   0  0  0  0  0  0  0  0  0  0  0  0
   18.1261   -9.6922   12.7308 C   0  0  0  0  0  0  0  0  0  0  0  0
   17.4346   -9.9236   13.9159 C   0  0  0  0  0  0  0  0  0  0  0  0
   18.0965   -9.0912   10.3375 N   0  0  0  0  0  0  0  0  0  0  0  0
   19.4464   -8.5274   10.3220 C   0  0  0  0  0  0  0  0  0  0  0  0
   19.5879   -7.5744    9.1378 C   0  0  0  0  0  0  0  0  0  0  0  0
   19.2165   -8.2577    7.9006 N   0  0  0  0  0  0  0  0  0  0  0  0
   17.7954   -8.5927    7.9668 C   0  0  0  0  0  0  0  0  0  0  0  0
   17.5493   -9.6045    9.0830 C   0  0  0  0  0  0  0  0  0  0  0  0
   17.3515   -9.1824    6.6450 C   0  0  0  0  0  0  0  0  0  0  0  0
   19.7670   -9.1104    7.7994 H   0  0  0  0  0  0  0  0  0  0  0  0
 16 17  1  0  0  0
 14 17  1  0  0  0
 14 15  1  0  0  0
 14  1  1  0  0  0
  1  2  1  0  0  0
  2  3  2  0  0  0
  3  4  1  0  0  0
  3  8  1  0  0  0
  4  5  2  0  0  0
  5  6  1  0  0  0
  6  7  2  0  0  0
  7  2  1  0  0  0
  8  9  2  0  0  0
  9 10  1  0  0  0
 10 11  2  0  0  0
 11 12  1  0  0  0
 11 18  1  0  0  0
 12 13  2  0  0  0
 13  1  1  0  0  0
 13  8  1  0  0  0
 18 20  1  0  0  0
 20 21  2  0  0  0
 21 22  1  0  0  0
 22 23  2  0  0  0
 23 24  1  0  0  0
 23 26  1  0  0  0
 24 25  2  0  0  0
 25 20  1  0  0  0
 26 27  1  0  0  0
 27 28  1  0  0  0
 28 29  1  0  0  0
 29 30  1  0  0  0
 30 31  1  0  0  0
 30 32  1  0  0  0
 31 26  1  0  0  0
 18 19  1  0  0  0
 29 33  1  0  0  0
M  END
>  <minimizedAffinity>
-4.10516

>  <minimizedRMSD>
1.70528

$$$$
CHEMBL4461127 PubChem-153534140


 34 39  0  0  0  0  0  0  0  0999 V2000
   15.3347   -8.8650   17.0835 C   0  0  0  0  0  0  0  0  0  0  0  0
   14.3426   -8.3383   17.8506 N   0  0  0  0  0  0  0  0  0  0  0  0
   14.6144   -7.6668   19.0037 C   0  0  0  0  0  0  0  0  0  0  0  0
   15.9603   -7.5202   19.4025 C   0  0  0  0  0  0  0  0  0  0  0  0
   16.9668   -8.0649   18.6072 C   0  0  0  0  0  0  0  0  0  0  0  0
   16.6344   -8.7242   17.4675 N   0  0  0  0  0  0  0  0  0  0  0  0
   16.2140   -6.8505   20.5510 N   0  0  0  0  0  0  0  0  0  0  0  0
   15.2496   -6.3308   21.3096 C   0  0  0  0  0  0  0  0  0  0  0  0
   13.9101   -6.4576   20.9447 C   0  0  0  0  0  0  0  0  0  0  0  0
   13.0055   -5.9610   21.6713 O   0  0  0  0  0  0  0  0  0  0  0  0
   13.6025   -7.1311   19.7837 N   0  0  0  0  0  0  0  0  0  0  0  0
   15.7485   -5.7161   22.3944 N   0  0  0  0  0  0  0  0  0  0  0  0
   17.0692   -5.8549   22.3135 N   0  0  0  0  0  0  0  0  0  0  0  0
   17.3588   -6.5488   21.1864 C   0  0  0  0  0  0  0  0  0  0  0  0
   12.1846   -7.2556   19.4117 C   0  0  0  0  0  0  0  0  0  0  0  0
   11.8672   -6.5509   18.1021 C   0  0  0  0  0  0  0  0  0  0  0  0
   11.0845   -7.5431   17.2607 C   0  0  0  0  0  0  0  0  0  0  0  0
   10.7023   -8.6845   18.1817 C   0  0  0  0  0  0  0  0  0  0  0  0
   11.7541   -8.7019   19.2662 C   0  0  0  0  0  0  0  0  0  0  0  0
   14.9862   -9.5614   15.8795 N   0  0  0  0  0  0  0  0  0  0  0  0
   14.1904  -10.1392   15.9253 H   0  0  0  0  0  0  0  0  0  0  0  0
   14.9031   -9.3644   13.4526 C   0  0  0  0  0  0  0  0  0  0  0  0
   15.5242   -9.3128   12.2018 C   0  0  0  0  0  0  0  0  0  0  0  0
   16.9209   -9.4100   12.0920 C   0  0  0  0  0  0  0  0  0  0  0  0
   17.6810   -9.5582   13.2636 C   0  0  0  0  0  0  0  0  0  0  0  0
   17.0583   -9.6095   14.5131 C   0  0  0  0  0  0  0  0  0  0  0  0
   15.6637   -9.5130   14.6158 C   0  0  0  0  0  0  0  0  0  0  0  0
   17.5620   -9.3538   10.8027 N   0  0  0  0  0  0  0  0  0  0  0  0
   16.7962   -9.6451    9.5834 C   0  0  0  0  0  0  0  0  0  0  0  0
   17.6618   -9.5141    8.3319 C   0  0  0  0  0  0  0  0  0  0  0  0
   18.4158   -8.1874    8.3639 C   0  0  0  0  0  0  0  0  0  0  0  0
   19.2630   -8.0067    9.6325 C   0  0  0  0  0  0  0  0  0  0  0  0
   18.9959   -9.0680   10.7036 C   0  0  0  0  0  0  0  0  0  0  0  0
   19.2981   -8.0683    7.1393 C   0  0  0  0  0  0  0  0  0  0  0  0
 22 23  2  0  0  0
 23 24  1  0  0  0
 24 25  2  0  0  0
 25 26  1  0  0  0
 26 27  2  0  0  0
 27 20  1  0  0  0
 20  1  1  0  0  0
  1  2  2  0  0  0
  2  3  1  0  0  0
  3  4  2  0  0  0
  4  5  1  0  0  0
  5  6  2  0  0  0
  4  7  1  0  0  0
  7  8  1  0  0  0
  8  9  1  0  0  0
  9 10  2  0  0  0
  9 11  1  0  0  0
 11 15  1  0  0  0
 15 16  1  0  0  0
 16 17  1  0  0  0
 17 18  1  0  0  0
 18 19  1  0  0  0
  8 12  2  0  0  0
 12 13  1  0  0  0
 13 14  2  0  0  0
 24 28  1  0  0  0
 28 29  1  0  0  0
 29 30  1  0  0  0
 30 31  1  0  0  0
 31 32  1  0  0  0
 32 33  1  0  0  0
 31 34  1  0  0  0
 27 22  1  0  0  0
  6  1  1  0  0  0
 14  7  1  0  0  0
 33 28  1  0  0  0
 11  3  1  0  0  0
 19 15  1  0  0  0
 20 21  1  0  0  0
M  END
>  <minimizedAffinity>
-4.10179

>  <minimizedRMSD>
1.97937

$$$$
CHEMBL1668706 PubChem-51042360


 34 37  0  0  0  0  0  0  0  0999 V2000
   16.1435   -7.8022   17.5537 N   0  0  0  0  0  0  0  0  0  0  0  0
   16.3890   -9.1814   17.2592 C   0  0  0  0  0  0  0  0  0  0  0  0
   16.1717  -10.0726   18.1222 O   0  0  0  0  0  0  0  0  0  0  0  0
   16.4749   -7.1253   16.9203 H   0  0  0  0  0  0  0  0  0  0  0  0
   12.2035   -5.6996   22.1464 C   0  0  0  0  0  0  0  0  0  0  0  0
   13.5730   -6.0130   22.1468 C   0  0  0  0  0  0  0  0  0  0  0  0
   14.1975   -6.4590   20.9809 C   0  0  0  0  0  0  0  0  0  0  0  0
   15.5207   -6.7482   20.9865 N   0  0  0  0  0  0  0  0  0  0  0  0
   16.1514   -7.1843   19.8653 C   0  0  0  0  0  0  0  0  0  0  0  0
   17.6103   -7.4893   19.9406 C   0  0  0  0  0  0  0  0  0  0  0  0
   15.4534   -7.3595   18.7005 N   0  0  0  0  0  0  0  0  0  0  0  0
   14.1203   -7.0404   18.6431 C   0  0  0  0  0  0  0  0  0  0  0  0
   13.4918   -7.1190   17.5509 O   0  0  0  0  0  0  0  0  0  0  0  0
   13.4577   -6.5969   19.7957 C   0  0  0  0  0  0  0  0  0  0  0  0
   12.0926   -6.2825   19.7919 C   0  0  0  0  0  0  0  0  0  0  0  0
   11.4596   -5.8351   20.9634 C   0  0  0  0  0  0  0  0  0  0  0  0
   12.2725   -4.7896   24.4480 C   0  0  0  0  0  0  0  0  0  0  0  0
   11.5632   -5.2513   23.3067 O   0  0  0  0  0  0  0  0  0  0  0  0
   10.0966   -5.5197   20.9740 O   0  0  0  0  0  0  0  0  0  0  0  0
    9.2494   -5.7273   19.8519 C   0  0  0  0  0  0  0  0  0  0  0  0
   16.9154   -9.5641   15.9225 C   0  0  0  0  0  0  0  0  0  0  0  0
   15.7769   -9.6229   14.9201 C   0  0  0  0  0  0  0  0  0  0  0  0
   16.2616  -10.1454   13.6541 N   0  0  0  0  0  0  0  0  0  0  0  0
   15.4265   -9.5654   12.6001 C   0  0  0  0  0  0  0  0  0  0  0  0
   15.8916  -10.0742   11.2388 C   0  0  0  0  0  0  0  0  0  0  0  0
   17.3119   -9.7681   11.0789 N   0  0  0  0  0  0  0  0  0  0  0  0
   18.2095  -10.1483   12.1684 C   0  0  0  0  0  0  0  0  0  0  0  0
   17.6285   -9.6506   13.4906 C   0  0  0  0  0  0  0  0  0  0  0  0
   17.8027   -9.0872    9.9092 C   0  0  0  0  0  0  0  0  0  0  0  0
   18.9734   -8.3127    9.9712 C   0  0  0  0  0  0  0  0  0  0  0  0
   19.4519   -7.6551    8.8342 C   0  0  0  0  0  0  0  0  0  0  0  0
   18.7652   -7.7649    7.6226 C   0  0  0  0  0  0  0  0  0  0  0  0
   17.6003   -8.5324    7.5474 C   0  0  0  0  0  0  0  0  0  0  0  0
   17.1217   -9.1901    8.6843 C   0  0  0  0  0  0  0  0  0  0  0  0
 17 18  1  0  0  0
 18  5  1  0  0  0
  5  6  2  0  0  0
  6  7  1  0  0  0
  7  8  1  0  0  0
  8  9  2  0  0  0
  9 10  1  0  0  0
  9 11  1  0  0  0
 11  1  1  0  0  0
 11 12  1  0  0  0
  1  2  1  0  0  0
  2  3  2  0  0  0
  2 21  1  0  0  0
 21 22  1  0  0  0
 22 23  1  0  0  0
 23 24  1  0  0  0
 24 25  1  0  0  0
 25 26  1  0  0  0
 26 29  1  0  0  0
 26 27  1  0  0  0
 29 30  2  0  0  0
 30 31  1  0  0  0
 31 32  2  0  0  0
 32 33  1  0  0  0
 33 34  2  0  0  0
 34 29  1  0  0  0
 27 28  1  0  0  0
 28 23  1  0  0  0
 12 13  2  0  0  0
 12 14  1  0  0  0
 14 15  1  0  0  0
 14  7  2  0  0  0
 15 16  2  0  0  0
 16 19  1  0  0  0
 16  5  1  0  0  0
 19 20  1  0  0  0
  1  4  1  0  0  0
M  END
>  <minimizedAffinity>
-4.09530

>  <minimizedRMSD>
1.81886

$$$$
CHEMBL3976229 PubChem-118970893


 33 36  0  0  0  0  0  0  0  0999 V2000
   16.2618   -9.9662   11.4158 C   0  0  0  0  0  0  0  0  0  0  0  0
   15.1503  -10.3278   10.9428 O   0  0  0  0  0  0  0  0  0  0  0  0
   16.4683  -10.0142   12.8389 N   0  0  0  0  0  0  0  0  0  0  0  0
   17.8025  -10.1882   13.4039 C   0  0  0  0  0  0  0  0  0  0  0  0
   18.0150   -9.2116   14.5588 C   0  0  0  0  0  0  0  0  0  0  0  0
   16.8131   -9.1025   15.4555 C   0  0  0  0  0  0  0  0  0  0  0  0
   16.9508   -8.5037   16.6674 N   0  0  0  0  0  0  0  0  0  0  0  0
   15.8931   -8.3534   17.5077 C   0  0  0  0  0  0  0  0  0  0  0  0
   14.6655   -8.8047   17.1314 N   0  0  0  0  0  0  0  0  0  0  0  0
   14.4749   -9.3999   15.9261 C   0  0  0  0  0  0  0  0  0  0  0  0
   15.5451   -9.5553   15.0488 C   0  0  0  0  0  0  0  0  0  0  0  0
   15.3297  -10.2322   13.7278 C   0  0  0  0  0  0  0  0  0  0  0  0
   20.3729   -7.8184    9.4993 C   0  0  0  0  0  0  0  0  0  0  0  0
   19.0777   -8.5294    9.6603 C   0  0  0  0  0  0  0  0  0  0  0  0
   18.3458   -8.9868    8.6293 N   0  0  0  0  0  0  0  0  0  0  0  0
   17.2707   -9.5536    9.1440 N   0  0  0  0  0  0  0  0  0  0  0  0
   17.3114   -9.4701   10.4919 C   0  0  0  0  0  0  0  0  0  0  0  0
   18.4671   -8.8044   10.8718 C   0  0  0  0  0  0  0  0  0  0  0  0
   16.2428  -10.1818    8.3300 C   0  0  0  0  0  0  0  0  0  0  0  0
   16.0962   -7.7192   18.7777 N   0  0  0  0  0  0  0  0  0  0  0  0
   17.0317   -7.5765   19.0493 H   0  0  0  0  0  0  0  0  0  0  0  0
   15.0915   -7.2692   19.6975 C   0  0  0  0  0  0  0  0  0  0  0  0
   13.7962   -6.9476   19.2848 C   0  0  0  0  0  0  0  0  0  0  0  0
   12.8342   -6.5102   20.2059 C   0  0  0  0  0  0  0  0  0  0  0  0
   13.1668   -6.3897   21.5659 C   0  0  0  0  0  0  0  0  0  0  0  0
   14.4800   -6.7144   21.9920 C   0  0  0  0  0  0  0  0  0  0  0  0
   15.4222   -7.1500   21.0461 C   0  0  0  0  0  0  0  0  0  0  0  0
   14.8412   -6.6045   23.3399 O   0  0  0  0  0  0  0  0  0  0  0  0
   16.0740   -7.0909   23.8545 C   0  0  0  0  0  0  0  0  0  0  0  0
   12.1589   -5.9461   22.4391 O   0  0  0  0  0  0  0  0  0  0  0  0
   11.9789   -4.6023   22.8621 C   0  0  0  0  0  0  0  0  0  0  0  0
   11.5368   -6.1883   19.7910 O   0  0  0  0  0  0  0  0  0  0  0  0
   10.8571   -6.8998   18.7652 C   0  0  0  0  0  0  0  0  0  0  0  0
 13 14  1  0  0  0
 14 15  2  0  0  0
 15 16  1  0  0  0
 16 17  1  0  0  0
 17 18  2  0  0  0
 17  1  1  0  0  0
  1  2  2  0  0  0
  1  3  1  0  0  0
  3  4  1  0  0  0
  4  5  1  0  0  0
  5  6  1  0  0  0
  6  7  2  0  0  0
  7  8  1  0  0  0
  8  9  2  0  0  0
  9 10  1  0  0  0
 10 11  2  0  0  0
 11 12  1  0  0  0
  8 20  1  0  0  0
 20 22  1  0  0  0
 22 23  2  0  0  0
 23 24  1  0  0  0
 24 25  2  0  0  0
 25 26  1  0  0  0
 26 27  2  0  0  0
 26 28  1  0  0  0
 28 29  1  0  0  0
 25 30  1  0  0  0
 30 31  1  0  0  0
 24 32  1  0  0  0
 32 33  1  0  0  0
 16 19  1  0  0  0
 18 14  1  0  0  0
 12  3  1  0  0  0
 11  6  1  0  0  0
 27 22  1  0  0  0
 20 21  1  0  0  0
M  END
>  <minimizedAffinity>
-4.08785

>  <minimizedRMSD>
1.44318

$$$$
CHEMBL5174133


 29 31  0  0  0  0  0  0  0  0999 V2000
   16.8785   -9.7736   15.2424 C   0  0  0  0  0  0  0  0  0  0  0  0
   16.1927   -8.9477   16.0469 C   0  0  0  0  0  0  0  0  0  0  0  0
   16.1919   -9.1673   17.5057 C   0  0  0  0  0  0  0  0  0  0  0  0
   16.8286  -10.1267   18.0234 O   0  0  0  0  0  0  0  0  0  0  0  0
   15.4084   -8.2352   18.3362 C   0  0  0  0  0  0  0  0  0  0  0  0
   15.4067   -8.3458   19.6703 C   0  0  0  0  0  0  0  0  0  0  0  0
   14.7527   -7.0826   17.6176 C   0  0  0  0  0  0  0  0  0  0  0  0
   14.3111   -7.4908   16.3424 O   0  0  0  0  0  0  0  0  0  0  0  0
   15.4581   -7.7249   15.5561 C   0  0  0  0  0  0  0  0  0  0  0  0
   18.1720  -10.4531   11.7566 C   0  0  0  0  0  0  0  0  0  0  0  0
   18.0212  -10.4939   13.1530 C   0  0  0  0  0  0  0  0  0  0  0  0
   17.0248   -9.7121   13.7687 C   0  0  0  0  0  0  0  0  0  0  0  0
   16.1971   -8.9079   12.9709 C   0  0  0  0  0  0  0  0  0  0  0  0
   16.3543   -8.8741   11.5847 C   0  0  0  0  0  0  0  0  0  0  0  0
   17.3461   -9.6487   10.9690 C   0  0  0  0  0  0  0  0  0  0  0  0
   17.5315   -9.6386    9.5838 O   0  0  0  0  0  0  0  0  0  0  0  0
   16.4894   -9.3191    8.6720 C   0  0  0  0  0  0  0  0  0  0  0  0
   18.8507  -11.3027   13.9404 O   0  0  0  0  0  0  0  0  0  0  0  0
   18.5472  -12.6586   14.2390 C   0  0  0  0  0  0  0  0  0  0  0  0
   14.6586   -7.4787   20.5990 C   0  0  0  0  0  0  0  0  0  0  0  0
   13.2488   -7.4777   20.6699 C   0  0  0  0  0  0  0  0  0  0  0  0
   12.6080   -6.6317   21.5907 C   0  0  0  0  0  0  0  0  0  0  0  0
   13.3470   -5.8153   22.4502 C   0  0  0  0  0  0  0  0  0  0  0  0
   14.7473   -5.8533   22.3989 C   0  0  0  0  0  0  0  0  0  0  0  0
   15.3951   -6.6845   21.4836 C   0  0  0  0  0  0  0  0  0  0  0  0
   12.6676   -4.9864   23.3472 O   0  0  0  0  0  0  0  0  0  0  0  0
   13.3235   -4.2946   24.4010 C   0  0  0  0  0  0  0  0  0  0  0  0
   12.5052   -8.3349   19.8494 O   0  0  0  0  0  0  0  0  0  0  0  0
   11.5109   -7.8695   18.9469 C   0  0  0  0  0  0  0  0  0  0  0  0
 10 11  2  0  0  0
 11 12  1  0  0  0
 12 13  2  0  0  0
 13 14  1  0  0  0
 14 15  2  0  0  0
 15 16  1  0  0  0
 16 17  1  0  0  0
 12  1  1  0  0  0
  1  2  2  0  0  0
  2  3  1  0  0  0
  3  4  2  0  0  0
  3  5  1  0  0  0
  5  6  2  0  0  0
  6 20  1  0  0  0
 20 21  2  0  0  0
 21 22  1  0  0  0
 22 23  2  0  0  0
 23 24  1  0  0  0
 24 25  2  0  0  0
 23 26  1  0  0  0
 26 27  1  0  0  0
 21 28  1  0  0  0
 28 29  1  0  0  0
  5  7  1  0  0  0
  7  8  1  0  0  0
  8  9  1  0  0  0
 11 18  1  0  0  0
 18 19  1  0  0  0
 15 10  1  0  0  0
  9  2  1  0  0  0
 25 20  1  0  0  0
M  END
>  <minimizedAffinity>
-4.08660

>  <minimizedRMSD>
1.43560

$$$$
CHEMBL3653886 PubChem-89886508


 35 39  0  0  0  0  0  0  0  0999 V2000
   15.3500   -7.9836   16.7729 C   0  0  0  0  0  0  0  0  0  0  0  0
   14.7760   -7.1712   15.8417 N   0  0  0  0  0  0  0  0  0  0  0  0
   15.0362   -7.2788   14.5156 C   0  0  0  0  0  0  0  0  0  0  0  0
   15.9191   -8.2476   14.0543 C   0  0  0  0  0  0  0  0  0  0  0  0
   16.5417   -9.1206   14.9522 C   0  0  0  0  0  0  0  0  0  0  0  0
   17.4315  -10.1348   14.5006 C   0  0  0  0  0  0  0  0  0  0  0  0
   17.9728  -11.0229   15.4426 C   0  0  0  0  0  0  0  0  0  0  0  0
   17.6652  -10.9172   16.7955 C   0  0  0  0  0  0  0  0  0  0  0  0
   16.8082   -9.9148   17.2372 C   0  0  0  0  0  0  0  0  0  0  0  0
   16.2428   -9.0004   16.3381 C   0  0  0  0  0  0  0  0  0  0  0  0
   13.2769   -7.2156   19.8601 C   0  0  0  0  0  0  0  0  0  0  0  0
   13.6602   -7.4700   18.5340 C   0  0  0  0  0  0  0  0  0  0  0  0
   14.9895   -7.7567   18.1988 C   0  0  0  0  0  0  0  0  0  0  0  0
   15.9509   -7.7609   19.2163 C   0  0  0  0  0  0  0  0  0  0  0  0
   15.5872   -7.5100   20.5391 C   0  0  0  0  0  0  0  0  0  0  0  0
   14.2553   -7.2385   20.8837 C   0  0  0  0  0  0  0  0  0  0  0  0
   13.9384   -6.9831   22.3108 C   0  0  0  0  0  0  0  0  0  0  0  0
   12.9782   -6.2390   22.6423 O   0  0  0  0  0  0  0  0  0  0  0  0
   14.7248   -7.5844   23.3364 N   0  0  0  0  0  0  0  0  0  0  0  0
   15.4799   -8.1695   23.0984 H   0  0  0  0  0  0  0  0  0  0  0  0
   14.5128   -7.4145   24.2827 H   0  0  0  0  0  0  0  0  0  0  0  0
   11.1784   -5.8085   19.5913 C   0  0  0  0  0  0  0  0  0  0  0  0
   11.9047   -6.9329   20.1609 N   0  0  0  0  0  0  0  0  0  0  0  0
   11.4299   -7.5292   20.7839 H   0  0  0  0  0  0  0  0  0  0  0  0
   17.7995  -10.2995   13.1119 N   0  0  0  0  0  0  0  0  0  0  0  0
   18.5836  -11.2831   12.6197 C   0  0  0  0  0  0  0  0  0  0  0  0
   18.7823  -11.1540   11.2927 N   0  0  0  0  0  0  0  0  0  0  0  0
   18.0980  -10.0426   10.9620 C   0  0  0  0  0  0  0  0  0  0  0  0
   17.4913   -9.4996   12.0731 C   0  0  0  0  0  0  0  0  0  0  0  0
   18.0278   -9.5006    9.6004 C   0  0  0  0  0  0  0  0  0  0  0  0
   17.2876  -10.0158    8.5515 C   0  0  0  0  0  0  0  0  0  0  0  0
   17.4977   -9.2275    7.4794 N   0  0  0  0  0  0  0  0  0  0  0  0
   18.3294   -8.2632    7.8359 N   0  0  0  0  0  0  0  0  0  0  0  0
   18.7865   -7.2200    6.9377 C   0  0  0  0  0  0  0  0  0  0  0  0
   18.6852   -8.3833    9.1253 C   0  0  0  0  0  0  0  0  0  0  0  0
 22 23  1  0  0  0
 23 11  1  0  0  0
 11 12  2  0  0  0
 12 13  1  0  0  0
 13 14  2  0  0  0
 14 15  1  0  0  0
 15 16  2  0  0  0
 16 17  1  0  0  0
 17 18  2  0  0  0
 17 19  1  0  0  0
 13  1  1  0  0  0
  1  2  2  0  0  0
  2  3  1  0  0  0
  3  4  2  0  0  0
  4  5  1  0  0  0
  5  6  2  0  0  0
  6  7  1  0  0  0
  7  8  2  0  0  0
  8  9  1  0  0  0
  9 10  2  0  0  0
  6 25  1  0  0  0
 25 26  1  0  0  0
 26 27  2  0  0  0
 27 28  1  0  0  0
 28 29  2  0  0  0
 28 30  1  0  0  0
 30 31  1  0  0  0
 31 32  2  0  0  0
 32 33  1  0  0  0
 33 34  1  0  0  0
 33 35  1  0  0  0
 16 11  1  0  0  0
 10  1  1  0  0  0
 29 25  1  0  0  0
 35 30  2  0  0  0
 10  5  1  0  0  0
 23 24  1  0  0  0
 19 20  1  0  0  0
 19 21  1  0  0  0
M  END
>  <minimizedAffinity>
-4.04419

>  <minimizedRMSD>
0.78739

$$$$
CHEMBL3984043 PubChem-118022801 PubChem-159629918 PubChem-160223450


 34 38  0  0  0  0  0  0  0  0999 V2000
   16.0617   -9.3069   16.2610 C   0  0  0  0  0  0  0  0  0  0  0  0
   17.3148   -9.3242   16.7913 N   0  0  0  0  0  0  0  0  0  0  0  0
   17.5983   -8.6610   17.9415 C   0  0  0  0  0  0  0  0  0  0  0  0
   16.5984   -7.9471   18.5976 C   0  0  0  0  0  0  0  0  0  0  0  0
   15.3133   -7.9338   18.0450 C   0  0  0  0  0  0  0  0  0  0  0  0
   15.0766   -8.6129   16.8896 N   0  0  0  0  0  0  0  0  0  0  0  0
   14.2483   -7.2160   18.6824 N   0  0  0  0  0  0  0  0  0  0  0  0
   14.0499   -7.1140   20.0156 C   0  0  0  0  0  0  0  0  0  0  0  0
   12.9188   -6.3436   20.1922 C   0  0  0  0  0  0  0  0  0  0  0  0
   12.4944   -5.9999   18.9267 C   0  0  0  0  0  0  0  0  0  0  0  0
   13.3191   -6.5449   18.0169 N   0  0  0  0  0  0  0  0  0  0  0  0
   11.3275   -5.1413   18.5850 C   0  0  0  0  0  0  0  0  0  0  0  0
   12.3403   -5.9043   21.4954 C   0  0  0  0  0  0  0  0  0  0  0  0
   13.3608   -5.2480   22.2979 N   0  0  0  0  0  0  0  0  0  0  0  0
   12.7125   -4.1452   22.9858 C   0  0  0  0  0  0  0  0  0  0  0  0
   13.3195   -4.1101   24.3505 C   0  0  0  0  0  0  0  0  0  0  0  0
   14.1612   -5.3545   24.3479 C   0  0  0  0  0  0  0  0  0  0  0  0
   13.7554   -6.1351   23.2552 O   0  0  0  0  0  0  0  0  0  0  0  0
   14.1447   -2.9922   24.4674 O   0  0  0  0  0  0  0  0  0  0  0  0
   14.8068   -3.0035   23.7586 H   0  0  0  0  0  0  0  0  0  0  0  0
   15.7589   -9.9993   15.0424 N   0  0  0  0  0  0  0  0  0  0  0  0
   15.0179  -10.6464   15.0810 H   0  0  0  0  0  0  0  0  0  0  0  0
   16.8360   -9.6312    7.7688 C   0  0  0  0  0  0  0  0  0  0  0  0
   16.8795   -9.6650    9.2593 C   0  0  0  0  0  0  0  0  0  0  0  0
   15.7796   -9.8519   10.0909 C   0  0  0  0  0  0  0  0  0  0  0  0
   16.2764   -9.8124   11.3770 C   0  0  0  0  0  0  0  0  0  0  0  0
   17.6301   -9.6057   11.2840 C   0  0  0  0  0  0  0  0  0  0  0  0
   18.0067   -9.5150    9.9950 N   0  0  0  0  0  0  0  0  0  0  0  0
   19.3562   -9.3016    9.4936 C   0  0  0  0  0  0  0  0  0  0  0  0
   18.4352   -9.5161   12.4184 C   0  0  0  0  0  0  0  0  0  0  0  0
   17.8103   -9.6452   13.6710 C   0  0  0  0  0  0  0  0  0  0  0  0
   16.4126   -9.8568   13.7735 C   0  0  0  0  0  0  0  0  0  0  0  0
   15.6330   -9.9453   12.6049 C   0  0  0  0  0  0  0  0  0  0  0  0
   14.1090  -10.0929    9.6095 Cl  0  0  0  0  0  0  0  0  0  0  0  0
 23 24  1  0  0  0
 24 25  2  0  0  0
 25 26  1  0  0  0
 26 27  2  0  0  0
 27 28  1  0  0  0
 28 29  1  0  0  0
 27 30  1  0  0  0
 30 31  2  0  0  0
 31 32  1  0  0  0
 32 33  2  0  0  0
 32 21  1  0  0  0
 21  1  1  0  0  0
  1  2  2  0  0  0
  2  3  1  0  0  0
  3  4  2  0  0  0
  4  5  1  0  0  0
  5  6  2  0  0  0
  5  7  1  0  0  0
  7  8  1  0  0  0
  8  9  2  0  0  0
  9 10  1  0  0  0
 10 11  2  0  0  0
 10 12  1  0  0  0
  9 13  1  0  0  0
 13 14  1  0  0  0
 14 15  1  0  0  0
 15 16  1  0  0  0
 16 17  1  0  0  0
 17 18  1  0  0  0
 16 19  1  0  0  0
 25 34  1  0  0  0
 28 24  1  0  0  0
 33 26  1  0  0  0
  6  1  1  0  0  0
 11  7  1  0  0  0
 18 14  1  0  0  0
 21 22  1  0  0  0
 19 20  1  0  0  0
M  END
>  <minimizedAffinity>
-4.04128

>  <minimizedRMSD>
1.57966

$$$$
CHEMBL3126614 PubChem-76336362


 39 42  0  0  0  0  0  0  0  0999 V2000
   12.7067   -6.6723   20.0134 C   0  0  0  0  0  0  0  0  0  0  0  0
   13.4829   -7.1341   18.9453 C   0  0  0  0  0  0  0  0  0  0  0  0
   14.6841   -7.8076   19.1760 C   0  0  0  0  0  0  0  0  0  0  0  0
   15.1091   -8.0160   20.4902 C   0  0  0  0  0  0  0  0  0  0  0  0
   14.3454   -7.5709   21.5727 C   0  0  0  0  0  0  0  0  0  0  0  0
   14.9072   -7.8056   22.9325 C   0  0  0  0  0  0  0  0  0  0  0  0
   13.1159   -6.8980   21.3418 C   0  0  0  0  0  0  0  0  0  0  0  0
   15.4950   -8.2872   18.0464 C   0  0  0  0  0  0  0  0  0  0  0  0
   16.6446   -8.9776   18.1886 N   0  0  0  0  0  0  0  0  0  0  0  0
   17.0445   -9.2128   16.9765 O   0  0  0  0  0  0  0  0  0  0  0  0
   16.1932   -8.6987   16.1233 C   0  0  0  0  0  0  0  0  0  0  0  0
   15.1695   -8.0872   16.7512 N   0  0  0  0  0  0  0  0  0  0  0  0
   16.3392   -8.7815   14.6653 C   0  0  0  0  0  0  0  0  0  0  0  0
   15.6322   -7.9116   13.8313 C   0  0  0  0  0  0  0  0  0  0  0  0
   15.7883   -8.0105   12.4498 C   0  0  0  0  0  0  0  0  0  0  0  0
   16.6428   -8.9694   11.9009 C   0  0  0  0  0  0  0  0  0  0  0  0
   17.3403   -9.8330   12.7762 C   0  0  0  0  0  0  0  0  0  0  0  0
   18.2685  -10.8863   12.2726 C   0  0  0  0  0  0  0  0  0  0  0  0
   17.1685   -9.7123   14.1206 N   0  0  0  0  0  0  0  0  0  0  0  0
   16.7601   -9.0209   10.4033 C   0  0  0  0  0  0  0  0  0  0  0  0
   18.1903   -9.1805    9.9339 C   0  0  0  0  0  0  0  0  0  0  0  0
   18.0834   -9.9216    8.6218 C   0  0  0  0  0  0  0  0  0  0  0  0
   16.8531  -10.7989    8.7447 C   0  0  0  0  0  0  0  0  0  0  0  0
   15.9594  -10.1571    9.7917 C   0  0  0  0  0  0  0  0  0  0  0  0
   11.5610   -5.0391   18.5422 C   0  0  0  0  0  0  0  0  0  0  0  0
   11.4144   -5.9766   19.7266 C   0  0  0  0  0  0  0  0  0  0  0  0
   12.2777   -6.4258   22.3674 O   0  0  0  0  0  0  0  0  0  0  0  0
   12.7118   -5.9451   23.6321 C   0  0  0  0  0  0  0  0  0  0  0  0
   11.5163   -5.4944   24.4540 C   0  0  0  0  0  0  0  0  0  0  0  0
   11.9155   -5.3161   25.7774 O   0  0  0  0  0  0  0  0  0  0  0  0
   12.6076   -4.6377   25.8178 H   0  0  0  0  0  0  0  0  0  0  0  0
   10.9661   -4.1810   23.9204 C   0  0  0  0  0  0  0  0  0  0  0  0
   11.5442   -3.8830   22.6190 N   0  0  0  0  0  0  0  0  0  0  0  0
   12.8991   -3.4562   22.4751 C   0  0  0  0  0  0  0  0  0  0  0  0
   13.6375   -3.3118   23.4856 O   0  0  0  0  0  0  0  0  0  0  0  0
   10.9850   -3.9785   21.8144 H   0  0  0  0  0  0  0  0  0  0  0  0
   13.4359   -3.1525   21.1225 C   0  0  0  0  0  0  0  0  0  0  0  0
   14.4873   -2.2427   21.2289 O   0  0  0  0  0  0  0  0  0  0  0  0
   14.1663   -1.4240   21.6381 H   0  0  0  0  0  0  0  0  0  0  0  0
 25 26  1  0  0  0
 26  1  1  0  0  0
  1  2  2  0  0  0
  2  3  1  0  0  0
  3  8  1  0  0  0
  3  4  2  0  0  0
  8  9  2  0  0  0
  9 10  1  0  0  0
 10 11  1  0  0  0
 11 13  1  0  0  0
 11 12  2  0  0  0
 13 14  2  0  0  0
 14 15  1  0  0  0
 15 16  2  0  0  0
 16 20  1  0  0  0
 16 17  1  0  0  0
 20 21  1  0  0  0
 21 22  1  0  0  0
 22 23  1  0  0  0
 23 24  1  0  0  0
 24 20  1  0  0  0
 17 18  1  0  0  0
 17 19  2  0  0  0
 19 13  1  0  0  0
 12  8  1  0  0  0
  4  5  1  0  0  0
  5  6  1  0  0  0
  5  7  2  0  0  0
  7 27  1  0  0  0
  7  1  1  0  0  0
 27 28  1  0  0  0
 29 28  1  0  0  0
 29 30  1  0  0  0
 29 32  1  0  0  0
 32 33  1  0  0  0
 33 34  1  0  0  0
 34 35  2  0  0  0
 34 37  1  0  0  0
 37 38  1  0  0  0
 30 31  1  0  0  0
 33 36  1  0  0  0
 38 39  1  0  0  0
M  END
>  <minimizedAffinity>
-4.03058

>  <minimizedRMSD>
1.63430

$$$$
CHEMBL3657559 PubChem-71698468


 35 39  0  0  0  0  0  0  0  0999 V2000
   16.6366   -9.5966   15.9118 C   0  0  0  0  0  0  0  0  0  0  0  0
   17.8989   -9.4974   16.4103 N   0  0  0  0  0  0  0  0  0  0  0  0
   18.1514   -8.7932   17.5434 C   0  0  0  0  0  0  0  0  0  0  0  0
   17.1095   -8.1580   18.2147 C   0  0  0  0  0  0  0  0  0  0  0  0
   15.8150   -8.2652   17.6953 C   0  0  0  0  0  0  0  0  0  0  0  0
   15.6102   -8.9817   16.5566 N   0  0  0  0  0  0  0  0  0  0  0  0
   14.7078   -7.6295   18.3478 N   0  0  0  0  0  0  0  0  0  0  0  0
   14.5467   -7.4958   19.6829 C   0  0  0  0  0  0  0  0  0  0  0  0
   13.3557   -6.8247   19.8770 C   0  0  0  0  0  0  0  0  0  0  0  0
   12.8507   -6.5844   18.6165 C   0  0  0  0  0  0  0  0  0  0  0  0
   13.6912   -7.0842   17.6955 N   0  0  0  0  0  0  0  0  0  0  0  0
   11.5749   -5.8910   18.2889 C   0  0  0  0  0  0  0  0  0  0  0  0
   12.7500   -6.4280   21.2008 C   0  0  0  0  0  0  0  0  0  0  0  0
   13.5718   -5.5376   22.0451 N   0  0  0  0  0  0  0  0  0  0  0  0
   12.9869   -5.3624   23.3707 C   0  0  0  0  0  0  0  0  0  0  0  0
   12.7038   -3.8936   23.1395 C   0  0  0  0  0  0  0  0  0  0  0  0
   13.2921   -4.1331   21.7654 C   0  0  0  0  0  0  0  0  0  0  0  0
   13.5898   -3.1265   23.8954 O   0  0  0  0  0  0  0  0  0  0  0  0
   14.4882   -3.4787   23.7964 H   0  0  0  0  0  0  0  0  0  0  0  0
   16.3638  -10.3385   14.7154 N   0  0  0  0  0  0  0  0  0  0  0  0
   15.7398  -11.0947   14.8047 H   0  0  0  0  0  0  0  0  0  0  0  0
   18.1228   -9.4735    9.5256 N   0  0  0  0  0  0  0  0  0  0  0  0
   16.9326   -9.6072    8.8890 C   0  0  0  0  0  0  0  0  0  0  0  0
   15.9195   -9.8712    9.8047 C   0  0  0  0  0  0  0  0  0  0  0  0
   16.5336   -9.9022   11.0387 C   0  0  0  0  0  0  0  0  0  0  0  0
   17.8690   -9.6614   10.8346 C   0  0  0  0  0  0  0  0  0  0  0  0
   18.7759   -9.6313   11.8932 C   0  0  0  0  0  0  0  0  0  0  0  0
   18.2735   -9.8568   13.1866 C   0  0  0  0  0  0  0  0  0  0  0  0
   16.8953  -10.1059   13.4034 C   0  0  0  0  0  0  0  0  0  0  0  0
   16.0103  -10.1296   12.3091 C   0  0  0  0  0  0  0  0  0  0  0  0
   14.2171  -10.1286    9.4643 Cl  0  0  0  0  0  0  0  0  0  0  0  0
   16.7494   -9.5057    7.4118 C   0  0  0  0  0  0  0  0  0  0  0  0
   19.4287   -9.2219    8.9227 C   0  0  0  0  0  0  0  0  0  0  0  0
   18.8650   -6.8088    9.2002 C   0  0  0  0  0  0  0  0  0  0  0  0
   19.4701   -7.8465    8.2744 C   0  0  0  0  0  0  0  0  0  0  0  0
 34 35  1  0  0  0
 35 33  1  0  0  0
 33 22  1  0  0  0
 22 23  1  0  0  0
 23 24  2  0  0  0
 23 32  1  0  0  0
 24 25  1  0  0  0
 24 31  1  0  0  0
 25 26  2  0  0  0
 26 27  1  0  0  0
 26 22  1  0  0  0
 27 28  2  0  0  0
 28 29  1  0  0  0
 29 30  2  0  0  0
 29 20  1  0  0  0
 30 25  1  0  0  0
 20  1  1  0  0  0
  1  2  2  0  0  0
  2  3  1  0  0  0
  3  4  2  0  0  0
  4  5  1  0  0  0
  5  6  2  0  0  0
  5  7  1  0  0  0
  6  1  1  0  0  0
  7  8  1  0  0  0
  8  9  2  0  0  0
  9 10  1  0  0  0
  9 13  1  0  0  0
 10 11  2  0  0  0
 10 12  1  0  0  0
 11  7  1  0  0  0
 13 14  1  0  0  0
 14 15  1  0  0  0
 15 16  1  0  0  0
 16 17  1  0  0  0
 16 18  1  0  0  0
 17 14  1  0  0  0
 20 21  1  0  0  0
 18 19  1  0  0  0
M  END
>  <minimizedAffinity>
-4.02769

>  <minimizedRMSD>
1.87710

$$$$
CHEMBL2145393 PubChem-49778269


 36 39  0  0  0  0  0  0  0  0999 V2000
   17.4457   -9.8587   15.4572 O   0  0  0  0  0  0  0  0  0  0  0  0
   16.4184   -9.5204   14.5409 C   0  0  0  0  0  0  0  0  0  0  0  0
   15.7326   -8.1574   14.7953 C   0  0  0  0  0  0  0  0  0  0  0  0
   15.8500   -7.7306   16.1958 N   0  0  0  0  0  0  0  0  0  0  0  0
   17.2349   -7.8024   16.6926 C   0  0  0  0  0  0  0  0  0  0  0  0
   18.1381   -8.6955   15.8326 C   0  0  0  0  0  0  0  0  0  0  0  0
   16.8740   -9.6470   13.1604 N   0  0  0  0  0  0  0  0  0  0  0  0
   16.1590   -9.7856   12.0363 C   0  0  0  0  0  0  0  0  0  0  0  0
   14.8123   -9.8573   11.9149 N   0  0  0  0  0  0  0  0  0  0  0  0
   14.2912  -10.0118   10.6628 C   0  0  0  0  0  0  0  0  0  0  0  0
   15.1160  -10.0944    9.5713 N   0  0  0  0  0  0  0  0  0  0  0  0
   16.4796  -10.0279    9.6835 C   0  0  0  0  0  0  0  0  0  0  0  0
   16.9960   -9.8688   10.9757 C   0  0  0  0  0  0  0  0  0  0  0  0
   18.2744   -9.7848   11.3932 N   0  0  0  0  0  0  0  0  0  0  0  0
   18.1636   -9.6495   12.7441 C   0  0  0  0  0  0  0  0  0  0  0  0
   17.3158  -10.1224    8.5050 N   0  0  0  0  0  0  0  0  0  0  0  0
   17.7588  -11.4066    7.9839 C   0  0  0  0  0  0  0  0  0  0  0  0
   17.7654   -8.9418    7.7675 C   0  0  0  0  0  0  0  0  0  0  0  0
   16.5974   -8.0462    7.3920 C   0  0  0  0  0  0  0  0  0  0  0  0
   18.8117   -8.1669    8.5495 C   0  0  0  0  0  0  0  0  0  0  0  0
   19.3915   -9.0713   16.5997 C   0  0  0  0  0  0  0  0  0  0  0  0
   20.0663   -7.9189   17.0035 O   0  0  0  0  0  0  0  0  0  0  0  0
   20.3166   -7.4005   16.2228 H   0  0  0  0  0  0  0  0  0  0  0  0
   15.0126   -8.5931   17.0233 C   0  0  0  0  0  0  0  0  0  0  0  0
   14.4759   -7.8343   18.1903 C   0  0  0  0  0  0  0  0  0  0  0  0
   13.3262   -7.0561   18.0592 C   0  0  0  0  0  0  0  0  0  0  0  0
   12.8093   -6.3444   19.1536 C   0  0  0  0  0  0  0  0  0  0  0  0
   13.4661   -6.4265   20.4090 C   0  0  0  0  0  0  0  0  0  0  0  0
   14.6232   -7.2160   20.5328 C   0  0  0  0  0  0  0  0  0  0  0  0
   15.1187   -7.9151   19.4226 C   0  0  0  0  0  0  0  0  0  0  0  0
   11.6583   -5.5627   18.9993 O   0  0  0  0  0  0  0  0  0  0  0  0
   10.3888   -5.9408   19.5163 C   0  0  0  0  0  0  0  0  0  0  0  0
   13.0198   -5.7528   21.5586 O   0  0  0  0  0  0  0  0  0  0  0  0
   13.2781   -4.3884   21.8567 C   0  0  0  0  0  0  0  0  0  0  0  0
   15.2648   -7.2928   21.7747 O   0  0  0  0  0  0  0  0  0  0  0  0
   16.4371   -6.5508   22.0842 C   0  0  0  0  0  0  0  0  0  0  0  0
  1  2  1  0  0  0
  2  7  1  0  0  0
  7  8  1  0  0  0
  8  9  2  0  0  0
  9 10  1  0  0  0
 10 11  2  0  0  0
 11 12  1  0  0  0
 12 16  1  0  0  0
 16 18  1  0  0  0
 18 19  1  0  0  0
 18 20  1  0  0  0
 16 17  1  0  0  0
 12 13  2  0  0  0
 13 14  1  0  0  0
 14 15  2  0  0  0
  2  3  1  0  0  0
  3  4  1  0  0  0
  4  5  1  0  0  0
  5  6  1  0  0  0
  6 21  1  0  0  0
 21 22  1  0  0  0
  4 24  1  0  0  0
 24 25  1  0  0  0
 25 26  2  0  0  0
 26 27  1  0  0  0
 27 31  1  0  0  0
 31 32  1  0  0  0
 27 28  2  0  0  0
 28 33  1  0  0  0
 33 34  1  0  0  0
 28 29  1  0  0  0
 29 35  1  0  0  0
 35 36  1  0  0  0
 29 30  2  0  0  0
  6  1  1  0  0  0
 30 25  1  0  0  0
 15  7  1  0  0  0
 13  8  1  0  0  0
 22 23  1  0  0  0
M  END
>  <minimizedAffinity>
-4.02406

>  <minimizedRMSD>
1.73220

$$$$
CHEMBL3716206 PubChem-25002651


 32 33  0  0  0  0  0  0  0  0999 V2000
   16.4389   -9.6542   15.2075 C   0  0  0  0  0  0  0  0  0  0  0  0
   16.9575  -10.3809   16.2341 N   0  0  0  0  0  0  0  0  0  0  0  0
   16.7727  -10.0012   17.5245 C   0  0  0  0  0  0  0  0  0  0  0  0
   16.0344   -8.8565   17.8199 C   0  0  0  0  0  0  0  0  0  0  0  0
   15.5274   -8.1026   16.7477 C   0  0  0  0  0  0  0  0  0  0  0  0
   15.7392   -8.5202   15.4723 N   0  0  0  0  0  0  0  0  0  0  0  0
   14.8499   -6.8706   16.9739 N   0  0  0  0  0  0  0  0  0  0  0  0
   14.6908   -6.5579   17.8937 H   0  0  0  0  0  0  0  0  0  0  0  0
   14.5407   -6.3315   16.2103 H   0  0  0  0  0  0  0  0  0  0  0  0
   17.8960  -10.1829   13.1830 C   0  0  0  0  0  0  0  0  0  0  0  0
   18.9759   -9.9545   13.7893 O   0  0  0  0  0  0  0  0  0  0  0  0
   16.6323  -10.0553   13.8462 N   0  0  0  0  0  0  0  0  0  0  0  0
   15.8262  -10.2613   13.3200 H   0  0  0  0  0  0  0  0  0  0  0  0
   17.9374  -10.6048   11.7567 C   0  0  0  0  0  0  0  0  0  0  0  0
   17.5824   -9.4850   10.9007 N   0  0  0  0  0  0  0  0  0  0  0  0
   17.3199   -8.6796   11.4689 H   0  0  0  0  0  0  0  0  0  0  0  0
   16.4561   -9.9095   10.0877 C   0  0  0  0  0  0  0  0  0  0  0  0
   17.0589   -8.8262    7.9469 C   0  0  0  0  0  0  0  0  0  0  0  0
   16.9144  -10.1523    8.6629 C   0  0  0  0  0  0  0  0  0  0  0  0
   15.8632   -8.4827   19.1592 O   0  0  0  0  0  0  0  0  0  0  0  0
   14.7437   -7.8023   19.6626 C   0  0  0  0  0  0  0  0  0  0  0  0
   13.5354   -7.7696   18.9518 C   0  0  0  0  0  0  0  0  0  0  0  0
   12.4164   -7.1001   19.4530 C   0  0  0  0  0  0  0  0  0  0  0  0
   12.5009   -6.4425   20.7041 C   0  0  0  0  0  0  0  0  0  0  0  0
   13.6965   -6.5098   21.4255 C   0  0  0  0  0  0  0  0  0  0  0  0
   14.8172   -7.1830   20.9187 C   0  0  0  0  0  0  0  0  0  0  0  0
   10.6534   -7.2844   18.2933 I   0  0  0  0  0  0  0  0  0  0  0  0
   16.0938   -7.2332   21.7059 C   0  0  0  0  0  0  0  0  0  0  0  0
   15.8629   -6.8415   23.1540 C   0  0  0  0  0  0  0  0  0  0  0  0
   17.1562   -6.3445   21.0850 C   0  0  0  0  0  0  0  0  0  0  0  0
   11.4443   -5.7321   21.2862 O   0  0  0  0  0  0  0  0  0  0  0  0
   11.3292   -4.3182   21.2563 C   0  0  0  0  0  0  0  0  0  0  0  0
 18 19  1  0  0  0
 19 17  1  0  0  0
 17 15  1  0  0  0
 15 14  1  0  0  0
 14 10  1  0  0  0
 10 11  2  0  0  0
 10 12  1  0  0  0
 12  1  1  0  0  0
  1  2  2  0  0  0
  2  3  1  0  0  0
  3  4  2  0  0  0
  4  5  1  0  0  0
  4 20  1  0  0  0
  5  6  2  0  0  0
  5  7  1  0  0  0
  6  1  1  0  0  0
 20 21  1  0  0  0
 21 22  2  0  0  0
 22 23  1  0  0  0
 23 24  2  0  0  0
 23 27  1  0  0  0
 24 25  1  0  0  0
 24 31  1  0  0  0
 25 26  2  0  0  0
 26 28  1  0  0  0
 26 21  1  0  0  0
 28 29  1  0  0  0
 28 30  1  0  0  0
 31 32  1  0  0  0
 15 16  1  0  0  0
 12 13  1  0  0  0
  7  8  1  0  0  0
  7  9  1  0  0  0
M  END
>  <minimizedAffinity>
-4.02288

>  <minimizedRMSD>
1.86471

$$$$
CHEMBL1442189 8586997 ChemDiv-D349-2826 MCULE-8005870397 MolPort-007-700-246 PubChem-16016190 ZINC000008586997


 33 36  0  0  0  0  0  0  0  0999 V2000
   15.5427   -8.3673   17.8821 C   0  0  0  0  0  0  0  0  0  0  0  0
   16.3560   -9.4126   18.1341 N   0  0  0  0  0  0  0  0  0  0  0  0
   16.7651   -9.8061   16.9670 O   0  0  0  0  0  0  0  0  0  0  0  0
   16.2374   -9.0495   16.0355 C   0  0  0  0  0  0  0  0  0  0  0  0
   15.4377   -8.1010   16.5624 N   0  0  0  0  0  0  0  0  0  0  0  0
   14.7942   -6.6638   21.1719 C   0  0  0  0  0  0  0  0  0  0  0  0
   15.4497   -7.3922   20.1689 C   0  0  0  0  0  0  0  0  0  0  0  0
   14.8468   -7.6017   18.9278 C   0  0  0  0  0  0  0  0  0  0  0  0
   13.5754   -7.0765   18.6894 C   0  0  0  0  0  0  0  0  0  0  0  0
   12.8961   -6.3433   19.6753 C   0  0  0  0  0  0  0  0  0  0  0  0
   13.5142   -6.1337   20.9349 C   0  0  0  0  0  0  0  0  0  0  0  0
   16.8073   -6.4342   22.5976 C   0  0  0  0  0  0  0  0  0  0  0  0
   15.3976   -6.4529   22.4172 O   0  0  0  0  0  0  0  0  0  0  0  0
   11.6221   -5.8277   19.4099 O   0  0  0  0  0  0  0  0  0  0  0  0
   10.5607   -6.6152   18.8859 C   0  0  0  0  0  0  0  0  0  0  0  0
   12.9112   -5.4138   21.9802 O   0  0  0  0  0  0  0  0  0  0  0  0
   12.9246   -3.9996   22.1114 C   0  0  0  0  0  0  0  0  0  0  0  0
   16.4860   -9.2142   14.5969 C   0  0  0  0  0  0  0  0  0  0  0  0
   17.7935   -9.2069   14.1061 C   0  0  0  0  0  0  0  0  0  0  0  0
   18.0308   -9.3523   12.7393 C   0  0  0  0  0  0  0  0  0  0  0  0
   16.9672   -9.5150   11.8379 C   0  0  0  0  0  0  0  0  0  0  0  0
   15.6392   -9.5546   12.3343 C   0  0  0  0  0  0  0  0  0  0  0  0
   15.4193   -9.3907   13.7097 C   0  0  0  0  0  0  0  0  0  0  0  0
   17.2463   -9.5758   10.4310 N   0  0  0  0  0  0  0  0  0  0  0  0
   16.2664  -10.1918    9.5436 C   0  0  0  0  0  0  0  0  0  0  0  0
   16.9714  -10.7707    8.3131 C   0  0  0  0  0  0  0  0  0  0  0  0
   17.8541   -9.7963    7.6575 N   0  0  0  0  0  0  0  0  0  0  0  0
   17.0645   -8.7204    7.0695 C   0  0  0  0  0  0  0  0  0  0  0  0
   18.8353   -9.2459    8.6025 C   0  0  0  0  0  0  0  0  0  0  0  0
   18.1762   -8.6230    9.8361 C   0  0  0  0  0  0  0  0  0  0  0  0
   14.5098   -9.8008   11.4803 N   0  0  0  0  0  0  0  0  0  0  0  0
   14.1669   -8.8786   10.5182 O   0  0  0  0  0  0  0  0  0  0  0  0
   13.7221  -10.7389   11.7203 O   0  0  0  0  0  0  0  0  0  0  0  0
 12 13  1  0  0  0
 13  6  1  0  0  0
  6  7  2  0  0  0
  7  8  1  0  0  0
  8  9  2  0  0  0
  8  1  1  0  0  0
  9 10  1  0  0  0
 10 14  1  0  0  0
 10 11  2  0  0  0
 14 15  1  0  0  0
 11 16  1  0  0  0
 11  6  1  0  0  0
 16 17  1  0  0  0
  1  2  2  0  0  0
  2  3  1  0  0  0
  3  4  1  0  0  0
  4  5  2  0  0  0
  4 18  1  0  0  0
  5  1  1  0  0  0
 18 19  2  0  0  0
 19 20  1  0  0  0
 20 21  2  0  0  0
 21 24  1  0  0  0
 21 22  1  0  0  0
 24 25  1  0  0  0
 25 26  1  0  0  0
 26 27  1  0  0  0
 27 28  1  0  0  0
 27 29  1  0  0  0
 29 30  1  0  0  0
 30 24  1  0  0  0
 22 23  2  0  0  0
 22 31  1  0  0  0
 23 18  1  0  0  0
 31 32  1  0  0  0
 31 33  2  0  0  0
M  CHG 1  31   1
M  CHG 1  32  -1
M  END
>  <minimizedAffinity>
-4.00014

>  <minimizedRMSD>
1.58814

$$$$
CHEMBL268290 PubChem-10323343


 38 42  0  0  0  0  0  0  0  0999 V2000
   15.0092   -7.8744   19.4585 N   0  0  0  0  0  0  0  0  0  0  0  0
   14.4103   -7.3638   18.3610 C   0  0  0  0  0  0  0  0  0  0  0  0
   15.0691   -7.8538   17.1805 C   0  0  0  0  0  0  0  0  0  0  0  0
   16.0906   -8.6797   17.5812 C   0  0  0  0  0  0  0  0  0  0  0  0
   16.1240   -8.7513   19.0828 C   0  0  0  0  0  0  0  0  0  0  0  0
   16.9062   -9.3054   16.6356 C   0  0  0  0  0  0  0  0  0  0  0  0
   16.6321   -9.0595   15.2691 C   0  0  0  0  0  0  0  0  0  0  0  0
   15.5584   -8.1940   14.9147 C   0  0  0  0  0  0  0  0  0  0  0  0
   14.7928   -7.6045   15.8775 N   0  0  0  0  0  0  0  0  0  0  0  0
   15.2935   -7.9547   13.5667 C   0  0  0  0  0  0  0  0  0  0  0  0
   16.0550   -8.5436   12.6064 N   0  0  0  0  0  0  0  0  0  0  0  0
   17.0893   -9.3765   12.9110 C   0  0  0  0  0  0  0  0  0  0  0  0
   17.3927   -9.6463   14.2515 C   0  0  0  0  0  0  0  0  0  0  0  0
   13.3166   -6.5097   18.4543 C   0  0  0  0  0  0  0  0  0  0  0  0
   12.8458   -6.1724   19.7363 C   0  0  0  0  0  0  0  0  0  0  0  0
   13.4857   -6.7163   20.8782 C   0  0  0  0  0  0  0  0  0  0  0  0
   14.5812   -7.5854   20.7165 C   0  0  0  0  0  0  0  0  0  0  0  0
   15.1582   -8.0905   21.7178 O   0  0  0  0  0  0  0  0  0  0  0  0
   12.9479   -6.3975   22.2418 C   0  0  0  0  0  0  0  0  0  0  0  0
   12.4348   -5.0682   22.2779 O   0  0  0  0  0  0  0  0  0  0  0  0
   11.7184   -4.5285   21.2049 C   0  0  0  0  0  0  0  0  0  0  0  0
   11.1309   -3.4232   21.3489 O   0  0  0  0  0  0  0  0  0  0  0  0
   11.6328   -5.2713   19.8945 C   0  0  0  0  0  0  0  0  0  0  0  0
   11.5876   -4.3399   18.8495 O   0  0  0  0  0  0  0  0  0  0  0  0
   10.8108   -3.7693   18.9583 H   0  0  0  0  0  0  0  0  0  0  0  0
   17.8789   -9.9879   11.8312 C   0  0  0  0  0  0  0  0  0  0  0  0
   18.5796  -11.0120   12.0594 O   0  0  0  0  0  0  0  0  0  0  0  0
   17.8505   -9.4158   10.5203 N   0  0  0  0  0  0  0  0  0  0  0  0
   17.3197   -8.5997   10.3734 H   0  0  0  0  0  0  0  0  0  0  0  0
   18.5738   -9.9895    9.3935 C   0  0  0  0  0  0  0  0  0  0  0  0
   17.8155   -9.7502    8.0956 C   0  0  0  0  0  0  0  0  0  0  0  0
   18.1141   -8.4262    7.5743 N   0  0  0  0  0  0  0  0  0  0  0  0
   18.6527   -8.6075    6.2377 C   0  0  0  0  0  0  0  0  0  0  0  0
   16.8427   -7.7441    7.4189 C   0  0  0  0  0  0  0  0  0  0  0  0
   18.0065  -10.2224   17.0739 C   0  0  0  0  0  0  0  0  0  0  0  0
   17.5341  -11.6631   17.0304 C   0  0  0  0  0  0  0  0  0  0  0  0
   10.3453   -6.1007   19.9037 C   0  0  0  0  0  0  0  0  0  0  0  0
   10.3145   -7.1533   18.8053 C   0  0  0  0  0  0  0  0  0  0  0  0
  1  2  1  0  0  0
  2  3  1  0  0  0
  3  4  2  0  0  0
  4  5  1  0  0  0
  4  6  1  0  0  0
  6  7  2  0  0  0
  7  8  1  0  0  0
  8  9  2  0  0  0
  8 10  1  0  0  0
 10 11  2  0  0  0
 11 12  1  0  0  0
 12 13  2  0  0  0
 12 26  1  0  0  0
 26 27  2  0  0  0
 26 28  1  0  0  0
 28 30  1  0  0  0
 30 31  1  0  0  0
 31 32  1  0  0  0
 32 33  1  0  0  0
 32 34  1  0  0  0
  6 35  1  0  0  0
 35 36  1  0  0  0
  2 14  2  0  0  0
 14 15  1  0  0  0
 15 16  2  0  0  0
 16 17  1  0  0  0
 17 18  2  0  0  0
 16 19  1  0  0  0
 19 20  1  0  0  0
 20 21  1  0  0  0
 21 22  2  0  0  0
 21 23  1  0  0  0
 23 24  1  0  0  0
 23 37  1  0  0  0
 37 38  1  0  0  0
 17  1  1  0  0  0
  5  1  1  0  0  0
 13  7  1  0  0  0
 23 15  1  0  0  0
  9  3  1  0  0  0
 28 29  1  0  0  0
 24 25  1  0  0  0
M  END
>  <minimizedAffinity>
-3.97828

>  <minimizedRMSD>
1.69682

$$$$
CHEMBL1563299 9673837 ChemDiv-C328-0079 LN01403966 MCULE-5753883940 MolPort-007-621-089 PubChem-4121070 ZINC000009673837 ZINC09673837


 35 37  0  0  0  0  0  0  0  0999 V2000
   17.8057  -11.5542   15.5569 C   0  0  0  0  0  0  0  0  0  0  0  0
   17.3852  -11.8634   16.7971 N   0  0  0  0  0  0  0  0  0  0  0  0
   17.3206  -10.7190   17.4595 N   0  0  0  0  0  0  0  0  0  0  0  0
   17.7059   -9.7624   16.5943 C   0  0  0  0  0  0  0  0  0  0  0  0
   18.0018  -10.2659   15.4220 O   0  0  0  0  0  0  0  0  0  0  0  0
   18.0659  -12.7548   14.2582 S   0  0  0  0  0  0  0  0  0  0  0  0
   19.1826  -11.6577   13.3332 C   0  0  0  0  0  0  0  0  0  0  0  0
   19.1495  -10.2591   11.2349 N   0  0  0  0  0  0  0  0  0  0  0  0
   18.4300  -10.9108   12.2882 C   0  0  0  0  0  0  0  0  0  0  0  0
   17.1726  -10.8729   12.3422 O   0  0  0  0  0  0  0  0  0  0  0  0
   20.1322  -10.3074   11.2711 H   0  0  0  0  0  0  0  0  0  0  0  0
   17.9413   -8.1522    8.2752 C   0  0  0  0  0  0  0  0  0  0  0  0
   16.9754   -9.0154    8.6588 N   0  0  0  0  0  0  0  0  0  0  0  0
   17.3248   -9.7833    9.6901 N   0  0  0  0  0  0  0  0  0  0  0  0
   18.5763   -9.5438   10.1338 C   0  0  0  0  0  0  0  0  0  0  0  0
   19.3203   -8.3224    9.2388 S   0  0  0  0  0  0  0  0  0  0  0  0
   19.0277   -6.9787    6.3379 C   0  0  0  0  0  0  0  0  0  0  0  0
   17.7550   -7.1943    7.1390 C   0  0  0  0  0  0  0  0  0  0  0  0
   17.7660   -8.3108   16.9229 C   0  0  0  0  0  0  0  0  0  0  0  0
   16.8524   -8.0014   18.0127 N   0  0  0  0  0  0  0  0  0  0  0  0
   15.4665   -7.7073   17.8045 C   0  0  0  0  0  0  0  0  0  0  0  0
   15.0012   -7.6615   16.6332 O   0  0  0  0  0  0  0  0  0  0  0  0
   17.2024   -7.9940   18.9329 H   0  0  0  0  0  0  0  0  0  0  0  0
   14.5878   -7.4456   18.9566 C   0  0  0  0  0  0  0  0  0  0  0  0
   13.2750   -7.0124   18.7608 C   0  0  0  0  0  0  0  0  0  0  0  0
   12.4227   -6.7627   19.8473 C   0  0  0  0  0  0  0  0  0  0  0  0
   12.9071   -6.9483   21.1670 C   0  0  0  0  0  0  0  0  0  0  0  0
   14.2268   -7.3872   21.3621 C   0  0  0  0  0  0  0  0  0  0  0  0
   15.0549   -7.6323   20.2586 C   0  0  0  0  0  0  0  0  0  0  0  0
   11.1072   -6.3406   19.6225 O   0  0  0  0  0  0  0  0  0  0  0  0
   10.2375   -6.9752   18.6938 C   0  0  0  0  0  0  0  0  0  0  0  0
   12.1291   -6.7176   22.3137 O   0  0  0  0  0  0  0  0  0  0  0  0
   11.9260   -5.4498   22.9185 C   0  0  0  0  0  0  0  0  0  0  0  0
   14.6948   -7.5731   22.6675 O   0  0  0  0  0  0  0  0  0  0  0  0
   15.8071   -6.8643   23.1959 C   0  0  0  0  0  0  0  0  0  0  0  0
 17 18  1  0  0  0
 18 12  1  0  0  0
 12 13  2  0  0  0
 13 14  1  0  0  0
 14 15  2  0  0  0
 15  8  1  0  0  0
 15 16  1  0  0  0
  8  9  1  0  0  0
  9 10  2  0  0  0
  9  7  1  0  0  0
  7  6  1  0  0  0
  6  1  1  0  0  0
  1  2  2  0  0  0
  2  3  1  0  0  0
  3  4  2  0  0  0
  4 19  1  0  0  0
  4  5  1  0  0  0
 19 20  1  0  0  0
 20 21  1  0  0  0
 21 22  2  0  0  0
 21 24  1  0  0  0
 24 25  2  0  0  0
 25 26  1  0  0  0
 26 30  1  0  0  0
 26 27  2  0  0  0
 30 31  1  0  0  0
 27 32  1  0  0  0
 27 28  1  0  0  0
 32 33  1  0  0  0
 28 34  1  0  0  0
 28 29  2  0  0  0
 34 35  1  0  0  0
 29 24  1  0  0  0
  5  1  1  0  0  0
 16 12  1  0  0  0
  8 11  1  0  0  0
 20 23  1  0  0  0
M  END
>  <minimizedAffinity>
-3.95896

>  <minimizedRMSD>
1.90177

$$$$
CHEMBL197406


 32 35  0  0  0  0  0  0  0  0999 V2000
   15.6027   -8.0388   15.6579 C   0  0  0  0  0  0  0  0  0  0  0  0
   16.7100   -8.8422   15.7781 C   0  0  0  0  0  0  0  0  0  0  0  0
   17.1238   -9.2322   17.0531 C   0  0  0  0  0  0  0  0  0  0  0  0
   16.4131   -8.8178   18.1366 N   0  0  0  0  0  0  0  0  0  0  0  0
   15.3122   -8.0213   17.9990 C   0  0  0  0  0  0  0  0  0  0  0  0
   14.9156   -7.6295   16.7538 N   0  0  0  0  0  0  0  0  0  0  0  0
   18.2491  -10.0288   17.2246 O   0  0  0  0  0  0  0  0  0  0  0  0
   17.3990   -9.1686   14.5041 C   0  0  0  0  0  0  0  0  0  0  0  0
   16.7364   -8.3061   13.3970 C   0  0  0  0  0  0  0  0  0  0  0  0
   15.1784   -7.5523   14.0059 S   0  0  0  0  0  0  0  0  0  0  0  0
   16.4533   -9.0812   12.1074 C   0  0  0  0  0  0  0  0  0  0  0  0
   17.5334  -10.0262   11.8291 N   0  0  0  0  0  0  0  0  0  0  0  0
   18.1784  -10.0089   10.5501 C   0  0  0  0  0  0  0  0  0  0  0  0
   19.1207  -10.8129   10.3067 O   0  0  0  0  0  0  0  0  0  0  0  0
   17.9811  -10.9606   12.8672 C   0  0  0  0  0  0  0  0  0  0  0  0
   17.3080  -10.6662   14.2062 C   0  0  0  0  0  0  0  0  0  0  0  0
   18.7390  -10.3145   16.4787 H   0  0  0  0  0  0  0  0  0  0  0  0
   14.5604   -7.5821   19.1895 C   0  0  0  0  0  0  0  0  0  0  0  0
   13.3951   -6.8245   19.0518 C   0  0  0  0  0  0  0  0  0  0  0  0
   12.6731   -6.4022   20.1770 C   0  0  0  0  0  0  0  0  0  0  0  0
   13.1182   -6.7397   21.4665 C   0  0  0  0  0  0  0  0  0  0  0  0
   14.3006   -7.5087   21.6155 C   0  0  0  0  0  0  0  0  0  0  0  0
   15.0035   -7.9181   20.4713 C   0  0  0  0  0  0  0  0  0  0  0  0
   14.7687   -7.8604   22.8869 O   0  0  0  0  0  0  0  0  0  0  0  0
   15.7658   -7.1196   23.5784 C   0  0  0  0  0  0  0  0  0  0  0  0
   12.3503   -6.2861   22.5524 O   0  0  0  0  0  0  0  0  0  0  0  0
   12.5984   -5.0960   23.2870 C   0  0  0  0  0  0  0  0  0  0  0  0
   11.5054   -5.6429   20.0375 O   0  0  0  0  0  0  0  0  0  0  0  0
   11.3476   -4.6487   19.0341 C   0  0  0  0  0  0  0  0  0  0  0  0
   17.7614   -9.0998    9.5747 O   0  0  0  0  0  0  0  0  0  0  0  0
   17.1138   -9.5207    8.3837 C   0  0  0  0  0  0  0  0  0  0  0  0
   17.8354   -8.9410    7.1856 C   0  0  0  0  0  0  0  0  0  0  0  0
  1  2  1  0  0  0
  2  3  2  0  0  0
  3  4  1  0  0  0
  4  5  2  0  0  0
  5  6  1  0  0  0
  5 18  1  0  0  0
 18 19  2  0  0  0
 19 20  1  0  0  0
 20 21  2  0  0  0
 21 22  1  0  0  0
 22 23  2  0  0  0
 22 24  1  0  0  0
 24 25  1  0  0  0
 21 26  1  0  0  0
 26 27  1  0  0  0
 20 28  1  0  0  0
 28 29  1  0  0  0
  3  7  1  0  0  0
  2  8  1  0  0  0
  8  9  1  0  0  0
  9 10  1  0  0  0
  9 11  1  0  0  0
 11 12  1  0  0  0
 12 13  1  0  0  0
 13 14  2  0  0  0
 13 30  1  0  0  0
 30 31  1  0  0  0
 31 32  1  0  0  0
 12 15  1  0  0  0
 15 16  1  0  0  0
  6  1  2  0  0  0
 23 18  1  0  0  0
 16  8  1  0  0  0
 10  1  1  0  0  0
  7 17  1  0  0  0
M  END
>  <minimizedAffinity>
-3.95491

>  <minimizedRMSD>
0.96639

$$$$
CHEMBL4957397 2129512 LN00345213 MCULE-5325724206 MCULE-6837007285 MolPort-002-515-981 MolPort-020-181-182 PubChem-1784468 PubChem-45928145 ZINC000002129512


 33 36  0  0  0  0  0  0  0  0999 V2000
   17.5913   -9.9267   12.7801 N   0  0  0  0  0  0  0  0  0  0  0  0
   17.3024   -9.1708   13.9601 C   0  0  0  0  0  0  0  0  0  0  0  0
   16.3626   -8.3322   13.9764 O   0  0  0  0  0  0  0  0  0  0  0  0
   18.1713  -10.7157   12.8811 H   0  0  0  0  0  0  0  0  0  0  0  0
   17.9429   -9.1320   10.4502 C   0  0  0  0  0  0  0  0  0  0  0  0
   19.4155   -8.8755   10.4693 C   0  0  0  0  0  0  0  0  0  0  0  0
   19.7298   -8.4171    9.0260 C   0  0  0  0  0  0  0  0  0  0  0  0
   18.4597   -8.4611    8.3135 N   0  0  0  0  0  0  0  0  0  0  0  0
   18.2863   -8.1788    6.9001 C   0  0  0  0  0  0  0  0  0  0  0  0
   17.4544   -8.8996    9.1971 C   0  0  0  0  0  0  0  0  0  0  0  0
   16.1637   -9.1478    8.8606 N   0  0  0  0  0  0  0  0  0  0  0  0
   15.3072   -9.6422    9.7982 C   0  0  0  0  0  0  0  0  0  0  0  0
   13.9776   -9.9025    9.4566 C   0  0  0  0  0  0  0  0  0  0  0  0
   13.0968  -10.4196   10.4106 C   0  0  0  0  0  0  0  0  0  0  0  0
   13.5403  -10.6803   11.7103 C   0  0  0  0  0  0  0  0  0  0  0  0
   14.8677  -10.4250   12.0655 C   0  0  0  0  0  0  0  0  0  0  0  0
   15.7644   -9.9063   11.1212 C   0  0  0  0  0  0  0  0  0  0  0  0
   17.1067   -9.6318   11.4609 C   0  0  0  0  0  0  0  0  0  0  0  0
   18.0556   -9.4532   15.2130 C   0  0  0  0  0  0  0  0  0  0  0  0
   17.7047   -8.4783   16.2318 N   0  0  0  0  0  0  0  0  0  0  0  0
   17.5049   -7.5766   15.7991 H   0  0  0  0  0  0  0  0  0  0  0  0
   16.5208   -8.9783   16.9126 C   0  0  0  0  0  0  0  0  0  0  0  0
   15.3749   -7.9896   16.7603 C   0  0  0  0  0  0  0  0  0  0  0  0
   14.7159   -7.7157   18.0716 C   0  0  0  0  0  0  0  0  0  0  0  0
   15.4358   -7.8230   19.2655 C   0  0  0  0  0  0  0  0  0  0  0  0
   14.8051   -7.5755   20.4864 C   0  0  0  0  0  0  0  0  0  0  0  0
   13.4461   -7.2216   20.5272 C   0  0  0  0  0  0  0  0  0  0  0  0
   12.7202   -7.1199   19.3298 C   0  0  0  0  0  0  0  0  0  0  0  0
   13.3625   -7.3710   18.1059 C   0  0  0  0  0  0  0  0  0  0  0  0
   11.3664   -6.7697   19.3790 O   0  0  0  0  0  0  0  0  0  0  0  0
   10.3867   -7.3657   18.5396 C   0  0  0  0  0  0  0  0  0  0  0  0
   12.7993   -6.9688   21.7420 O   0  0  0  0  0  0  0  0  0  0  0  0
   13.0255   -5.7905   22.5036 C   0  0  0  0  0  0  0  0  0  0  0  0
  5  6  1  0  0  0
  6  7  1  0  0  0
  7  8  1  0  0  0
  8  9  1  0  0  0
  8 10  1  0  0  0
 10 11  1  0  0  0
 11 12  2  0  0  0
 12 13  1  0  0  0
 13 14  2  0  0  0
 14 15  1  0  0  0
 15 16  2  0  0  0
 16 17  1  0  0  0
 17 18  2  0  0  0
 18  1  1  0  0  0
  1  2  1  0  0  0
  2 19  1  0  0  0
 19 20  1  0  0  0
 20 22  1  0  0  0
 22 23  1  0  0  0
 23 24  1  0  0  0
 24 25  2  0  0  0
 25 26  1  0  0  0
 26 27  2  0  0  0
 27 28  1  0  0  0
 28 30  1  0  0  0
 30 31  1  0  0  0
 28 29  2  0  0  0
 27 32  1  0  0  0
 32 33  1  0  0  0
  2  3  2  0  0  0
 10  5  2  0  0  0
 17 12  1  0  0  0
 29 24  1  0  0  0
 18  5  1  0  0  0
  1  4  1  0  0  0
 20 21  1  0  0  0
M  END
>  <minimizedAffinity>
-3.95425

>  <minimizedRMSD>
1.92618

$$$$
CHEMBL3622956 PubChem-160849276 PubChem-161990613 PubChem-71698376


 33 37  0  0  0  0  0  0  0  0999 V2000
   16.6074   -9.6011   15.8933 C   0  0  0  0  0  0  0  0  0  0  0  0
   17.8582   -9.5621   16.4277 N   0  0  0  0  0  0  0  0  0  0  0  0
   18.1039   -8.9021   17.5886 C   0  0  0  0  0  0  0  0  0  0  0  0
   17.0667   -8.2512   18.2520 C   0  0  0  0  0  0  0  0  0  0  0  0
   15.7838   -8.2964   17.6955 C   0  0  0  0  0  0  0  0  0  0  0  0
   15.5856   -8.9703   16.5300 N   0  0  0  0  0  0  0  0  0  0  0  0
   14.6816   -7.6427   18.3389 N   0  0  0  0  0  0  0  0  0  0  0  0
   14.5076   -7.5127   19.6730 C   0  0  0  0  0  0  0  0  0  0  0  0
   13.3248   -6.8259   19.8554 C   0  0  0  0  0  0  0  0  0  0  0  0
   12.8449   -6.5581   18.5915 C   0  0  0  0  0  0  0  0  0  0  0  0
   13.6863   -7.0693   17.6776 N   0  0  0  0  0  0  0  0  0  0  0  0
   11.5992   -5.8166   18.2536 C   0  0  0  0  0  0  0  0  0  0  0  0
   12.7402   -6.3967   21.1590 C   0  0  0  0  0  0  0  0  0  0  0  0
   13.6684   -5.5159   21.8546 N   0  0  0  0  0  0  0  0  0  0  0  0
   13.2056   -4.1472   21.6605 C   0  0  0  0  0  0  0  0  0  0  0  0
   12.7542   -4.0000   23.0945 C   0  0  0  0  0  0  0  0  0  0  0  0
   13.2237   -5.4288   23.2391 C   0  0  0  0  0  0  0  0  0  0  0  0
   13.6315   -3.1534   23.7715 O   0  0  0  0  0  0  0  0  0  0  0  0
   14.5458   -3.3998   23.5610 H   0  0  0  0  0  0  0  0  0  0  0  0
   16.3418  -10.2964   14.6676 N   0  0  0  0  0  0  0  0  0  0  0  0
   15.7015  -11.0424   14.7201 H   0  0  0  0  0  0  0  0  0  0  0  0
   16.9005   -9.3260    7.3912 C   0  0  0  0  0  0  0  0  0  0  0  0
   17.0476   -9.4701    8.8687 C   0  0  0  0  0  0  0  0  0  0  0  0
   16.0188   -9.7829    9.7514 C   0  0  0  0  0  0  0  0  0  0  0  0
   16.5996   -9.8124   11.0021 C   0  0  0  0  0  0  0  0  0  0  0  0
   17.9312   -9.5230   10.8389 C   0  0  0  0  0  0  0  0  0  0  0  0
   18.2134   -9.3127    9.5398 N   0  0  0  0  0  0  0  0  0  0  0  0
   19.5117   -8.9822    8.9714 C   0  0  0  0  0  0  0  0  0  0  0  0
   18.8063   -9.4731   11.9230 C   0  0  0  0  0  0  0  0  0  0  0  0
   18.2758   -9.7311   13.1991 C   0  0  0  0  0  0  0  0  0  0  0  0
   16.9015  -10.0305   13.3738 C   0  0  0  0  0  0  0  0  0  0  0  0
   16.0489  -10.0717   12.2546 C   0  0  0  0  0  0  0  0  0  0  0  0
   14.3335  -10.0788    9.3607 Cl  0  0  0  0  0  0  0  0  0  0  0  0
 22 23  1  0  0  0
 23 24  2  0  0  0
 24 25  1  0  0  0
 24 33  1  0  0  0
 25 26  2  0  0  0
 26 27  1  0  0  0
 26 29  1  0  0  0
 27 28  1  0  0  0
 27 23  1  0  0  0
 29 30  2  0  0  0
 30 31  1  0  0  0
 31 32  2  0  0  0
 31 20  1  0  0  0
 32 25  1  0  0  0
 20  1  1  0  0  0
  1  2  2  0  0  0
  2  3  1  0  0  0
  3  4  2  0  0  0
  4  5  1  0  0  0
  5  6  2  0  0  0
  5  7  1  0  0  0
  6  1  1  0  0  0
  7  8  1  0  0  0
  8  9  2  0  0  0
  9 10  1  0  0  0
  9 13  1  0  0  0
 10 11  2  0  0  0
 10 12  1  0  0  0
 11  7  1  0  0  0
 13 14  1  0  0  0
 14 15  1  0  0  0
 15 16  1  0  0  0
 16 17  1  0  0  0
 16 18  1  0  0  0
 17 14  1  0  0  0
 20 21  1  0  0  0
 18 19  1  0  0  0
M  END
>  <minimizedAffinity>
-3.95395

>  <minimizedRMSD>
1.67611

$$$$
CHEMBL1524485 CSC046447793 ChemDiv-C660-0396 MCULE-9724930358 MolPort-007-654-046 NNKVUACOWDPTOS-UHFFFAOYSA-N PubChem-16009595 ZINC000058058207


 31 34  0  0  0  0  0  0  0  0999 V2000
   15.7732   -8.6987   17.0683 C   0  0  0  0  0  0  0  0  0  0  0  0
   17.0882   -8.9921   17.1274 N   0  0  0  0  0  0  0  0  0  0  0  0
   17.3367   -9.6334   16.0268 O   0  0  0  0  0  0  0  0  0  0  0  0
   16.2379   -9.7375   15.3230 C   0  0  0  0  0  0  0  0  0  0  0  0
   15.1931   -9.1510   15.9356 N   0  0  0  0  0  0  0  0  0  0  0  0
   13.1124   -6.6925   18.8518 C   0  0  0  0  0  0  0  0  0  0  0  0
   13.8128   -7.3839   17.8528 C   0  0  0  0  0  0  0  0  0  0  0  0
   15.0495   -7.9716   18.1227 C   0  0  0  0  0  0  0  0  0  0  0  0
   15.5889   -7.8669   19.4063 C   0  0  0  0  0  0  0  0  0  0  0  0
   14.9091   -7.1813   20.4260 C   0  0  0  0  0  0  0  0  0  0  0  0
   13.6533   -6.5849   20.1447 C   0  0  0  0  0  0  0  0  0  0  0  0
   10.6735   -6.8560   18.4526 C   0  0  0  0  0  0  0  0  0  0  0  0
   11.8719   -6.1032   18.5827 O   0  0  0  0  0  0  0  0  0  0  0  0
   15.4721   -7.0921   21.7044 O   0  0  0  0  0  0  0  0  0  0  0  0
   16.7292   -6.4781   21.9576 C   0  0  0  0  0  0  0  0  0  0  0  0
   12.9030   -5.8795   21.0999 O   0  0  0  0  0  0  0  0  0  0  0  0
   13.0913   -4.5131   21.4394 C   0  0  0  0  0  0  0  0  0  0  0  0
   16.1562  -10.3970   13.9904 C   0  0  0  0  0  0  0  0  0  0  0  0
   15.5359   -9.4937   13.0249 N   0  0  0  0  0  0  0  0  0  0  0  0
   15.3690  -10.1791   11.7344 C   0  0  0  0  0  0  0  0  0  0  0  0
   16.7092  -10.4846   11.0605 C   0  0  0  0  0  0  0  0  0  0  0  0
   17.4922   -9.2581   10.9807 N   0  0  0  0  0  0  0  0  0  0  0  0
   17.6948   -8.5241   12.2235 C   0  0  0  0  0  0  0  0  0  0  0  0
   16.3368   -8.2666   12.8840 C   0  0  0  0  0  0  0  0  0  0  0  0
   18.0138   -8.7782    9.7278 C   0  0  0  0  0  0  0  0  0  0  0  0
   17.4738   -9.2281    8.5118 C   0  0  0  0  0  0  0  0  0  0  0  0
   17.9789   -8.7634    7.2944 C   0  0  0  0  0  0  0  0  0  0  0  0
   17.2955   -9.3386    5.7892 Cl  0  0  0  0  0  0  0  0  0  0  0  0
   19.0304   -7.8441    7.2791 C   0  0  0  0  0  0  0  0  0  0  0  0
   19.5759   -7.3887    8.4816 C   0  0  0  0  0  0  0  0  0  0  0  0
   19.0706   -7.8534    9.6993 C   0  0  0  0  0  0  0  0  0  0  0  0
 12 13  1  0  0  0
 13  6  1  0  0  0
  6  7  2  0  0  0
  7  8  1  0  0  0
  8  9  2  0  0  0
  8  1  1  0  0  0
  9 10  1  0  0  0
 10 14  1  0  0  0
 10 11  2  0  0  0
 14 15  1  0  0  0
 11 16  1  0  0  0
 11  6  1  0  0  0
 16 17  1  0  0  0
  1  2  2  0  0  0
  2  3  1  0  0  0
  3  4  1  0  0  0
  4 18  1  0  0  0
  4  5  2  0  0  0
 18 19  1  0  0  0
 19 20  1  0  0  0
 20 21  1  0  0  0
 21 22  1  0  0  0
 22 23  1  0  0  0
 22 25  1  0  0  0
 23 24  1  0  0  0
 24 19  1  0  0  0
 25 26  2  0  0  0
 26 27  1  0  0  0
 27 28  1  0  0  0
 27 29  2  0  0  0
 29 30  1  0  0  0
 30 31  2  0  0  0
 31 25  1  0  0  0
  5  1  1  0  0  0
M  END
>  <minimizedAffinity>
-3.94964

>  <minimizedRMSD>
1.57524

$$$$
CHEMBL1510339 9207006 ChemDiv-D244-0312 LN01028013 MCULE-4101210957 MolPort-000-542-465 PubChem-16452489 ZINC000009207006 ZINC09207006


 32 34  0  0  0  0  0  0  0  0999 V2000
   14.7840   -7.4477   20.4107 C   0  0  0  0  0  0  0  0  0  0  0  0
   14.9813   -8.4399   21.3995 C   0  0  0  0  0  0  0  0  0  0  0  0
   15.4523  -10.1004   21.0636 Cl  0  0  0  0  0  0  0  0  0  0  0  0
   14.7528   -8.1001   22.7328 C   0  0  0  0  0  0  0  0  0  0  0  0
   14.3477   -6.8491   23.0645 N   0  0  0  0  0  0  0  0  0  0  0  0
   14.1547   -5.9068   22.1083 C   0  0  0  0  0  0  0  0  0  0  0  0
   14.3722   -6.2109   20.8035 N   0  0  0  0  0  0  0  0  0  0  0  0
   16.0223   -8.5434   18.4806 N   0  0  0  0  0  0  0  0  0  0  0  0
   14.9870   -7.6739   18.9604 C   0  0  0  0  0  0  0  0  0  0  0  0
   14.2488   -7.0596   18.1432 O   0  0  0  0  0  0  0  0  0  0  0  0
   16.5918   -8.9660   19.1635 H   0  0  0  0  0  0  0  0  0  0  0  0
   16.9257   -9.5648   14.4578 C   0  0  0  0  0  0  0  0  0  0  0  0
   16.2687   -8.3598   14.7383 C   0  0  0  0  0  0  0  0  0  0  0  0
   15.9663   -8.0116   16.0575 C   0  0  0  0  0  0  0  0  0  0  0  0
   16.3179   -8.8640   17.1146 C   0  0  0  0  0  0  0  0  0  0  0  0
   16.9729  -10.0672   16.8335 C   0  0  0  0  0  0  0  0  0  0  0  0
   17.2758  -10.4169   15.5145 C   0  0  0  0  0  0  0  0  0  0  0  0
   17.2427   -9.9274   13.0668 C   0  0  0  0  0  0  0  0  0  0  0  0
   17.8601  -11.0002   12.8187 O   0  0  0  0  0  0  0  0  0  0  0  0
   17.3682   -9.2287   10.7088 C   0  0  0  0  0  0  0  0  0  0  0  0
   16.8575   -9.0800   12.0250 O   0  0  0  0  0  0  0  0  0  0  0  0
   13.5991   -4.3036   22.5511 S   0  0  0  0  0  0  0  0  0  0  0  0
   12.4752   -4.4175   23.5428 O   0  0  0  0  0  0  0  0  0  0  0  0
   14.7316   -3.5376   23.1734 O   0  0  0  0  0  0  0  0  0  0  0  0
   13.0126   -3.4323   21.1059 C   0  0  0  0  0  0  0  0  0  0  0  0
   12.0872   -4.2811   20.2992 C   0  0  0  0  0  0  0  0  0  0  0  0
   10.8913   -4.7586   20.8503 C   0  0  0  0  0  0  0  0  0  0  0  0
   10.0362   -5.5561   20.0840 C   0  0  0  0  0  0  0  0  0  0  0  0
    8.7709   -6.0663   20.6724 C   0  0  0  0  0  0  0  0  0  0  0  0
   10.3719   -5.8738   18.7645 C   0  0  0  0  0  0  0  0  0  0  0  0
   11.5617   -5.3920   18.2101 C   0  0  0  0  0  0  0  0  0  0  0  0
   12.4171   -4.5947   18.9763 C   0  0  0  0  0  0  0  0  0  0  0  0
 20 21  1  0  0  0
 21 18  1  0  0  0
 18 19  2  0  0  0
 18 12  1  0  0  0
 12 13  2  0  0  0
 13 14  1  0  0  0
 14 15  2  0  0  0
 15  8  1  0  0  0
 15 16  1  0  0  0
  8  9  1  0  0  0
  9 10  2  0  0  0
  9  1  1  0  0  0
  1  2  2  0  0  0
  2  3  1  0  0  0
  2  4  1  0  0  0
  4  5  2  0  0  0
  5  6  1  0  0  0
  6  7  2  0  0  0
  6 22  1  0  0  0
  7  1  1  0  0  0
 22 23  2  0  0  0
 22 24  2  0  0  0
 22 25  1  0  0  0
 25 26  1  0  0  0
 26 27  2  0  0  0
 27 28  1  0  0  0
 28 29  1  0  0  0
 28 30  2  0  0  0
 30 31  1  0  0  0
 31 32  2  0  0  0
 32 26  1  0  0  0
 16 17  2  0  0  0
 17 12  1  0  0  0
  8 11  1  0  0  0
M  END
>  <minimizedAffinity>
-3.91270

>  <minimizedRMSD>
1.81106

$$$$
CHEMBL3593874 PubChem-122182224


 29 31  0  0  0  0  0  0  0  0999 V2000
   15.4386   -8.5653   17.3908 C   0  0  0  0  0  0  0  0  0  0  0  0
   16.4679   -7.8880   18.0578 C   0  0  0  0  0  0  0  0  0  0  0  0
   17.7609   -7.9667   17.5445 C   0  0  0  0  0  0  0  0  0  0  0  0
   18.0007   -8.6844   16.4169 N   0  0  0  0  0  0  0  0  0  0  0  0
   16.9916   -9.3290   15.7748 C   0  0  0  0  0  0  0  0  0  0  0  0
   15.7243   -9.2655   16.2617 N   0  0  0  0  0  0  0  0  0  0  0  0
   14.1136   -8.5160   17.8432 O   0  0  0  0  0  0  0  0  0  0  0  0
   11.9578   -6.9637   16.7970 C   0  0  0  0  0  0  0  0  0  0  0  0
   12.5220   -6.7156   18.1531 C   0  0  0  0  0  0  0  0  0  0  0  0
   11.9861   -5.6857   18.9309 C   0  0  0  0  0  0  0  0  0  0  0  0
   12.4961   -5.4280   20.2044 C   0  0  0  0  0  0  0  0  0  0  0  0
   13.5366   -6.2093   20.7102 C   0  0  0  0  0  0  0  0  0  0  0  0
   14.0850   -7.2392   19.9404 C   0  0  0  0  0  0  0  0  0  0  0  0
   15.1485   -8.0889   20.5469 C   0  0  0  0  0  0  0  0  0  0  0  0
   13.5888   -7.4893   18.6423 C   0  0  0  0  0  0  0  0  0  0  0  0
   11.9412   -4.3697   20.9996 C   0  0  0  0  0  0  0  0  0  0  0  0
   11.4937   -3.5164   21.6406 N   0  0  0  0  0  0  0  0  0  0  0  0
   17.3315  -10.2655   14.2923 S   0  0  0  0  0  0  0  0  0  0  0  0
   15.7474   -9.7910   13.5393 C   0  0  0  0  0  0  0  0  0  0  0  0
   15.8879   -9.7097   12.0602 C   0  0  0  0  0  0  0  0  0  0  0  0
   14.9171  -10.0455   11.3318 O   0  0  0  0  0  0  0  0  0  0  0  0
   17.1162   -9.2361   11.4913 N   0  0  0  0  0  0  0  0  0  0  0  0
   17.8226   -8.9721   12.1242 H   0  0  0  0  0  0  0  0  0  0  0  0
   17.4222   -9.1072   10.0963 C   0  0  0  0  0  0  0  0  0  0  0  0
   18.4340   -8.2218    9.7082 C   0  0  0  0  0  0  0  0  0  0  0  0
   18.7624   -8.0702    8.3574 C   0  0  0  0  0  0  0  0  0  0  0  0
   18.0791   -8.8058    7.3853 C   0  0  0  0  0  0  0  0  0  0  0  0
   17.0678   -9.6927    7.7639 C   0  0  0  0  0  0  0  0  0  0  0  0
   16.7406   -9.8433    9.1146 C   0  0  0  0  0  0  0  0  0  0  0  0
  8  9  1  0  0  0
  9 10  2  0  0  0
 10 11  1  0  0  0
 11 16  1  0  0  0
 16 17  3  0  0  0
 11 12  2  0  0  0
 12 13  1  0  0  0
 13 14  1  0  0  0
 13 15  2  0  0  0
 15  7  1  0  0  0
  7  1  1  0  0  0
  1  2  2  0  0  0
  2  3  1  0  0  0
  3  4  2  0  0  0
  4  5  1  0  0  0
  5 18  1  0  0  0
 18 19  1  0  0  0
 19 20  1  0  0  0
 20 21  2  0  0  0
 20 22  1  0  0  0
 22 24  1  0  0  0
 24 25  2  0  0  0
 25 26  1  0  0  0
 26 27  2  0  0  0
 27 28  1  0  0  0
 28 29  2  0  0  0
  5  6  2  0  0  0
 15  9  1  0  0  0
  6  1  1  0  0  0
 29 24  1  0  0  0
 22 23  1  0  0  0
M  END
>  <minimizedAffinity>
-3.90701

>  <minimizedRMSD>
1.86248

$$$$
CHEMBL519648 PubChem-24879326


 32 34  0  0  0  0  0  0  0  0999 V2000
   16.3403   -8.5089   18.0379 C   0  0  0  0  0  0  0  0  0  0  0  0
   17.6839   -8.1337   18.0271 C   0  0  0  0  0  0  0  0  0  0  0  0
   18.4318   -8.3542   16.9148 N   0  0  0  0  0  0  0  0  0  0  0  0
   17.8948   -8.9335   15.8095 C   0  0  0  0  0  0  0  0  0  0  0  0
   16.5444   -9.3092   15.8077 C   0  0  0  0  0  0  0  0  0  0  0  0
   15.8068   -9.0899   16.9287 N   0  0  0  0  0  0  0  0  0  0  0  0
   15.5564   -8.2781   19.2160 N   0  0  0  0  0  0  0  0  0  0  0  0
   15.9242   -8.6251   20.0608 H   0  0  0  0  0  0  0  0  0  0  0  0
   11.8680   -7.5592   19.1238 C   0  0  0  0  0  0  0  0  0  0  0  0
   13.0827   -8.2451   19.0444 C   0  0  0  0  0  0  0  0  0  0  0  0
   14.2961   -7.5981   19.3017 C   0  0  0  0  0  0  0  0  0  0  0  0
   14.2870   -6.2425   19.6295 C   0  0  0  0  0  0  0  0  0  0  0  0
   13.0798   -5.5368   19.7427 C   0  0  0  0  0  0  0  0  0  0  0  0
   11.8609   -6.2013   19.5323 C   0  0  0  0  0  0  0  0  0  0  0  0
   10.1049   -8.1157   17.4849 C   0  0  0  0  0  0  0  0  0  0  0  0
   10.7090   -8.2525   18.7634 O   0  0  0  0  0  0  0  0  0  0  0  0
   13.0665   -4.1808   20.0888 O   0  0  0  0  0  0  0  0  0  0  0  0
   13.2419   -3.7248   21.4234 C   0  0  0  0  0  0  0  0  0  0  0  0
   10.6769   -5.4925   19.7634 O   0  0  0  0  0  0  0  0  0  0  0  0
   10.1141   -5.3552   21.0605 C   0  0  0  0  0  0  0  0  0  0  0  0
   15.9292   -9.9277   14.7067 O   0  0  0  0  0  0  0  0  0  0  0  0
   16.2913   -9.8104   13.3547 C   0  0  0  0  0  0  0  0  0  0  0  0
   15.2744   -9.6409   12.4098 C   0  0  0  0  0  0  0  0  0  0  0  0
   15.5806   -9.5033   11.0531 C   0  0  0  0  0  0  0  0  0  0  0  0
   16.9140   -9.5287   10.6173 C   0  0  0  0  0  0  0  0  0  0  0  0
   17.9344   -9.6912   11.5658 C   0  0  0  0  0  0  0  0  0  0  0  0
   17.6262   -9.8284   12.9217 C   0  0  0  0  0  0  0  0  0  0  0  0
   17.2369   -9.3838    9.1813 C   0  0  0  0  0  0  0  0  0  0  0  0
   18.4072   -8.5530    8.7534 C   0  0  0  0  0  0  0  0  0  0  0  0
   16.5033   -9.9789    8.2906 N   0  0  0  0  0  0  0  0  0  0  0  0
   16.7665   -9.8722    6.9435 O   0  0  0  0  0  0  0  0  0  0  0  0
   16.2199  -10.3128    6.3230 H   0  0  0  0  0  0  0  0  0  0  0  0
 15 16  1  0  0  0
 16  9  1  0  0  0
  9 10  2  0  0  0
 10 11  1  0  0  0
 11  7  1  0  0  0
 11 12  2  0  0  0
  7  1  1  0  0  0
  1  2  2  0  0  0
  2  3  1  0  0  0
  3  4  2  0  0  0
  4  5  1  0  0  0
  5 21  1  0  0  0
  5  6  2  0  0  0
 21 22  1  0  0  0
 22 23  2  0  0  0
 23 24  1  0  0  0
 24 25  2  0  0  0
 25 28  1  0  0  0
 25 26  1  0  0  0
 28 29  1  0  0  0
 28 30  2  0  0  0
 30 31  1  0  0  0
 26 27  2  0  0  0
 27 22  1  0  0  0
  6  1  1  0  0  0
 12 13  1  0  0  0
 13 17  1  0  0  0
 13 14  2  0  0  0
 17 18  1  0  0  0
 14 19  1  0  0  0
 14  9  1  0  0  0
 19 20  1  0  0  0
  7  8  1  0  0  0
 31 32  1  0  0  0
M  END
>  <minimizedAffinity>
-3.88744

>  <minimizedRMSD>
1.74763

$$$$
CHEMBL4868132 PubChem-130472086


 33 35  0  0  0  0  0  0  0  0999 V2000
   16.4113  -10.2928   17.7827 C   0  0  0  0  0  0  0  0  0  0  0  0
   16.2927   -9.1450   16.8357 C   0  0  0  0  0  0  0  0  0  0  0  0
   16.7721   -9.0838   15.5477 C   0  0  0  0  0  0  0  0  0  0  0  0
   16.3243   -7.9453   14.9833 N   0  0  0  0  0  0  0  0  0  0  0  0
   15.5909   -7.3280   15.9002 N   0  0  0  0  0  0  0  0  0  0  0  0
   15.5660   -8.0263   17.0262 N   0  0  0  0  0  0  0  0  0  0  0  0
   14.8025   -7.6479   18.1811 C   0  0  0  0  0  0  0  0  0  0  0  0
   15.4267   -7.2999   19.3921 C   0  0  0  0  0  0  0  0  0  0  0  0
   14.6356   -6.9404   20.4927 C   0  0  0  0  0  0  0  0  0  0  0  0
   13.2366   -6.9009   20.4089 C   0  0  0  0  0  0  0  0  0  0  0  0
   12.6151   -7.2181   19.1812 C   0  0  0  0  0  0  0  0  0  0  0  0
   13.4092   -7.5844   18.0833 C   0  0  0  0  0  0  0  0  0  0  0  0
   11.2210   -7.1688   19.0590 O   0  0  0  0  0  0  0  0  0  0  0  0
   10.4967   -7.9680   18.1332 C   0  0  0  0  0  0  0  0  0  0  0  0
   12.4654   -6.5149   21.6142 C   0  0  0  0  0  0  0  0  0  0  0  0
   12.6656   -7.1214   22.7036 O   0  0  0  0  0  0  0  0  0  0  0  0
   11.5192   -5.4890   21.5563 O   0  0  0  0  0  0  0  0  0  0  0  0
   11.0331   -4.8468   22.7254 C   0  0  0  0  0  0  0  0  0  0  0  0
   16.8235   -7.2874   19.4788 O   0  0  0  0  0  0  0  0  0  0  0  0
   17.5243   -6.6745   20.5525 C   0  0  0  0  0  0  0  0  0  0  0  0
   17.7407  -10.2898   14.7196 S   0  0  0  0  0  0  0  0  0  0  0  0
   19.1581  -10.2292   15.2160 O   0  0  0  0  0  0  0  0  0  0  0  0
   17.1819  -11.6590   14.9881 O   0  0  0  0  0  0  0  0  0  0  0  0
   17.7202   -9.9786   12.9926 C   0  0  0  0  0  0  0  0  0  0  0  0
   16.5035   -9.8811   12.3119 C   0  0  0  0  0  0  0  0  0  0  0  0
   16.4870   -9.6184   10.9398 C   0  0  0  0  0  0  0  0  0  0  0  0
   17.6876   -9.4621   10.2234 C   0  0  0  0  0  0  0  0  0  0  0  0
   18.9034   -9.5298   10.9279 C   0  0  0  0  0  0  0  0  0  0  0  0
   18.9197   -9.7927   12.3001 C   0  0  0  0  0  0  0  0  0  0  0  0
   17.6676   -9.1069    8.7485 C   0  0  0  0  0  0  0  0  0  0  0  0
   18.1246  -10.2745    7.8868 C   0  0  0  0  0  0  0  0  0  0  0  0
   16.2708   -8.7203    8.2856 C   0  0  0  0  0  0  0  0  0  0  0  0
   18.5981   -7.9342    8.5045 C   0  0  0  0  0  0  0  0  0  0  0  0
  1  2  1  0  0  0
  2  3  2  0  0  0
  3  4  1  0  0  0
  4  5  2  0  0  0
  5  6  1  0  0  0
  6  7  1  0  0  0
  7  8  2  0  0  0
  8  9  1  0  0  0
  9 10  2  0  0  0
 10 11  1  0  0  0
 11 12  2  0  0  0
 11 13  1  0  0  0
 13 14  1  0  0  0
 10 15  1  0  0  0
 15 16  2  0  0  0
 15 17  1  0  0  0
 17 18  1  0  0  0
  8 19  1  0  0  0
 19 20  1  0  0  0
  3 21  1  0  0  0
 21 22  2  0  0  0
 21 23  2  0  0  0
 21 24  1  0  0  0
 24 25  2  0  0  0
 25 26  1  0  0  0
 26 27  2  0  0  0
 27 28  1  0  0  0
 28 29  2  0  0  0
 27 30  1  0  0  0
 30 31  1  0  0  0
 30 32  1  0  0  0
 30 33  1  0  0  0
  6  2  1  0  0  0
 12  7  1  0  0  0
 29 24  1  0  0  0
M  END
>  <minimizedAffinity>
-3.88465

>  <minimizedRMSD>
1.11530

$$$$
CHEMBL1681838 PubChem-53322974


 32 35  0  0  0  0  0  0  0  0999 V2000
   15.0735   -8.5067   17.0348 N   0  0  0  0  0  0  0  0  0  0  0  0
   15.2148   -7.7597   15.7936 C   0  0  0  0  0  0  0  0  0  0  0  0
   16.6698   -7.8352   15.3331 C   0  0  0  0  0  0  0  0  0  0  0  0
   17.1433   -9.2293   15.2077 N   0  0  0  0  0  0  0  0  0  0  0  0
   16.9599   -9.9723   16.4735 C   0  0  0  0  0  0  0  0  0  0  0  0
   17.9723   -9.5268   17.5167 C   0  0  0  0  0  0  0  0  0  0  0  0
   15.5257   -9.8921   17.0158 C   0  0  0  0  0  0  0  0  0  0  0  0
   14.4729   -6.5711   20.7505 C   0  0  0  0  0  0  0  0  0  0  0  0
   15.6688   -7.2204   20.4341 C   0  0  0  0  0  0  0  0  0  0  0  0
   15.8184   -7.8344   19.2313 N   0  0  0  0  0  0  0  0  0  0  0  0
   14.8341   -7.8433   18.2880 C   0  0  0  0  0  0  0  0  0  0  0  0
   13.6029   -7.2151   18.5785 C   0  0  0  0  0  0  0  0  0  0  0  0
   12.2234   -7.2611   17.4909 Cl  0  0  0  0  0  0  0  0  0  0  0  0
   13.4375   -6.5829   19.8118 C   0  0  0  0  0  0  0  0  0  0  0  0
   15.3308   -4.7854   24.0665 C   0  0  0  0  0  0  0  0  0  0  0  0
   15.4481   -5.4545   22.7820 N   0  0  0  0  0  0  0  0  0  0  0  0
   14.3027   -5.9000   22.0508 C   0  0  0  0  0  0  0  0  0  0  0  0
   13.1457   -5.7168   22.5197 O   0  0  0  0  0  0  0  0  0  0  0  0
   16.3441   -5.6059   22.4032 H   0  0  0  0  0  0  0  0  0  0  0  0
   16.4650   -9.9204   14.0920 C   0  0  0  0  0  0  0  0  0  0  0  0
   17.3718  -10.9675   13.4366 C   0  0  0  0  0  0  0  0  0  0  0  0
   18.5392  -10.2968   12.7022 C   0  0  0  0  0  0  0  0  0  0  0  0
   18.0892   -9.3280   11.6938 N   0  0  0  0  0  0  0  0  0  0  0  0
   17.2036   -8.3163   12.2883 C   0  0  0  0  0  0  0  0  0  0  0  0
   16.0025   -8.9378   13.0109 C   0  0  0  0  0  0  0  0  0  0  0  0
   17.4057  -10.0226   10.6054 C   0  0  0  0  0  0  0  0  0  0  0  0
   17.7205   -9.3723    9.3020 C   0  0  0  0  0  0  0  0  0  0  0  0
   17.1256   -9.8456    8.1297 C   0  0  0  0  0  0  0  0  0  0  0  0
   17.4219   -9.2236    6.9154 C   0  0  0  0  0  0  0  0  0  0  0  0
   18.3019   -8.1403    6.8852 C   0  0  0  0  0  0  0  0  0  0  0  0
   18.8743   -7.6937    8.0785 C   0  0  0  0  0  0  0  0  0  0  0  0
   18.5738   -8.3123    9.2523 N   0  0  0  0  0  0  0  0  0  0  0  0
 15 16  1  0  0  0
 16 17  1  0  0  0
 17 18  2  0  0  0
 17  8  1  0  0  0
  8  9  2  0  0  0
  9 10  1  0  0  0
 10 11  2  0  0  0
 11  1  1  0  0  0
 11 12  1  0  0  0
  1  2  1  0  0  0
  2  3  1  0  0  0
  3  4  1  0  0  0
  4 20  1  0  0  0
  4  5  1  0  0  0
 20 21  1  0  0  0
 21 22  1  0  0  0
 22 23  1  0  0  0
 23 26  1  0  0  0
 23 24  1  0  0  0
 26 27  1  0  0  0
 27 28  2  0  0  0
 28 29  1  0  0  0
 29 30  2  0  0  0
 30 31  1  0  0  0
 31 32  2  0  0  0
 32 27  1  0  0  0
 24 25  1  0  0  0
 25 20  1  0  0  0
  5  6  1  0  0  0
  5  7  1  0  0  0
  7  1  1  0  0  0
 12 13  1  0  0  0
 12 14  2  0  0  0
 14  8  1  0  0  0
 16 19  1  0  0  0
M  END
>  <minimizedAffinity>
-3.85611

>  <minimizedRMSD>
1.67735

$$$$
CHEMBL3698740 PubChem-58300095


 33 38  0  0  0  0  0  0  0  0999 V2000
   15.2849   -9.1012   16.8698 C   0  0  0  0  0  0  0  0  0  0  0  0
   16.5738   -8.9707   17.3282 N   0  0  0  0  0  0  0  0  0  0  0  0
   16.8657   -8.3059   18.4844 C   0  0  0  0  0  0  0  0  0  0  0  0
   15.8062   -7.7595   19.1894 C   0  0  0  0  0  0  0  0  0  0  0  0
   15.7216   -7.0445   20.3605 C   0  0  0  0  0  0  0  0  0  0  0  0
   14.3808   -6.7794   20.5480 C   0  0  0  0  0  0  0  0  0  0  0  0
   13.9550   -6.0615   21.6619 C   0  0  0  0  0  0  0  0  0  0  0  0
   14.9018   -5.6355   22.5506 N   0  0  0  0  0  0  0  0  0  0  0  0
   16.2375   -5.8926   22.3765 C   0  0  0  0  0  0  0  0  0  0  0  0
   16.6914   -6.6158   21.2591 C   0  0  0  0  0  0  0  0  0  0  0  0
   13.6278   -7.2959   19.5486 N   0  0  0  0  0  0  0  0  0  0  0  0
   14.5233   -7.8934   18.7260 C   0  0  0  0  0  0  0  0  0  0  0  0
   14.2487   -8.5569   17.5764 N   0  0  0  0  0  0  0  0  0  0  0  0
   12.1745   -7.2149   19.4152 C   0  0  0  0  0  0  0  0  0  0  0  0
   11.7825   -6.4283   18.1739 C   0  0  0  0  0  0  0  0  0  0  0  0
   10.9290   -7.3525   17.3275 C   0  0  0  0  0  0  0  0  0  0  0  0
   10.4678   -8.4564   18.2524 C   0  0  0  0  0  0  0  0  0  0  0  0
   11.5653   -8.5982   19.2809 C   0  0  0  0  0  0  0  0  0  0  0  0
   14.9988   -9.8043   15.6531 N   0  0  0  0  0  0  0  0  0  0  0  0
   14.2413  -10.4325   15.6811 H   0  0  0  0  0  0  0  0  0  0  0  0
   16.9056   -9.5099   11.9251 C   0  0  0  0  0  0  0  0  0  0  0  0
   15.5645   -9.7060   12.0499 N   0  0  0  0  0  0  0  0  0  0  0  0
   14.9782   -9.7968   13.2455 N   0  0  0  0  0  0  0  0  0  0  0  0
   15.6890   -9.6982   14.4000 C   0  0  0  0  0  0  0  0  0  0  0  0
   17.0698   -9.4960   14.3266 C   0  0  0  0  0  0  0  0  0  0  0  0
   17.6830   -9.4011   13.0808 C   0  0  0  0  0  0  0  0  0  0  0  0
   17.8432   -9.6590    8.3050 C   0  0  0  0  0  0  0  0  0  0  0  0
   19.0542   -8.9312    8.8892 C   0  0  0  0  0  0  0  0  0  0  0  0
   18.8628   -8.9560   10.3962 C   0  0  0  0  0  0  0  0  0  0  0  0
   17.5036   -9.4169   10.6249 N   0  0  0  0  0  0  0  0  0  0  0  0
   16.8066   -9.7931    9.4112 C   0  0  0  0  0  0  0  0  0  0  0  0
   18.2297   -8.0842    6.6705 C   0  0  0  0  0  0  0  0  0  0  0  0
   17.3428   -9.0796    7.1162 O   0  0  0  0  0  0  0  0  0  0  0  0
 32 33  1  0  0  0
 27 33  1  0  0  0
 27 28  1  0  0  0
 28 29  1  0  0  0
 29 30  1  0  0  0
 30 31  1  0  0  0
 30 21  1  0  0  0
 31 27  1  0  0  0
 21 22  2  0  0  0
 22 23  1  0  0  0
 23 24  2  0  0  0
 24 25  1  0  0  0
 24 19  1  0  0  0
 25 26  2  0  0  0
 26 21  1  0  0  0
 19  1  1  0  0  0
  1  2  2  0  0  0
  2  3  1  0  0  0
  3  4  2  0  0  0
  4  5  1  0  0  0
  5  6  2  0  0  0
  6  7  1  0  0  0
  6 11  1  0  0  0
  7  8  2  0  0  0
  8  9  1  0  0  0
  9 10  2  0  0  0
 10  5  1  0  0  0
 11 12  1  0  0  0
 11 14  1  0  0  0
 12 13  2  0  0  0
 12  4  1  0  0  0
 13  1  1  0  0  0
 14 15  1  0  0  0
 15 16  1  0  0  0
 16 17  1  0  0  0
 17 18  1  0  0  0
 18 14  1  0  0  0
 19 20  1  0  0  0
M  END
>  <minimizedAffinity>
-3.85563

>  <minimizedRMSD>
1.71543

$$$$
CHEMBL3671369 PubChem-90683946


 35 39  0  0  0  0  0  0  0  0999 V2000
   16.3153   -9.3508   15.1058 C   0  0  0  0  0  0  0  0  0  0  0  0
   15.9497   -8.5058   16.1597 C   0  0  0  0  0  0  0  0  0  0  0  0
   16.2026   -8.8727   17.4870 C   0  0  0  0  0  0  0  0  0  0  0  0
   16.8373  -10.0913   17.7357 C   0  0  0  0  0  0  0  0  0  0  0  0
   17.2021  -10.8986   16.7044 N   0  0  0  0  0  0  0  0  0  0  0  0
   16.9618  -10.5550   15.4110 C   0  0  0  0  0  0  0  0  0  0  0  0
   15.8358   -8.0390   18.5942 N   0  0  0  0  0  0  0  0  0  0  0  0
   14.5111   -7.6140   18.9461 C   0  0  0  0  0  0  0  0  0  0  0  0
   13.5142   -7.9682   18.2613 O   0  0  0  0  0  0  0  0  0  0  0  0
   16.5682   -7.7258   19.1728 H   0  0  0  0  0  0  0  0  0  0  0  0
   14.3123   -6.7553   20.1189 C   0  0  0  0  0  0  0  0  0  0  0  0
   15.1164   -6.7512   21.2525 C   0  0  0  0  0  0  0  0  0  0  0  0
   14.5806   -5.8279   22.0626 N   0  0  0  0  0  0  0  0  0  0  0  0
   14.9870   -5.4368   23.2931 C   0  0  0  0  0  0  0  0  0  0  0  0
   14.2396   -4.4394   23.9320 C   0  0  0  0  0  0  0  0  0  0  0  0
   13.1480   -3.9049   23.3062 N   0  0  0  0  0  0  0  0  0  0  0  0
   12.7498   -4.3095   22.0643 C   0  0  0  0  0  0  0  0  0  0  0  0
   13.5117   -5.3111   21.4387 C   0  0  0  0  0  0  0  0  0  0  0  0
   13.3036   -5.8563   20.2254 N   0  0  0  0  0  0  0  0  0  0  0  0
   11.6198   -3.7127   21.4893 O   0  0  0  0  0  0  0  0  0  0  0  0
   10.5633   -4.4343   20.8723 C   0  0  0  0  0  0  0  0  0  0  0  0
   16.0759   -8.9378   13.7070 C   0  0  0  0  0  0  0  0  0  0  0  0
   15.0707   -8.2231   13.4449 O   0  0  0  0  0  0  0  0  0  0  0  0
   17.8671   -9.3974   10.5373 N   0  0  0  0  0  0  0  0  0  0  0  0
   16.9251   -8.7907   11.3041 C   0  0  0  0  0  0  0  0  0  0  0  0
   16.9825   -9.3076   12.6014 C   0  0  0  0  0  0  0  0  0  0  0  0
   17.9779  -10.2698   12.5862 C   0  0  0  0  0  0  0  0  0  0  0  0
   18.4416  -11.1734   13.5340 C   0  0  0  0  0  0  0  0  0  0  0  0
   19.4311  -12.0362   13.1592 N   0  0  0  0  0  0  0  0  0  0  0  0
   19.9429  -12.0280   11.8880 C   0  0  0  0  0  0  0  0  0  0  0  0
   19.4668  -11.1513   10.9548 N   0  0  0  0  0  0  0  0  0  0  0  0
   18.4896  -10.2875   11.3257 C   0  0  0  0  0  0  0  0  0  0  0  0
   16.8444   -9.1129    8.3323 C   0  0  0  0  0  0  0  0  0  0  0  0
   18.1387   -9.1579    9.1236 C   0  0  0  0  0  0  0  0  0  0  0  0
   18.9033   -7.8599    8.9412 C   0  0  0  0  0  0  0  0  0  0  0  0
 33 34  1  0  0  0
 34 35  1  0  0  0
 34 24  1  0  0  0
 24 25  1  0  0  0
 25 26  2  0  0  0
 26 27  1  0  0  0
 27 28  2  0  0  0
 28 29  1  0  0  0
 29 30  2  0  0  0
 30 31  1  0  0  0
 31 32  2  0  0  0
 26 22  1  0  0  0
 22 23  2  0  0  0
 22  1  1  0  0  0
  1  2  2  0  0  0
  2  3  1  0  0  0
  3  4  2  0  0  0
  4  5  1  0  0  0
  5  6  2  0  0  0
  3  7  1  0  0  0
  7  8  1  0  0  0
  8  9  2  0  0  0
  8 11  1  0  0  0
 11 12  2  0  0  0
 12 13  1  0  0  0
 13 14  1  0  0  0
 14 15  2  0  0  0
 15 16  1  0  0  0
 16 17  2  0  0  0
 17 18  1  0  0  0
 18 19  2  0  0  0
 17 20  1  0  0  0
 20 21  1  0  0  0
 32 24  1  0  0  0
 32 27  1  0  0  0
  6  1  1  0  0  0
 19 11  1  0  0  0
 18 13  1  0  0  0
  7 10  1  0  0  0
M  END
>  <minimizedAffinity>
-3.83607

>  <minimizedRMSD>
1.75653

$$$$
CHEMBL3641941 PubChem-58299565


 35 39  0  0  0  0  0  0  0  0999 V2000
   13.4635   -7.4252   18.2536 N   0  0  0  0  0  0  0  0  0  0  0  0
   13.9884   -6.9579   19.4153 C   0  0  0  0  0  0  0  0  0  0  0  0
   15.2969   -7.3647   19.5760 C   0  0  0  0  0  0  0  0  0  0  0  0
   16.0490   -7.0117   20.6902 C   0  0  0  0  0  0  0  0  0  0  0  0
   15.4082   -6.2136   21.6543 C   0  0  0  0  0  0  0  0  0  0  0  0
   14.1072   -5.8157   21.4834 N   0  0  0  0  0  0  0  0  0  0  0  0
   13.3755   -6.1678   20.3844 C   0  0  0  0  0  0  0  0  0  0  0  0
   15.5981   -8.1177   18.4661 C   0  0  0  0  0  0  0  0  0  0  0  0
   16.7372   -8.7894   18.0547 C   0  0  0  0  0  0  0  0  0  0  0  0
   16.6783   -9.4528   16.8628 N   0  0  0  0  0  0  0  0  0  0  0  0
   15.5414   -9.4629   16.0909 C   0  0  0  0  0  0  0  0  0  0  0  0
   14.4237   -8.7952   16.5097 N   0  0  0  0  0  0  0  0  0  0  0  0
   14.4679   -8.1322   17.6908 C   0  0  0  0  0  0  0  0  0  0  0  0
   11.6099   -5.8389   18.0300 C   0  0  0  0  0  0  0  0  0  0  0  0
   12.1234   -7.2319   17.7039 C   0  0  0  0  0  0  0  0  0  0  0  0
   11.1717   -8.2961   18.2284 C   0  0  0  0  0  0  0  0  0  0  0  0
    9.9508   -7.7162   18.5740 O   0  0  0  0  0  0  0  0  0  0  0  0
   10.0929   -7.0511   19.2656 H   0  0  0  0  0  0  0  0  0  0  0  0
   15.5001  -10.1660   14.8417 N   0  0  0  0  0  0  0  0  0  0  0  0
   14.8849  -10.9333   14.7948 H   0  0  0  0  0  0  0  0  0  0  0  0
   16.2506   -9.8818   13.6524 C   0  0  0  0  0  0  0  0  0  0  0  0
   15.5818   -9.5032   12.5299 N   0  0  0  0  0  0  0  0  0  0  0  0
   16.2265   -9.2182   11.3670 C   0  0  0  0  0  0  0  0  0  0  0  0
   17.6236   -9.3083   11.2866 C   0  0  0  0  0  0  0  0  0  0  0  0
   18.3286   -9.6951   12.4344 C   0  0  0  0  0  0  0  0  0  0  0  0
   17.6469   -9.9825   13.6165 C   0  0  0  0  0  0  0  0  0  0  0  0
   18.3154   -9.0031   10.0609 N   0  0  0  0  0  0  0  0  0  0  0  0
   19.5600   -8.2289   10.0864 C   0  0  0  0  0  0  0  0  0  0  0  0
   20.0154   -7.9020    8.6704 C   0  0  0  0  0  0  0  0  0  0  0  0
   18.8678   -7.4253    7.9014 N   0  0  0  0  0  0  0  0  0  0  0  0
   17.8910   -8.5013    7.6618 C   0  0  0  0  0  0  0  0  0  0  0  0
   17.8391   -9.5506    8.7875 C   0  0  0  0  0  0  0  0  0  0  0  0
   16.5162   -7.8801    7.5261 C   0  0  0  0  0  0  0  0  0  0  0  0
   18.2260   -9.2024    6.3599 C   0  0  0  0  0  0  0  0  0  0  0  0
   19.1957   -7.0698    7.0033 H   0  0  0  0  0  0  0  0  0  0  0  0
 15 14  1  0  0  0
 15 16  1  0  0  0
 15  1  1  0  0  0
 16 17  1  0  0  0
  1  2  1  0  0  0
  2  3  2  0  0  0
  3  4  1  0  0  0
  3  8  1  0  0  0
  4  5  2  0  0  0
  5  6  1  0  0  0
  6  7  2  0  0  0
  7  2  1  0  0  0
  8  9  2  0  0  0
  9 10  1  0  0  0
 10 11  2  0  0  0
 11 12  1  0  0  0
 11 19  1  0  0  0
 12 13  2  0  0  0
 13  1  1  0  0  0
 13  8  1  0  0  0
 19 21  1  0  0  0
 21 22  2  0  0  0
 22 23  1  0  0  0
 23 24  2  0  0  0
 24 25  1  0  0  0
 24 27  1  0  0  0
 25 26  2  0  0  0
 26 21  1  0  0  0
 27 28  1  0  0  0
 28 29  1  0  0  0
 29 30  1  0  0  0
 30 31  1  0  0  0
 31 32  1  0  0  0
 31 33  1  0  0  0
 31 34  1  0  0  0
 32 27  1  0  0  0
 17 18  1  0  0  0
 19 20  1  0  0  0
 30 35  1  0  0  0
M  END
>  <minimizedAffinity>
-3.80033

>  <minimizedRMSD>
1.72601

$$$$
CHEMBL3426595 PubChem-118737302


 32 34  0  0  0  0  0  0  0  0999 V2000
   17.3935   -8.9272   15.3638 C   0  0  0  0  0  0  0  0  0  0  0  0
   17.8627   -8.7985   16.6842 C   0  0  0  0  0  0  0  0  0  0  0  0
   17.0362   -8.3471   17.6718 N   0  0  0  0  0  0  0  0  0  0  0  0
   15.7562   -8.0253   17.3582 C   0  0  0  0  0  0  0  0  0  0  0  0
   15.2918   -8.1410   16.1081 N   0  0  0  0  0  0  0  0  0  0  0  0
   16.0611   -8.5814   15.0812 C   0  0  0  0  0  0  0  0  0  0  0  0
   14.0243   -7.7701   16.0536 N   0  0  0  0  0  0  0  0  0  0  0  0
   13.6735   -7.4076   17.3104 C   0  0  0  0  0  0  0  0  0  0  0  0
   14.7567   -7.5546   18.1880 C   0  0  0  0  0  0  0  0  0  0  0  0
   12.3069   -6.9253   17.6551 C   0  0  0  0  0  0  0  0  0  0  0  0
   19.2686   -9.1574   17.0045 C   0  0  0  0  0  0  0  0  0  0  0  0
   14.8285   -7.2788   19.6428 C   0  0  0  0  0  0  0  0  0  0  0  0
   13.6610   -7.1150   20.3993 C   0  0  0  0  0  0  0  0  0  0  0  0
   13.7204   -6.8536   21.7778 C   0  0  0  0  0  0  0  0  0  0  0  0
   14.9684   -6.7544   22.4099 C   0  0  0  0  0  0  0  0  0  0  0  0
   16.1404   -6.9180   21.6552 C   0  0  0  0  0  0  0  0  0  0  0  0
   16.0690   -7.1776   20.2854 C   0  0  0  0  0  0  0  0  0  0  0  0
   15.0206   -6.4937   23.7836 O   0  0  0  0  0  0  0  0  0  0  0  0
   15.8156   -7.2559   24.6817 C   0  0  0  0  0  0  0  0  0  0  0  0
   12.5551   -6.6896   22.5347 O   0  0  0  0  0  0  0  0  0  0  0  0
   11.8846   -5.4423   22.6537 C   0  0  0  0  0  0  0  0  0  0  0  0
   15.5175   -8.6911   13.7605 N   0  0  0  0  0  0  0  0  0  0  0  0
   14.9902   -7.9382   13.4078 H   0  0  0  0  0  0  0  0  0  0  0  0
   15.7059   -9.8602   12.9139 C   0  0  0  0  0  0  0  0  0  0  0  0
   17.0392   -9.7688   12.1904 C   0  0  0  0  0  0  0  0  0  0  0  0
   16.8407   -9.2923   10.8296 N   0  0  0  0  0  0  0  0  0  0  0  0
   17.9246   -8.9294    9.9714 C   0  0  0  0  0  0  0  0  0  0  0  0
   19.1147   -8.9772   10.3890 O   0  0  0  0  0  0  0  0  0  0  0  0
   15.9213   -9.2168   10.4857 H   0  0  0  0  0  0  0  0  0  0  0  0
   17.6319   -8.4862    8.5760 C   0  0  0  0  0  0  0  0  0  0  0  0
   17.3106   -9.6779    7.6946 C   0  0  0  0  0  0  0  0  0  0  0  0
   18.8086   -7.7210    8.0015 C   0  0  0  0  0  0  0  0  0  0  0  0
  1  2  1  0  0  0
  2  3  2  0  0  0
  3  4  1  0  0  0
  4  5  1  0  0  0
  5  6  1  0  0  0
  6 22  1  0  0  0
 22 24  1  0  0  0
 24 25  1  0  0  0
 25 26  1  0  0  0
 26 27  1  0  0  0
 27 28  2  0  0  0
 27 30  1  0  0  0
 30 31  1  0  0  0
 30 32  1  0  0  0
  5  7  1  0  0  0
  7  8  2  0  0  0
  8  9  1  0  0  0
  9 12  1  0  0  0
 12 13  2  0  0  0
 13 14  1  0  0  0
 14 15  2  0  0  0
 15 16  1  0  0  0
 16 17  2  0  0  0
 15 18  1  0  0  0
 18 19  1  0  0  0
 14 20  1  0  0  0
 20 21  1  0  0  0
  8 10  1  0  0  0
  2 11  1  0  0  0
  6  1  2  0  0  0
 17 12  1  0  0  0
  9  4  2  0  0  0
 22 23  1  0  0  0
 26 29  1  0  0  0
M  END
>  <minimizedAffinity>
-3.79018

>  <minimizedRMSD>
1.96664

$$$$
CHEMBL3622957 PubChem-161959719 PubChem-89708625


 34 38  0  0  0  0  0  0  0  0999 V2000
   16.8633   -9.6545   15.8491 C   0  0  0  0  0  0  0  0  0  0  0  0
   18.1252   -9.5054   16.3355 N   0  0  0  0  0  0  0  0  0  0  0  0
   18.3572   -8.8145   17.4808 C   0  0  0  0  0  0  0  0  0  0  0  0
   17.2946   -8.2376   18.1734 C   0  0  0  0  0  0  0  0  0  0  0  0
   16.0025   -8.3859   17.6589 C   0  0  0  0  0  0  0  0  0  0  0  0
   15.8180   -9.0896   16.5089 N   0  0  0  0  0  0  0  0  0  0  0  0
   14.8766   -7.7991   18.3248 N   0  0  0  0  0  0  0  0  0  0  0  0
   14.6518   -7.8076   19.6578 C   0  0  0  0  0  0  0  0  0  0  0  0
   13.4704   -7.1266   19.8669 C   0  0  0  0  0  0  0  0  0  0  0  0
   13.0387   -6.7268   18.6201 C   0  0  0  0  0  0  0  0  0  0  0  0
   13.9120   -7.1473   17.6901 N   0  0  0  0  0  0  0  0  0  0  0  0
   11.8181   -5.9311   18.3145 C   0  0  0  0  0  0  0  0  0  0  0  0
   12.8244   -6.8620   21.1865 C   0  0  0  0  0  0  0  0  0  0  0  0
   13.5238   -5.7957   21.8863 N   0  0  0  0  0  0  0  0  0  0  0  0
   12.5245   -5.0562   22.6429 C   0  0  0  0  0  0  0  0  0  0  0  0
   13.1135   -4.7189   23.9986 C   0  0  0  0  0  0  0  0  0  0  0  0
   14.4094   -5.4841   24.0751 C   0  0  0  0  0  0  0  0  0  0  0  0
   14.3826   -6.4121   22.8865 C   0  0  0  0  0  0  0  0  0  0  0  0
   14.4525   -6.2283   25.2539 O   0  0  0  0  0  0  0  0  0  0  0  0
   13.6886   -6.8251   25.2876 H   0  0  0  0  0  0  0  0  0  0  0  0
   16.6175  -10.3690   14.6312 N   0  0  0  0  0  0  0  0  0  0  0  0
   16.0437  -11.1662   14.6974 H   0  0  0  0  0  0  0  0  0  0  0  0
   16.8963   -9.2464    7.3603 C   0  0  0  0  0  0  0  0  0  0  0  0
   17.0995   -9.4209    8.8280 C   0  0  0  0  0  0  0  0  0  0  0  0
   16.1116   -9.7842    9.7380 C   0  0  0  0  0  0  0  0  0  0  0  0
   16.7337   -9.8148   10.9684 C   0  0  0  0  0  0  0  0  0  0  0  0
   18.0508   -9.4809   10.7675 C   0  0  0  0  0  0  0  0  0  0  0  0
   18.2822   -9.2389    9.4638 N   0  0  0  0  0  0  0  0  0  0  0  0
   19.5469   -8.8455    8.8601 C   0  0  0  0  0  0  0  0  0  0  0  0
   18.9575   -9.4142   11.8233 C   0  0  0  0  0  0  0  0  0  0  0  0
   18.4768   -9.7044   13.1117 C   0  0  0  0  0  0  0  0  0  0  0  0
   17.1180  -10.0470   13.3267 C   0  0  0  0  0  0  0  0  0  0  0  0
   16.2328  -10.1088   12.2342 C   0  0  0  0  0  0  0  0  0  0  0  0
   14.4208  -10.1175    9.3981 Cl  0  0  0  0  0  0  0  0  0  0  0  0
 23 24  1  0  0  0
 24 25  2  0  0  0
 25 26  1  0  0  0
 25 34  1  0  0  0
 26 27  2  0  0  0
 27 28  1  0  0  0
 27 30  1  0  0  0
 28 29  1  0  0  0
 28 24  1  0  0  0
 30 31  2  0  0  0
 31 32  1  0  0  0
 32 33  2  0  0  0
 32 21  1  0  0  0
 33 26  1  0  0  0
 21  1  1  0  0  0
  1  2  2  0  0  0
  2  3  1  0  0  0
  3  4  2  0  0  0
  4  5  1  0  0  0
  5  6  2  0  0  0
  5  7  1  0  0  0
  6  1  1  0  0  0
  7  8  1  0  0  0
  8  9  2  0  0  0
  9 10  1  0  0  0
  9 13  1  0  0  0
 10 11  2  0  0  0
 10 12  1  0  0  0
 11  7  1  0  0  0
 13 14  1  0  0  0
 14 15  1  0  0  0
 15 16  1  0  0  0
 16 17  1  0  0  0
 17 18  1  0  0  0
 17 19  1  0  0  0
 18 14  1  0  0  0
 21 22  1  0  0  0
 19 20  1  0  0  0
M  END
>  <minimizedAffinity>
-3.78377

>  <minimizedRMSD>
1.76591

$$$$
CHEMBL3717172 PubChem-57678407


 35 37  0  0  0  0  0  0  0  0999 V2000
   16.0786   -8.5207   17.0671 C   0  0  0  0  0  0  0  0  0  0  0  0
   15.5785   -7.5617   16.1782 C   0  0  0  0  0  0  0  0  0  0  0  0
   15.7695   -7.6990   14.8411 N   0  0  0  0  0  0  0  0  0  0  0  0
   16.4509   -8.7608   14.3393 C   0  0  0  0  0  0  0  0  0  0  0  0
   16.9519   -9.7027   15.1834 N   0  0  0  0  0  0  0  0  0  0  0  0
   16.7831   -9.6024   16.5275 C   0  0  0  0  0  0  0  0  0  0  0  0
   17.3253  -10.6051   17.3806 N   0  0  0  0  0  0  0  0  0  0  0  0
   17.8202  -11.3641   16.9956 H   0  0  0  0  0  0  0  0  0  0  0  0
   17.2054  -10.5394   18.3556 H   0  0  0  0  0  0  0  0  0  0  0  0
   16.6334   -8.8775   12.9270 N   0  0  0  0  0  0  0  0  0  0  0  0
   16.5159   -8.0745   12.3697 H   0  0  0  0  0  0  0  0  0  0  0  0
   16.9859  -10.1331   12.2744 C   0  0  0  0  0  0  0  0  0  0  0  0
   16.0075  -10.4248   11.1357 C   0  0  0  0  0  0  0  0  0  0  0  0
   16.2462   -9.4711    9.9651 C   0  0  0  0  0  0  0  0  0  0  0  0
   17.6221   -9.6013    9.4855 N   0  0  0  0  0  0  0  0  0  0  0  0
   18.5249   -9.1506   10.5447 C   0  0  0  0  0  0  0  0  0  0  0  0
   18.4245  -10.0857   11.7493 C   0  0  0  0  0  0  0  0  0  0  0  0
   17.8145   -8.5235    8.1397 S   0  0  0  0  0  0  0  0  0  0  0  0
   16.4833   -7.9514    7.7360 O   0  0  0  0  0  0  0  0  0  0  0  0
   18.7412   -7.4031    8.5204 O   0  0  0  0  0  0  0  0  0  0  0  0
   18.5162   -9.4028    6.7619 C   0  0  0  0  0  0  0  0  0  0  0  0
   15.9273   -8.4221   18.4615 O   0  0  0  0  0  0  0  0  0  0  0  0
   15.1203   -7.2334   20.4099 C   0  0  0  0  0  0  0  0  0  0  0  0
   14.8652   -7.8215   19.1618 C   0  0  0  0  0  0  0  0  0  0  0  0
   13.5546   -7.8190   18.6656 C   0  0  0  0  0  0  0  0  0  0  0  0
   12.5041   -7.2333   19.3772 C   0  0  0  0  0  0  0  0  0  0  0  0
   12.7630   -6.6294   20.6357 C   0  0  0  0  0  0  0  0  0  0  0  0
   14.0709   -6.6442   21.1289 C   0  0  0  0  0  0  0  0  0  0  0  0
   17.4355   -6.3537   20.1446 C   0  0  0  0  0  0  0  0  0  0  0  0
   16.5138   -7.2351   20.9677 C   0  0  0  0  0  0  0  0  0  0  0  0
   16.5243   -6.7909   22.4192 C   0  0  0  0  0  0  0  0  0  0  0  0
   11.7969   -6.0077   21.4446 O   0  0  0  0  0  0  0  0  0  0  0  0
   11.3951   -4.6488   21.3609 C   0  0  0  0  0  0  0  0  0  0  0  0
   11.1987   -7.2906   18.7720 C   0  0  0  0  0  0  0  0  0  0  0  0
   10.1074   -7.3552   18.2622 C   0  0  0  0  0  0  0  0  0  0  0  0
 29 30  1  0  0  0
 30 31  1  0  0  0
 30 23  1  0  0  0
 23 24  2  0  0  0
 24 25  1  0  0  0
 24 22  1  0  0  0
 25 26  2  0  0  0
 26 27  1  0  0  0
 26 34  1  0  0  0
 27 28  2  0  0  0
 27 32  1  0  0  0
 28 23  1  0  0  0
 32 33  1  0  0  0
 34 35  3  0  0  0
 22  1  1  0  0  0
  1  2  2  0  0  0
  2  3  1  0  0  0
  3  4  2  0  0  0
  4  5  1  0  0  0
  4 10  1  0  0  0
  5  6  2  0  0  0
  6  7  1  0  0  0
  6  1  1  0  0  0
 10 12  1  0  0  0
 12 13  1  0  0  0
 13 14  1  0  0  0
 14 15  1  0  0  0
 15 16  1  0  0  0
 15 18  1  0  0  0
 16 17  1  0  0  0
 17 12  1  0  0  0
 18 19  2  0  0  0
 18 20  2  0  0  0
 18 21  1  0  0  0
  7  8  1  0  0  0
  7  9  1  0  0  0
 10 11  1  0  0  0
M  END
>  <minimizedAffinity>
-3.78285

>  <minimizedRMSD>
1.58043

$$$$
CHEMBL4554238 PubChem-135281763


 35 39  0  0  0  0  0  0  0  0999 V2000
   17.2914   -9.5882   13.9475 C   0  0  0  0  0  0  0  0  0  0  0  0
   16.2108   -8.7834   14.3686 C   0  0  0  0  0  0  0  0  0  0  0  0
   16.0005   -8.6343   15.7364 C   0  0  0  0  0  0  0  0  0  0  0  0
   15.0247   -7.9089   16.3084 N   0  0  0  0  0  0  0  0  0  0  0  0
   15.2477   -8.0829   17.6368 C   0  0  0  0  0  0  0  0  0  0  0  0
   16.3511   -8.9080   17.8477 C   0  0  0  0  0  0  0  0  0  0  0  0
   16.7989   -9.2353   16.6282 N   0  0  0  0  0  0  0  0  0  0  0  0
   17.8498  -10.0176   16.2854 C   0  0  0  0  0  0  0  0  0  0  0  0
   18.1123  -10.2057   14.9213 C   0  0  0  0  0  0  0  0  0  0  0  0
   14.4043   -7.4590   18.6845 C   0  0  0  0  0  0  0  0  0  0  0  0
   13.0340   -7.3113   18.4270 C   0  0  0  0  0  0  0  0  0  0  0  0
   12.1795   -6.7330   19.3666 C   0  0  0  0  0  0  0  0  0  0  0  0
   12.6848   -6.2874   20.5935 C   0  0  0  0  0  0  0  0  0  0  0  0
   14.0534   -6.4303   20.8610 C   0  0  0  0  0  0  0  0  0  0  0  0
   14.9220   -7.0109   19.9221 C   0  0  0  0  0  0  0  0  0  0  0  0
   10.4745   -6.5767   18.9841 Cl  0  0  0  0  0  0  0  0  0  0  0  0
   16.2857   -7.1437   20.2107 O   0  0  0  0  0  0  0  0  0  0  0  0
   16.8860   -6.6003   21.3790 C   0  0  0  0  0  0  0  0  0  0  0  0
   11.8195   -5.7090   21.5287 O   0  0  0  0  0  0  0  0  0  0  0  0
   12.2083   -5.4292   22.8667 C   0  0  0  0  0  0  0  0  0  0  0  0
   17.5592   -9.3649    9.7896 N   0  0  0  0  0  0  0  0  0  0  0  0
   18.8577   -9.5150   10.4480 C   0  0  0  0  0  0  0  0  0  0  0  0
   18.7392   -9.1556   11.9282 C   0  0  0  0  0  0  0  0  0  0  0  0
   17.5579   -9.7756   12.5438 N   0  0  0  0  0  0  0  0  0  0  0  0
   16.6771  -10.6206   11.7332 C   0  0  0  0  0  0  0  0  0  0  0  0
   16.3528   -9.9239   10.4131 C   0  0  0  0  0  0  0  0  0  0  0  0
   18.5473   -8.0549    6.4869 C   0  0  0  0  0  0  0  0  0  0  0  0
   17.3888   -7.4843    6.0563 N   0  0  0  0  0  0  0  0  0  0  0  0
   16.2680   -7.5115    6.8216 C   0  0  0  0  0  0  0  0  0  0  0  0
   16.2913   -8.1304    8.0692 C   0  0  0  0  0  0  0  0  0  0  0  0
   17.4844   -8.7167    8.5080 C   0  0  0  0  0  0  0  0  0  0  0  0
   18.5830   -8.6630    7.7047 N   0  0  0  0  0  0  0  0  0  0  0  0
   19.7539   -8.6894    4.3768 C   0  0  0  0  0  0  0  0  0  0  0  0
   19.7222   -8.0156    5.6644 N   0  0  0  0  0  0  0  0  0  0  0  0
   20.9115   -7.3008    6.0973 C   0  0  0  0  0  0  0  0  0  0  0  0
 33 34  1  0  0  0
 34 35  1  0  0  0
 34 27  1  0  0  0
 27 28  2  0  0  0
 28 29  1  0  0  0
 29 30  2  0  0  0
 30 31  1  0  0  0
 31 32  2  0  0  0
 31 21  1  0  0  0
 21 22  1  0  0  0
 22 23  1  0  0  0
 23 24  1  0  0  0
 24 25  1  0  0  0
 25 26  1  0  0  0
 24  1  1  0  0  0
  1  2  2  0  0  0
  2  3  1  0  0  0
  3  4  2  0  0  0
  4  5  1  0  0  0
  5  6  2  0  0  0
  6  7  1  0  0  0
  7  8  1  0  0  0
  8  9  2  0  0  0
  5 10  1  0  0  0
 10 11  2  0  0  0
 11 12  1  0  0  0
 12 13  2  0  0  0
 13 14  1  0  0  0
 14 15  2  0  0  0
 15 17  1  0  0  0
 17 18  1  0  0  0
 13 19  1  0  0  0
 19 20  1  0  0  0
 12 16  1  0  0  0
 32 27  1  0  0  0
 26 21  1  0  0  0
  9  1  1  0  0  0
  7  3  1  0  0  0
 15 10  1  0  0  0
M  END
>  <minimizedAffinity>
-3.76852

>  <minimizedRMSD>
1.32418

$$$$
CHEMBL3715267 PubChem-57839078


 35 37  0  0  0  0  0  0  0  0999 V2000
   15.9797   -8.8383   17.9876 C   0  0  0  0  0  0  0  0  0  0  0  0
   16.7640   -9.9259   17.6075 C   0  0  0  0  0  0  0  0  0  0  0  0
   16.9264  -10.2251   16.2932 N   0  0  0  0  0  0  0  0  0  0  0  0
   16.3403   -9.4712   15.3241 C   0  0  0  0  0  0  0  0  0  0  0  0
   15.5934   -8.3908   15.6720 N   0  0  0  0  0  0  0  0  0  0  0  0
   15.4018   -8.0546   16.9742 C   0  0  0  0  0  0  0  0  0  0  0  0
   14.6712   -6.8732   17.2884 N   0  0  0  0  0  0  0  0  0  0  0  0
   14.2722   -6.3348   16.5672 H   0  0  0  0  0  0  0  0  0  0  0  0
   14.5650   -6.5950   18.2268 H   0  0  0  0  0  0  0  0  0  0  0  0
   16.5094   -9.7877   13.9377 N   0  0  0  0  0  0  0  0  0  0  0  0
   17.7511  -10.1034   13.2976 C   0  0  0  0  0  0  0  0  0  0  0  0
   18.8331  -10.1143   13.9422 O   0  0  0  0  0  0  0  0  0  0  0  0
   15.7013   -9.7883   13.3753 H   0  0  0  0  0  0  0  0  0  0  0  0
   17.7671  -10.3911   11.8366 C   0  0  0  0  0  0  0  0  0  0  0  0
   17.5004   -9.1686   11.0828 N   0  0  0  0  0  0  0  0  0  0  0  0
   18.5039   -8.9926   10.0270 C   0  0  0  0  0  0  0  0  0  0  0  0
   18.3876  -10.0606    8.9271 C   0  0  0  0  0  0  0  0  0  0  0  0
   17.0407  -10.1236    8.3517 N   0  0  0  0  0  0  0  0  0  0  0  0
   16.0345  -10.2921    9.4043 C   0  0  0  0  0  0  0  0  0  0  0  0
   16.1543   -9.2249   10.5051 C   0  0  0  0  0  0  0  0  0  0  0  0
   16.7671   -8.9092    7.5923 C   0  0  0  0  0  0  0  0  0  0  0  0
   15.8331   -8.5464   19.3499 O   0  0  0  0  0  0  0  0  0  0  0  0
   14.9582   -7.1313   21.1154 C   0  0  0  0  0  0  0  0  0  0  0  0
   14.7718   -7.8117   19.9008 C   0  0  0  0  0  0  0  0  0  0  0  0
   13.5148   -7.7747   19.2773 C   0  0  0  0  0  0  0  0  0  0  0  0
   12.4569   -7.0571   19.8396 C   0  0  0  0  0  0  0  0  0  0  0  0
   12.6402   -6.3665   21.0480 C   0  0  0  0  0  0  0  0  0  0  0  0
   13.8932   -6.4112   21.6780 C   0  0  0  0  0  0  0  0  0  0  0  0
   16.1806   -6.7267   23.2468 C   0  0  0  0  0  0  0  0  0  0  0  0
   16.2928   -7.1727   21.8003 C   0  0  0  0  0  0  0  0  0  0  0  0
   17.3114   -6.3185   21.0677 C   0  0  0  0  0  0  0  0  0  0  0  0
   11.5761   -5.6476   21.6063 O   0  0  0  0  0  0  0  0  0  0  0  0
   11.5765   -5.1935   22.9530 C   0  0  0  0  0  0  0  0  0  0  0  0
   11.1870   -7.0407   19.1628 C   0  0  0  0  0  0  0  0  0  0  0  0
   10.1232   -7.0268   18.5955 C   0  0  0  0  0  0  0  0  0  0  0  0
 29 30  1  0  0  0
 30 31  1  0  0  0
 30 23  1  0  0  0
 23 24  2  0  0  0
 24 25  1  0  0  0
 24 22  1  0  0  0
 25 26  2  0  0  0
 26 27  1  0  0  0
 26 34  1  0  0  0
 27 28  2  0  0  0
 27 32  1  0  0  0
 28 23  1  0  0  0
 32 33  1  0  0  0
 34 35  3  0  0  0
 22  1  1  0  0  0
  1  2  2  0  0  0
  2  3  1  0  0  0
  3  4  2  0  0  0
  4  5  1  0  0  0
  4 10  1  0  0  0
  5  6  2  0  0  0
  6  7  1  0  0  0
  6  1  1  0  0  0
 10 11  1  0  0  0
 11 12  2  0  0  0
 11 14  1  0  0  0
 14 15  1  0  0  0
 15 16  1  0  0  0
 16 17  1  0  0  0
 17 18  1  0  0  0
 18 19  1  0  0  0
 18 21  1  0  0  0
 19 20  1  0  0  0
 20 15  1  0  0  0
  7  8  1  0  0  0
  7  9  1  0  0  0
 10 13  1  0  0  0
M  END
>  <minimizedAffinity>
-3.75104

>  <minimizedRMSD>
1.81727

$$$$
CHEMBL4967158 15005290 PubChem-26360877 ZINC000015005290


 34 38  0  0  0  0  0  0  0  0999 V2000
   15.3079   -7.2720   18.4984 N   0  0  0  0  0  0  0  0  0  0  0  0
   16.6071   -7.9513   18.6303 C   0  0  0  0  0  0  0  0  0  0  0  0
   16.6955   -9.2388   17.8039 C   0  0  0  0  0  0  0  0  0  0  0  0
   16.2746   -8.9603   16.3730 C   0  0  0  0  0  0  0  0  0  0  0  0
   17.4150   -8.5932   15.4591 C   0  0  0  0  0  0  0  0  0  0  0  0
   16.7515   -9.9663   15.3270 C   0  0  0  0  0  0  0  0  0  0  0  0
   15.0197   -8.1207   16.1605 C   0  0  0  0  0  0  0  0  0  0  0  0
   15.0420   -6.9089   17.0986 C   0  0  0  0  0  0  0  0  0  0  0  0
   15.8815  -10.0263   14.0981 C   0  0  0  0  0  0  0  0  0  0  0  0
   14.6281   -9.9944   14.2371 O   0  0  0  0  0  0  0  0  0  0  0  0
   16.4494  -10.1765   12.7857 N   0  0  0  0  0  0  0  0  0  0  0  0
   17.8624  -10.5223   12.6224 C   0  0  0  0  0  0  0  0  0  0  0  0
   18.4794   -9.6837   11.5046 C   0  0  0  0  0  0  0  0  0  0  0  0
   17.6153   -9.6438   10.3169 N   0  0  0  0  0  0  0  0  0  0  0  0
   16.3437  -10.3719   10.3203 C   0  0  0  0  0  0  0  0  0  0  0  0
   15.5773  -10.0829   11.6098 C   0  0  0  0  0  0  0  0  0  0  0  0
   18.0376   -8.9293    9.1388 C   0  0  0  0  0  0  0  0  0  0  0  0
   18.9394   -7.8558    9.2374 C   0  0  0  0  0  0  0  0  0  0  0  0
   19.3471   -7.1610    8.0952 C   0  0  0  0  0  0  0  0  0  0  0  0
   18.8574   -7.5308    6.8405 C   0  0  0  0  0  0  0  0  0  0  0  0
   17.9600   -8.5952    6.7277 C   0  0  0  0  0  0  0  0  0  0  0  0
   17.5523   -9.2900    7.8699 C   0  0  0  0  0  0  0  0  0  0  0  0
   14.2258   -8.1061   19.0203 C   0  0  0  0  0  0  0  0  0  0  0  0
   11.8237   -5.8375   21.7811 C   0  0  0  0  0  0  0  0  0  0  0  0
   12.9072   -6.5962   22.2517 C   0  0  0  0  0  0  0  0  0  0  0  0
   13.6945   -7.3408   21.3705 C   0  0  0  0  0  0  0  0  0  0  0  0
   15.0311   -8.2764   22.0225 Cl  0  0  0  0  0  0  0  0  0  0  0  0
   13.3997   -7.3331   19.9971 C   0  0  0  0  0  0  0  0  0  0  0  0
   12.3213   -6.5782   19.5261 C   0  0  0  0  0  0  0  0  0  0  0  0
   11.5286   -5.8287   20.4098 C   0  0  0  0  0  0  0  0  0  0  0  0
   11.5224   -4.5568   23.8785 C   0  0  0  0  0  0  0  0  0  0  0  0
   11.0297   -5.0878   22.6558 O   0  0  0  0  0  0  0  0  0  0  0  0
   10.4473   -5.0705   19.9480 O   0  0  0  0  0  0  0  0  0  0  0  0
   10.5765   -4.0864   18.9310 C   0  0  0  0  0  0  0  0  0  0  0  0
 31 32  1  0  0  0
 32 24  1  0  0  0
 24 25  2  0  0  0
 25 26  1  0  0  0
 26 27  1  0  0  0
 26 28  2  0  0  0
 28 23  1  0  0  0
 23  1  1  0  0  0
  1  2  1  0  0  0
  2  3  1  0  0  0
  3  4  1  0  0  0
  4  5  1  0  0  0
  5  6  1  0  0  0
  6  9  1  0  0  0
  9 10  2  0  0  0
  9 11  1  0  0  0
 11 12  1  0  0  0
 12 13  1  0  0  0
 13 14  1  0  0  0
 14 17  1  0  0  0
 17 18  2  0  0  0
 18 19  1  0  0  0
 19 20  2  0  0  0
 20 21  1  0  0  0
 21 22  2  0  0  0
 14 15  1  0  0  0
 15 16  1  0  0  0
  4  7  1  0  0  0
  7  8  1  0  0  0
 28 29  1  0  0  0
 29 30  2  0  0  0
 30 33  1  0  0  0
 33 34  1  0  0  0
 30 24  1  0  0  0
  8  1  1  0  0  0
  6  4  1  0  0  0
 16 11  1  0  0  0
 22 17  1  0  0  0
M  END
>  <minimizedAffinity>
-3.74470

>  <minimizedRMSD>
1.73755

$$$$
CHEMBL4532138 PubChem-135335557


 31 34  0  0  0  0  0  0  0  0999 V2000
   14.9615   -7.6854   18.6071 C   0  0  0  0  0  0  0  0  0  0  0  0
   16.0893   -8.5035   18.5510 C   0  0  0  0  0  0  0  0  0  0  0  0
   16.2621   -8.7927   17.2542 N   0  0  0  0  0  0  0  0  0  0  0  0
   17.2173   -9.5541   16.6688 C   0  0  0  0  0  0  0  0  0  0  0  0
   17.1774   -9.7028   15.2755 C   0  0  0  0  0  0  0  0  0  0  0  0
   16.1611   -9.0675   14.5255 C   0  0  0  0  0  0  0  0  0  0  0  0
   15.1932   -8.2869   15.1902 C   0  0  0  0  0  0  0  0  0  0  0  0
   15.2851   -8.1768   16.5748 C   0  0  0  0  0  0  0  0  0  0  0  0
   14.4533   -7.4780   17.3657 N   0  0  0  0  0  0  0  0  0  0  0  0
   13.2775   -6.2418   19.8378 C   0  0  0  0  0  0  0  0  0  0  0  0
   12.7851   -5.7377   21.0527 C   0  0  0  0  0  0  0  0  0  0  0  0
   13.3755   -6.0854   22.2757 C   0  0  0  0  0  0  0  0  0  0  0  0
   14.4756   -6.9511   22.2805 C   0  0  0  0  0  0  0  0  0  0  0  0
   14.9723   -7.4572   21.0787 C   0  0  0  0  0  0  0  0  0  0  0  0
   14.3885   -7.1153   19.8498 C   0  0  0  0  0  0  0  0  0  0  0  0
   15.2495   -7.4162   23.7847 Cl  0  0  0  0  0  0  0  0  0  0  0  0
   11.6903   -4.8610   18.5256 C   0  0  0  0  0  0  0  0  0  0  0  0
   12.6737   -5.8824   18.6265 O   0  0  0  0  0  0  0  0  0  0  0  0
   12.8852   -5.5836   23.4864 O   0  0  0  0  0  0  0  0  0  0  0  0
   11.5902   -5.0124   23.6145 C   0  0  0  0  0  0  0  0  0  0  0  0
   16.1148   -9.2164   13.0974 N   0  0  0  0  0  0  0  0  0  0  0  0
   15.3735  -10.2653   12.4259 C   0  0  0  0  0  0  0  0  0  0  0  0
   15.5096   -9.9804   10.9422 C   0  0  0  0  0  0  0  0  0  0  0  0
   16.6001   -8.9271   10.7956 C   0  0  0  0  0  0  0  0  0  0  0  0
   16.8110   -8.3368   12.1791 C   0  0  0  0  0  0  0  0  0  0  0  0
   17.8283   -9.5676   10.3508 N   0  0  0  0  0  0  0  0  0  0  0  0
   17.7174  -10.5813   10.3729 H   0  0  0  0  0  0  0  0  0  0  0  0
   18.1490   -9.0469    8.7297 S   0  0  0  0  0  0  0  0  0  0  0  0
   18.6928  -10.2032    7.9398 O   0  0  0  0  0  0  0  0  0  0  0  0
   19.1612   -7.9357    8.7394 O   0  0  0  0  0  0  0  0  0  0  0  0
   16.6484   -8.4761    7.9636 C   0  0  0  0  0  0  0  0  0  0  0  0
 17 18  1  0  0  0
 18 10  1  0  0  0
 10 11  2  0  0  0
 11 12  1  0  0  0
 12 13  2  0  0  0
 13 14  1  0  0  0
 14 15  2  0  0  0
 15  1  1  0  0  0
  1  2  2  0  0  0
  2  3  1  0  0  0
  3  4  1  0  0  0
  4  5  2  0  0  0
  5  6  1  0  0  0
  6  7  2  0  0  0
  7  8  1  0  0  0
  8  9  2  0  0  0
  6 21  1  0  0  0
 21 22  1  0  0  0
 22 23  1  0  0  0
 23 24  1  0  0  0
 24 25  1  0  0  0
 24 26  1  0  0  0
 26 28  1  0  0  0
 28 29  2  0  0  0
 28 30  2  0  0  0
 28 31  1  0  0  0
 13 16  1  0  0  0
 12 19  1  0  0  0
 19 20  1  0  0  0
 15 10  1  0  0  0
  9  1  1  0  0  0
  8  3  1  0  0  0
 25 21  1  0  0  0
 26 27  1  0  0  0
M  END
>  <minimizedAffinity>
-3.73279

>  <minimizedRMSD>
1.46417

$$$$
CHEMBL4092881 PubChem-118540645


 35 40  0  0  0  0  0  0  0  0999 V2000
   16.9241  -10.8790   16.8756 C   0  0  0  0  0  0  0  0  0  0  0  0
   16.6157   -9.5235   16.4472 N   0  0  0  0  0  0  0  0  0  0  0  0
   15.6099   -8.7307   16.8538 C   0  0  0  0  0  0  0  0  0  0  0  0
   15.6594   -7.5269   16.2494 N   0  0  0  0  0  0  0  0  0  0  0  0
   16.7042   -7.5483   15.4317 N   0  0  0  0  0  0  0  0  0  0  0  0
   17.2743   -8.7623   15.5573 C   0  0  0  0  0  0  0  0  0  0  0  0
   18.7352   -9.2771   14.6552 S   0  0  0  0  0  0  0  0  0  0  0  0
   17.7873  -10.3983   13.5811 C   0  0  0  0  0  0  0  0  0  0  0  0
   17.5006   -9.7477   12.2724 C   0  0  0  0  0  0  0  0  0  0  0  0
   16.4524   -9.0625   12.1265 O   0  0  0  0  0  0  0  0  0  0  0  0
   18.4177   -9.9233   11.1864 N   0  0  0  0  0  0  0  0  0  0  0  0
   19.2099  -10.4863   11.3432 H   0  0  0  0  0  0  0  0  0  0  0  0
   18.2606   -9.3265    9.8630 C   0  0  0  0  0  0  0  0  0  0  0  0
   18.9610   -7.9543    9.8093 C   0  0  0  0  0  0  0  0  0  0  0  0
   18.8075   -7.3389    8.4098 C   0  0  0  0  0  0  0  0  0  0  0  0
   17.3124   -7.1741    8.0885 C   0  0  0  0  0  0  0  0  0  0  0  0
   16.6111   -8.5424    8.1231 C   0  0  0  0  0  0  0  0  0  0  0  0
   16.7664   -9.1573    9.5227 C   0  0  0  0  0  0  0  0  0  0  0  0
   17.2647   -9.4733    7.0888 C   0  0  0  0  0  0  0  0  0  0  0  0
   18.7579   -9.6497    7.4107 C   0  0  0  0  0  0  0  0  0  0  0  0
   19.4488   -8.2769    7.3743 C   0  0  0  0  0  0  0  0  0  0  0  0
   18.9047  -10.2535    8.8176 C   0  0  0  0  0  0  0  0  0  0  0  0
   14.6040   -9.0978   17.8947 C   0  0  0  0  0  0  0  0  0  0  0  0
   14.4801   -8.0006   18.9042 C   0  0  0  0  0  0  0  0  0  0  0  0
   15.5003   -7.7909   19.7771 N   0  0  0  0  0  0  0  0  0  0  0  0
   15.4699   -6.8175   20.6894 N   0  0  0  0  0  0  0  0  0  0  0  0
   14.3991   -5.9742   20.7875 C   0  0  0  0  0  0  0  0  0  0  0  0
   14.3841   -5.0603   21.6604 O   0  0  0  0  0  0  0  0  0  0  0  0
   13.3147   -6.1337   19.9131 C   0  0  0  0  0  0  0  0  0  0  0  0
   12.1948   -5.2898   19.9789 C   0  0  0  0  0  0  0  0  0  0  0  0
   11.1231   -5.4705   19.1005 C   0  0  0  0  0  0  0  0  0  0  0  0
   11.1613   -6.4940   18.1510 C   0  0  0  0  0  0  0  0  0  0  0  0
   12.2718   -7.3387   18.0760 C   0  0  0  0  0  0  0  0  0  0  0  0
   13.3541   -7.1669   18.9533 C   0  0  0  0  0  0  0  0  0  0  0  0
   16.6113   -6.6734   21.5810 C   0  0  0  0  0  0  0  0  0  0  0  0
  1  2  1  0  0  0
  2  3  1  0  0  0
  3  4  2  0  0  0
  4  5  1  0  0  0
  5  6  2  0  0  0
  6  7  1  0  0  0
  7  8  1  0  0  0
  8  9  1  0  0  0
  9 10  2  0  0  0
  9 11  1  0  0  0
 11 13  1  0  0  0
 13 14  1  0  0  0
 14 15  1  0  0  0
 15 16  1  0  0  0
 16 17  1  0  0  0
 17 18  1  0  0  0
 17 19  1  0  0  0
 19 20  1  0  0  0
 20 21  1  0  0  0
 20 22  1  0  0  0
  3 23  1  0  0  0
 23 24  1  0  0  0
 24 25  2  0  0  0
 25 26  1  0  0  0
 26 27  1  0  0  0
 27 28  2  0  0  0
 27 29  1  0  0  0
 29 30  2  0  0  0
 30 31  1  0  0  0
 31 32  2  0  0  0
 32 33  1  0  0  0
 33 34  2  0  0  0
 26 35  1  0  0  0
  6  2  1  0  0  0
 18 13  1  0  0  0
 22 13  1  0  0  0
 21 15  1  0  0  0
 34 24  1  0  0  0
 34 29  1  0  0  0
 11 12  1  0  0  0
M  END
>  <minimizedAffinity>
-3.72690

>  <minimizedRMSD>
1.23096

$$$$
CHEMBL3126598 PubChem-76310993


 39 41  0  0  0  0  0  0  0  0999 V2000
   15.4602   -6.9338   20.3048 C   0  0  0  0  0  0  0  0  0  0  0  0
   15.9552   -7.6271   19.1927 C   0  0  0  0  0  0  0  0  0  0  0  0
   15.1494   -7.8753   18.0791 C   0  0  0  0  0  0  0  0  0  0  0  0
   13.8293   -7.4215   18.0770 C   0  0  0  0  0  0  0  0  0  0  0  0
   13.3156   -6.7241   19.1712 C   0  0  0  0  0  0  0  0  0  0  0  0
   11.9003   -6.2597   19.1171 C   0  0  0  0  0  0  0  0  0  0  0  0
   14.1181   -6.4614   20.2977 C   0  0  0  0  0  0  0  0  0  0  0  0
   15.6860   -8.6067   16.9210 C   0  0  0  0  0  0  0  0  0  0  0  0
   16.6608   -9.5343   17.0065 N   0  0  0  0  0  0  0  0  0  0  0  0
   16.8452   -9.9380   15.7870 O   0  0  0  0  0  0  0  0  0  0  0  0
   16.0316   -9.2976   14.9829 C   0  0  0  0  0  0  0  0  0  0  0  0
   15.2561   -8.4240   15.6539 N   0  0  0  0  0  0  0  0  0  0  0  0
   15.9702   -9.5019   13.5314 C   0  0  0  0  0  0  0  0  0  0  0  0
   17.1134   -9.3217   12.7464 C   0  0  0  0  0  0  0  0  0  0  0  0
   17.0489   -9.5175   11.3591 C   0  0  0  0  0  0  0  0  0  0  0  0
   15.8240   -9.8927   10.7884 C   0  0  0  0  0  0  0  0  0  0  0  0
   14.7029  -10.0633   11.6017 C   0  0  0  0  0  0  0  0  0  0  0  0
   13.4035  -10.4593   10.9997 C   0  0  0  0  0  0  0  0  0  0  0  0
   14.7981   -9.8668   12.9433 N   0  0  0  0  0  0  0  0  0  0  0  0
   18.2202   -9.3352   10.5350 N   0  0  0  0  0  0  0  0  0  0  0  0
   19.4886   -9.9770   10.8624 C   0  0  0  0  0  0  0  0  0  0  0  0
   19.2756  -11.0696   11.8942 C   0  0  0  0  0  0  0  0  0  0  0  0
   18.1865   -8.5001    9.3390 C   0  0  0  0  0  0  0  0  0  0  0  0
   19.4389   -7.6454    9.2581 C   0  0  0  0  0  0  0  0  0  0  0  0
   16.0370   -7.5864   22.6271 C   0  0  0  0  0  0  0  0  0  0  0  0
   16.4015   -6.7068   21.4445 C   0  0  0  0  0  0  0  0  0  0  0  0
   13.5279   -5.7458   21.3560 O   0  0  0  0  0  0  0  0  0  0  0  0
   13.2037   -6.2701   22.6386 C   0  0  0  0  0  0  0  0  0  0  0  0
   13.8246   -5.4205   23.7353 C   0  0  0  0  0  0  0  0  0  0  0  0
   14.5623   -4.3777   23.1710 O   0  0  0  0  0  0  0  0  0  0  0  0
   13.9750   -3.8156   22.6419 H   0  0  0  0  0  0  0  0  0  0  0  0
   12.7458   -4.8661   24.6508 C   0  0  0  0  0  0  0  0  0  0  0  0
   12.0233   -3.7993   23.9766 N   0  0  0  0  0  0  0  0  0  0  0  0
   10.7657   -4.0251   23.3398 C   0  0  0  0  0  0  0  0  0  0  0  0
   10.2394   -5.1700   23.3454 O   0  0  0  0  0  0  0  0  0  0  0  0
   12.4127   -2.8952   23.9587 H   0  0  0  0  0  0  0  0  0  0  0  0
   10.0899   -2.9072   22.6294 C   0  0  0  0  0  0  0  0  0  0  0  0
    9.3363   -2.1633   23.5378 O   0  0  0  0  0  0  0  0  0  0  0  0
    8.6681   -2.7345   23.9478 H   0  0  0  0  0  0  0  0  0  0  0  0
 25 26  1  0  0  0
 26  1  1  0  0  0
  1  2  2  0  0  0
  2  3  1  0  0  0
  3  8  1  0  0  0
  3  4  2  0  0  0
  8  9  2  0  0  0
  9 10  1  0  0  0
 10 11  1  0  0  0
 11 13  1  0  0  0
 11 12  2  0  0  0
 13 14  2  0  0  0
 14 15  1  0  0  0
 15 20  1  0  0  0
 15 16  2  0  0  0
 20 21  1  0  0  0
 20 23  1  0  0  0
 21 22  1  0  0  0
 23 24  1  0  0  0
 16 17  1  0  0  0
 17 18  1  0  0  0
 17 19  2  0  0  0
 19 13  1  0  0  0
 12  8  1  0  0  0
  4  5  1  0  0  0
  5  6  1  0  0  0
  5  7  2  0  0  0
  7 27  1  0  0  0
  7  1  1  0  0  0
 27 28  1  0  0  0
 29 28  1  0  0  0
 29 30  1  0  0  0
 29 32  1  0  0  0
 32 33  1  0  0  0
 33 34  1  0  0  0
 34 35  2  0  0  0
 34 37  1  0  0  0
 37 38  1  0  0  0
 30 31  1  0  0  0
 33 36  1  0  0  0
 38 39  1  0  0  0
M  END
>  <minimizedAffinity>
-3.71555

>  <minimizedRMSD>
1.92674

$$$$
CHEMBL4879151 PubChem-130471920


 31 33  0  0  0  0  0  0  0  0999 V2000
   16.4294  -10.2756   17.8677 C   0  0  0  0  0  0  0  0  0  0  0  0
   16.2749   -9.1401   16.9111 C   0  0  0  0  0  0  0  0  0  0  0  0
   16.7297   -9.0850   15.6139 C   0  0  0  0  0  0  0  0  0  0  0  0
   16.2537   -7.9597   15.0461 N   0  0  0  0  0  0  0  0  0  0  0  0
   15.5276   -7.3441   15.9701 N   0  0  0  0  0  0  0  0  0  0  0  0
   15.5343   -8.0309   17.1034 N   0  0  0  0  0  0  0  0  0  0  0  0
   14.7879   -7.6513   18.2690 C   0  0  0  0  0  0  0  0  0  0  0  0
   15.4319   -7.2990   19.4713 C   0  0  0  0  0  0  0  0  0  0  0  0
   14.6578   -6.9374   20.5851 C   0  0  0  0  0  0  0  0  0  0  0  0
   13.2638   -6.9047   20.5089 C   0  0  0  0  0  0  0  0  0  0  0  0
   12.6189   -7.2226   19.3038 C   0  0  0  0  0  0  0  0  0  0  0  0
   13.3909   -7.5909   18.1914 C   0  0  0  0  0  0  0  0  0  0  0  0
   11.2215   -7.1701   19.2280 O   0  0  0  0  0  0  0  0  0  0  0  0
   10.4780   -7.8599   18.2322 C   0  0  0  0  0  0  0  0  0  0  0  0
   12.5093   -6.5281   21.6748 C   0  0  0  0  0  0  0  0  0  0  0  0
   11.9023   -6.2252   22.6124 N   0  0  0  0  0  0  0  0  0  0  0  0
   16.8300   -7.2845   19.5353 O   0  0  0  0  0  0  0  0  0  0  0  0
   17.5477   -6.6558   20.5886 C   0  0  0  0  0  0  0  0  0  0  0  0
   17.7026  -10.2841   14.7808 S   0  0  0  0  0  0  0  0  0  0  0  0
   17.1416  -11.6552   15.0351 O   0  0  0  0  0  0  0  0  0  0  0  0
   19.1175  -10.2285   15.2849 O   0  0  0  0  0  0  0  0  0  0  0  0
   17.6918   -9.9577   13.0564 C   0  0  0  0  0  0  0  0  0  0  0  0
   16.4790   -9.8296   12.3736 C   0  0  0  0  0  0  0  0  0  0  0  0
   16.4715   -9.5529   11.0041 C   0  0  0  0  0  0  0  0  0  0  0  0
   17.6766   -9.3804   10.2990 C   0  0  0  0  0  0  0  0  0  0  0  0
   18.8896   -9.5360   10.9943 C   0  0  0  0  0  0  0  0  0  0  0  0
   18.8970   -9.8129   12.3639 C   0  0  0  0  0  0  0  0  0  0  0  0
   17.6695   -9.1499    8.7994 C   0  0  0  0  0  0  0  0  0  0  0  0
   18.1600  -10.4030    8.0991 C   0  0  0  0  0  0  0  0  0  0  0  0
   16.2729   -8.8265    8.2897 C   0  0  0  0  0  0  0  0  0  0  0  0
   18.5750   -7.9914    8.4086 C   0  0  0  0  0  0  0  0  0  0  0  0
  1  2  1  0  0  0
  2  3  2  0  0  0
  3  4  1  0  0  0
  4  5  2  0  0  0
  5  6  1  0  0  0
  6  7  1  0  0  0
  7  8  2  0  0  0
  8  9  1  0  0  0
  9 10  2  0  0  0
 10 11  1  0  0  0
 11 12  2  0  0  0
 11 13  1  0  0  0
 13 14  1  0  0  0
 10 15  1  0  0  0
 15 16  3  0  0  0
  8 17  1  0  0  0
 17 18  1  0  0  0
  3 19  1  0  0  0
 19 20  2  0  0  0
 19 21  2  0  0  0
 19 22  1  0  0  0
 22 23  2  0  0  0
 23 24  1  0  0  0
 24 25  2  0  0  0
 25 26  1  0  0  0
 26 27  2  0  0  0
 25 28  1  0  0  0
 28 29  1  0  0  0
 28 30  1  0  0  0
 28 31  1  0  0  0
  6  2  1  0  0  0
 12  7  1  0  0  0
 27 22  1  0  0  0
M  END
>  <minimizedAffinity>
-3.69913

>  <minimizedRMSD>
0.99843

$$$$
CHEMBL3641910 PubChem-58299863


 34 38  0  0  0  0  0  0  0  0999 V2000
   15.4288   -9.4780   16.1398 C   0  0  0  0  0  0  0  0  0  0  0  0
   16.5883   -9.5309   16.8773 N   0  0  0  0  0  0  0  0  0  0  0  0
   16.7231   -8.8620   18.0598 C   0  0  0  0  0  0  0  0  0  0  0  0
   15.6433   -8.1111   18.4935 C   0  0  0  0  0  0  0  0  0  0  0  0
   15.4224   -7.3296   19.6041 C   0  0  0  0  0  0  0  0  0  0  0  0
   14.1411   -6.8363   19.4720 C   0  0  0  0  0  0  0  0  0  0  0  0
   13.6048   -6.0000   20.4478 C   0  0  0  0  0  0  0  0  0  0  0  0
   14.3874   -5.6872   21.5239 N   0  0  0  0  0  0  0  0  0  0  0  0
   15.6652   -6.1653   21.6639 C   0  0  0  0  0  0  0  0  0  0  0  0
   16.2265   -7.0130   20.6924 C   0  0  0  0  0  0  0  0  0  0  0  0
   13.5581   -7.2762   18.3322 N   0  0  0  0  0  0  0  0  0  0  0  0
   14.4965   -8.0519   17.7450 C   0  0  0  0  0  0  0  0  0  0  0  0
   14.3750   -8.7204   16.5722 N   0  0  0  0  0  0  0  0  0  0  0  0
   15.3214  -10.1708   14.8887 N   0  0  0  0  0  0  0  0  0  0  0  0
   14.6342  -10.8731   14.8276 H   0  0  0  0  0  0  0  0  0  0  0  0
   17.5944   -9.5220   11.3837 C   0  0  0  0  0  0  0  0  0  0  0  0
   16.1925   -9.4922   11.3808 C   0  0  0  0  0  0  0  0  0  0  0  0
   15.4959   -9.7039   12.5303 N   0  0  0  0  0  0  0  0  0  0  0  0
   16.1173   -9.9408   13.7171 C   0  0  0  0  0  0  0  0  0  0  0  0
   17.5162   -9.9890   13.7624 C   0  0  0  0  0  0  0  0  0  0  0  0
   18.2499   -9.7787   12.5954 C   0  0  0  0  0  0  0  0  0  0  0  0
   17.4098   -9.0882    6.5372 C   0  0  0  0  0  0  0  0  0  0  0  0
   17.7948   -8.5885    7.9129 C   0  0  0  0  0  0  0  0  0  0  0  0
   17.8657   -9.7670    8.8799 C   0  0  0  0  0  0  0  0  0  0  0  0
   18.3409   -9.2873   10.1760 N   0  0  0  0  0  0  0  0  0  0  0  0
   19.5575   -8.4783   10.1833 C   0  0  0  0  0  0  0  0  0  0  0  0
   19.4143   -7.3595    9.1535 C   0  0  0  0  0  0  0  0  0  0  0  0
   19.0963   -7.9239    7.8414 N   0  0  0  0  0  0  0  0  0  0  0  0
   19.8121   -8.6009    7.5775 H   0  0  0  0  0  0  0  0  0  0  0  0
   12.2253   -6.9641   17.8299 C   0  0  0  0  0  0  0  0  0  0  0  0
   11.2226   -6.9059   18.9715 C   0  0  0  0  0  0  0  0  0  0  0  0
   10.6750   -5.5003   19.1240 C   0  0  0  0  0  0  0  0  0  0  0  0
   11.2558   -4.6706   18.1663 O   0  0  0  0  0  0  0  0  0  0  0  0
   12.2179   -4.6589   18.2893 H   0  0  0  0  0  0  0  0  0  0  0  0
 23 22  1  0  0  0
 23 24  1  0  0  0
 24 25  1  0  0  0
 25 26  1  0  0  0
 25 16  1  0  0  0
 26 27  1  0  0  0
 27 28  1  0  0  0
 28 23  1  0  0  0
 16 17  2  0  0  0
 17 18  1  0  0  0
 18 19  2  0  0  0
 19 20  1  0  0  0
 19 14  1  0  0  0
 20 21  2  0  0  0
 21 16  1  0  0  0
 14  1  1  0  0  0
  1  2  2  0  0  0
  2  3  1  0  0  0
  3  4  2  0  0  0
  4  5  1  0  0  0
  5  6  2  0  0  0
  6  7  1  0  0  0
  6 11  1  0  0  0
  7  8  2  0  0  0
  8  9  1  0  0  0
  9 10  2  0  0  0
 10  5  1  0  0  0
 11 12  1  0  0  0
 11 30  1  0  0  0
 12 13  2  0  0  0
 12  4  1  0  0  0
 13  1  1  0  0  0
 30 31  1  0  0  0
 31 32  1  0  0  0
 32 33  1  0  0  0
 28 29  1  0  0  0
 14 15  1  0  0  0
 33 34  1  0  0  0
M  END
>  <minimizedAffinity>
-3.68153

>  <minimizedRMSD>
1.98608

$$$$
CHEMBL4517997 PubChem-153534141


 35 40  0  0  0  0  0  0  0  0999 V2000
   15.3496   -8.8226   17.2129 C   0  0  0  0  0  0  0  0  0  0  0  0
   14.3416   -8.3393   17.9866 N   0  0  0  0  0  0  0  0  0  0  0  0
   14.5908   -7.6409   19.1290 C   0  0  0  0  0  0  0  0  0  0  0  0
   15.9322   -7.4183   19.5118 C   0  0  0  0  0  0  0  0  0  0  0  0
   16.9540   -7.9208   18.7068 C   0  0  0  0  0  0  0  0  0  0  0  0
   16.6440   -8.6096   17.5788 N   0  0  0  0  0  0  0  0  0  0  0  0
   16.1622   -6.7204   20.6536 N   0  0  0  0  0  0  0  0  0  0  0  0
   15.1723   -6.2448   21.4151 C   0  0  0  0  0  0  0  0  0  0  0  0
   13.8396   -6.4492   21.0622 C   0  0  0  0  0  0  0  0  0  0  0  0
   12.9151   -5.9941   21.7908 O   0  0  0  0  0  0  0  0  0  0  0  0
   13.5593   -7.1515   19.9124 N   0  0  0  0  0  0  0  0  0  0  0  0
   15.6354   -5.5869   22.4950 N   0  0  0  0  0  0  0  0  0  0  0  0
   16.9620   -5.6430   22.4228 N   0  0  0  0  0  0  0  0  0  0  0  0
   17.2762   -6.3317   21.3039 C   0  0  0  0  0  0  0  0  0  0  0  0
   18.6759   -6.6084   20.8729 C   0  0  0  0  0  0  0  0  0  0  0  0
   12.1466   -7.3564   19.5557 C   0  0  0  0  0  0  0  0  0  0  0  0
   11.8301   -8.8125   19.2766 C   0  0  0  0  0  0  0  0  0  0  0  0
   10.7514   -8.7771   18.2192 C   0  0  0  0  0  0  0  0  0  0  0  0
   11.0154   -7.5241   17.4083 C   0  0  0  0  0  0  0  0  0  0  0  0
   11.7388   -6.5568   18.3283 C   0  0  0  0  0  0  0  0  0  0  0  0
   15.0234   -9.5502   16.0212 N   0  0  0  0  0  0  0  0  0  0  0  0
   14.2450  -10.1504   16.0766 H   0  0  0  0  0  0  0  0  0  0  0  0
   17.0874   -9.6781   14.6478 C   0  0  0  0  0  0  0  0  0  0  0  0
   17.7103   -9.6262   13.3984 C   0  0  0  0  0  0  0  0  0  0  0  0
   16.9586   -9.3999   12.2340 C   0  0  0  0  0  0  0  0  0  0  0  0
   15.5700   -9.2252   12.3508 C   0  0  0  0  0  0  0  0  0  0  0  0
   14.9486   -9.2774   13.6015 C   0  0  0  0  0  0  0  0  0  0  0  0
   15.7008   -9.5041   14.7576 C   0  0  0  0  0  0  0  0  0  0  0  0
   17.6001   -9.3430   10.9450 N   0  0  0  0  0  0  0  0  0  0  0  0
   19.0442   -9.1129   10.8491 C   0  0  0  0  0  0  0  0  0  0  0  0
   19.3526   -8.0414    9.7998 C   0  0  0  0  0  0  0  0  0  0  0  0
   18.4975   -8.1617    8.5292 C   0  0  0  0  0  0  0  0  0  0  0  0
   17.6911   -9.4562    8.4713 C   0  0  0  0  0  0  0  0  0  0  0  0
   16.8221   -9.5783    9.7213 C   0  0  0  0  0  0  0  0  0  0  0  0
   19.3824   -8.0524    7.3056 C   0  0  0  0  0  0  0  0  0  0  0  0
 23 24  2  0  0  0
 24 25  1  0  0  0
 25 26  2  0  0  0
 26 27  1  0  0  0
 27 28  2  0  0  0
 28 21  1  0  0  0
 21  1  1  0  0  0
  1  2  2  0  0  0
  2  3  1  0  0  0
  3  4  2  0  0  0
  4  5  1  0  0  0
  5  6  2  0  0  0
  4  7  1  0  0  0
  7  8  1  0  0  0
  8  9  1  0  0  0
  9 10  2  0  0  0
  9 11  1  0  0  0
 11 16  1  0  0  0
 16 17  1  0  0  0
 17 18  1  0  0  0
 18 19  1  0  0  0
 19 20  1  0  0  0
  8 12  2  0  0  0
 12 13  1  0  0  0
 13 14  2  0  0  0
 14 15  1  0  0  0
 25 29  1  0  0  0
 29 30  1  0  0  0
 30 31  1  0  0  0
 31 32  1  0  0  0
 32 33  1  0  0  0
 33 34  1  0  0  0
 32 35  1  0  0  0
 28 23  1  0  0  0
  6  1  1  0  0  0
 14  7  1  0  0  0
 34 29  1  0  0  0
 11  3  1  0  0  0
 20 16  1  0  0  0
 21 22  1  0  0  0
M  END
>  <minimizedAffinity>
-3.67029

>  <minimizedRMSD>
1.98548

$$$$
CHEMBL3691617 PubChem-67375788


 36 41  0  0  0  0  0  0  0  0999 V2000
   14.4855   -6.5548   20.5111 C   0  0  0  0  0  0  0  0  0  0  0  0
   15.8620   -6.7521   20.3254 C   0  0  0  0  0  0  0  0  0  0  0  0
   15.9314   -7.5451   19.1994 C   0  0  0  0  0  0  0  0  0  0  0  0
   17.0169   -8.0795   18.5236 C   0  0  0  0  0  0  0  0  0  0  0  0
   16.7631   -8.8423   17.4203 N   0  0  0  0  0  0  0  0  0  0  0  0
   15.4824   -9.0796   16.9854 C   0  0  0  0  0  0  0  0  0  0  0  0
   14.4231   -8.5448   17.6629 N   0  0  0  0  0  0  0  0  0  0  0  0
   14.6707   -7.7852   18.7584 C   0  0  0  0  0  0  0  0  0  0  0  0
   13.7619   -7.1832   19.5437 N   0  0  0  0  0  0  0  0  0  0  0  0
   14.7864   -7.1725   23.4698 C   0  0  0  0  0  0  0  0  0  0  0  0
   14.2493   -5.9149   22.9757 N   0  0  0  0  0  0  0  0  0  0  0  0
   13.9154   -4.8964   23.9576 C   0  0  0  0  0  0  0  0  0  0  0  0
   13.8976   -5.7254   21.5928 C   0  0  0  0  0  0  0  0  0  0  0  0
   13.0813   -4.8140   21.2874 O   0  0  0  0  0  0  0  0  0  0  0  0
   12.3043   -7.2264   19.4149 C   0  0  0  0  0  0  0  0  0  0  0  0
   11.8415   -6.5300   18.1445 C   0  0  0  0  0  0  0  0  0  0  0  0
   11.0267   -7.5457   17.3671 C   0  0  0  0  0  0  0  0  0  0  0  0
   10.6734   -8.6403   18.3496 C   0  0  0  0  0  0  0  0  0  0  0  0
   11.8038   -8.6571   19.3513 C   0  0  0  0  0  0  0  0  0  0  0  0
   15.2291   -9.8831   15.8250 N   0  0  0  0  0  0  0  0  0  0  0  0
   14.5835  -10.6179   15.9373 H   0  0  0  0  0  0  0  0  0  0  0  0
   15.8069   -9.7410   14.5195 C   0  0  0  0  0  0  0  0  0  0  0  0
   14.9800   -9.6489   13.4429 N   0  0  0  0  0  0  0  0  0  0  0  0
   15.4564   -9.5125   12.1763 C   0  0  0  0  0  0  0  0  0  0  0  0
   16.8361   -9.4619   11.9399 C   0  0  0  0  0  0  0  0  0  0  0  0
   17.7040   -9.5552   13.0343 C   0  0  0  0  0  0  0  0  0  0  0  0
   17.1933   -9.6946   14.3246 C   0  0  0  0  0  0  0  0  0  0  0  0
   17.3486   -9.3181   10.6060 N   0  0  0  0  0  0  0  0  0  0  0  0
   18.7669   -9.3142   10.2877 C   0  0  0  0  0  0  0  0  0  0  0  0
   18.8752   -9.2256    8.7709 C   0  0  0  0  0  0  0  0  0  0  0  0
   18.4743   -7.8388    8.2756 C   0  0  0  0  0  0  0  0  0  0  0  0
   17.4651   -8.9626    8.2835 C   0  0  0  0  0  0  0  0  0  0  0  0
   16.5057   -9.1441    9.4396 C   0  0  0  0  0  0  0  0  0  0  0  0
   17.1892   -9.6197    7.0195 N   0  0  0  0  0  0  0  0  0  0  0  0
   16.2322   -9.4152    6.7317 H   0  0  0  0  0  0  0  0  0  0  0  0
   17.3036  -10.6275    7.1280 H   0  0  0  0  0  0  0  0  0  0  0  0
 10 11  1  0  0  0
 11 12  1  0  0  0
 11 13  1  0  0  0
 13 14  2  0  0  0
 13  1  1  0  0  0
  1  2  2  0  0  0
  2  3  1  0  0  0
  3  4  2  0  0  0
  4  5  1  0  0  0
  5  6  2  0  0  0
  6  7  1  0  0  0
  6 20  1  0  0  0
  7  8  2  0  0  0
  8  9  1  0  0  0
  8  3  1  0  0  0
  9 15  1  0  0  0
  9  1  1  0  0  0
 15 16  1  0  0  0
 16 17  1  0  0  0
 17 18  1  0  0  0
 18 19  1  0  0  0
 19 15  1  0  0  0
 20 22  1  0  0  0
 22 23  2  0  0  0
 23 24  1  0  0  0
 24 25  2  0  0  0
 25 26  1  0  0  0
 25 28  1  0  0  0
 26 27  2  0  0  0
 27 22  1  0  0  0
 28 29  1  0  0  0
 30 29  1  0  0  0
 30 31  1  0  0  0
 31 32  1  0  0  0
 32 33  1  0  0  0
 32 34  1  0  0  0
 32 30  1  0  0  0
 33 28  1  0  0  0
 20 21  1  0  0  0
 34 35  1  0  0  0
 34 36  1  0  0  0
M  END
>  <minimizedAffinity>
-3.64605

>  <minimizedRMSD>
1.96103

$$$$
CHEMBL1327665 MCULE-6034825090 MolPort-000-104-519 PubChem-3226213


 33 36  0  0  0  0  0  0  0  0999 V2000
   15.1649   -7.9504   18.4762 C   0  0  0  0  0  0  0  0  0  0  0  0
   16.3965   -8.4190   18.7625 N   0  0  0  0  0  0  0  0  0  0  0  0
   16.7890   -9.0103   17.6761 O   0  0  0  0  0  0  0  0  0  0  0  0
   15.8545   -8.9153   16.7622 C   0  0  0  0  0  0  0  0  0  0  0  0
   14.7798   -8.2439   17.2151 N   0  0  0  0  0  0  0  0  0  0  0  0
   15.9564   -9.4822   15.3875 C   0  0  0  0  0  0  0  0  0  0  0  0
   16.7274  -10.8124   15.4124 C   0  0  0  0  0  0  0  0  0  0  0  0
   18.0766  -10.7256   14.7037 C   0  0  0  0  0  0  0  0  0  0  0  0
   17.8759  -10.2587   13.2637 C   0  0  0  0  0  0  0  0  0  0  0  0
   17.0055   -9.0785   13.1963 N   0  0  0  0  0  0  0  0  0  0  0  0
   16.5455   -8.4408   14.4301 C   0  0  0  0  0  0  0  0  0  0  0  0
   16.7456   -8.4407   11.9347 C   0  0  0  0  0  0  0  0  0  0  0  0
   16.4367   -7.2178   11.9084 O   0  0  0  0  0  0  0  0  0  0  0  0
   16.8344   -9.1850   10.6574 C   0  0  0  0  0  0  0  0  0  0  0  0
   15.7954  -10.0470   10.2524 C   0  0  0  0  0  0  0  0  0  0  0  0
   14.6769  -10.1945   11.0063 F   0  0  0  0  0  0  0  0  0  0  0  0
   15.8851  -10.7343    9.0388 C   0  0  0  0  0  0  0  0  0  0  0  0
   17.0013  -10.5687    8.2175 C   0  0  0  0  0  0  0  0  0  0  0  0
   18.0294   -9.7073    8.6035 C   0  0  0  0  0  0  0  0  0  0  0  0
   17.9482   -9.0113    9.8127 C   0  0  0  0  0  0  0  0  0  0  0  0
   18.9684   -8.1899   10.1672 F   0  0  0  0  0  0  0  0  0  0  0  0
   13.8577   -6.5021   21.7188 C   0  0  0  0  0  0  0  0  0  0  0  0
   14.6430   -7.2072   20.7928 C   0  0  0  0  0  0  0  0  0  0  0  0
   14.3312   -7.2049   19.4319 C   0  0  0  0  0  0  0  0  0  0  0  0
   13.2182   -6.4891   18.9883 C   0  0  0  0  0  0  0  0  0  0  0  0
   12.4159   -5.7764   19.8910 C   0  0  0  0  0  0  0  0  0  0  0  0
   12.7286   -5.7753   21.2615 C   0  0  0  0  0  0  0  0  0  0  0  0
   15.2009   -7.3670   23.6158 C   0  0  0  0  0  0  0  0  0  0  0  0
   14.1914   -6.5227   23.0780 O   0  0  0  0  0  0  0  0  0  0  0  0
   11.2977   -5.0599   19.4479 O   0  0  0  0  0  0  0  0  0  0  0  0
    9.9656   -5.5233   19.6247 C   0  0  0  0  0  0  0  0  0  0  0  0
   11.8867   -5.0405   22.1135 O   0  0  0  0  0  0  0  0  0  0  0  0
   12.1392   -3.7192   22.5695 C   0  0  0  0  0  0  0  0  0  0  0  0
 28 29  1  0  0  0
 29 22  1  0  0  0
 22 23  2  0  0  0
 23 24  1  0  0  0
 24 25  2  0  0  0
 24  1  1  0  0  0
 25 26  1  0  0  0
 26 30  1  0  0  0
 26 27  2  0  0  0
 30 31  1  0  0  0
 27 32  1  0  0  0
 27 22  1  0  0  0
 32 33  1  0  0  0
  1  2  2  0  0  0
  2  3  1  0  0  0
  3  4  1  0  0  0
  4  5  2  0  0  0
  5  1  1  0  0  0
  6  4  1  0  0  0
  6  7  1  0  0  0
  7  8  1  0  0  0
  8  9  1  0  0  0
  9 10  1  0  0  0
 10 11  1  0  0  0
 10 12  1  0  0  0
 11  6  1  0  0  0
 12 13  2  0  0  0
 12 14  1  0  0  0
 14 15  2  0  0  0
 15 16  1  0  0  0
 15 17  1  0  0  0
 17 18  2  0  0  0
 18 19  1  0  0  0
 19 20  2  0  0  0
 20 21  1  0  0  0
 20 14  1  0  0  0
M  END
>  <minimizedAffinity>
-3.62885

>  <minimizedRMSD>
1.59431

$$$$
CHEMBL1401593 ChemDiv-E910-0114 MCULE-2914242347 MolPort-007-771-279 PubChem-16023567 ZINC000008595966 ZINC08595966


 33 36  0  0  0  0  0  0  0  0999 V2000
   16.0546   -9.6550   13.3495 N   0  0  0  0  0  0  0  0  0  0  0  0
   14.8120  -10.2384   13.3459 C   0  0  0  0  0  0  0  0  0  0  0  0
   14.1777  -10.5265   12.1734 N   0  0  0  0  0  0  0  0  0  0  0  0
   14.8060  -10.2248   11.0147 C   0  0  0  0  0  0  0  0  0  0  0  0
   16.0389   -9.6481   10.9722 C   0  0  0  0  0  0  0  0  0  0  0  0
   16.3023   -9.5231    9.6068 C   0  0  0  0  0  0  0  0  0  0  0  0
   15.2346  -10.0244    8.9330 N   0  0  0  0  0  0  0  0  0  0  0  0
   14.3572  -10.4350    9.8069 O   0  0  0  0  0  0  0  0  0  0  0  0
   16.6975   -9.3590   12.1724 C   0  0  0  0  0  0  0  0  0  0  0  0
   17.8475   -8.8454   12.1846 O   0  0  0  0  0  0  0  0  0  0  0  0
   17.4841   -8.9650    8.9092 C   0  0  0  0  0  0  0  0  0  0  0  0
   17.5920   -9.1221    7.5183 C   0  0  0  0  0  0  0  0  0  0  0  0
   18.6870   -8.6002    6.8237 C   0  0  0  0  0  0  0  0  0  0  0  0
   19.6859   -7.9109    7.5142 C   0  0  0  0  0  0  0  0  0  0  0  0
   20.7489   -7.4063    6.8439 F   0  0  0  0  0  0  0  0  0  0  0  0
   19.5872   -7.7418    8.8969 C   0  0  0  0  0  0  0  0  0  0  0  0
   18.4904   -8.2655    9.5874 C   0  0  0  0  0  0  0  0  0  0  0  0
   16.6985   -9.3898   14.6310 C   0  0  0  0  0  0  0  0  0  0  0  0
   16.3350   -8.0003   15.1302 C   0  0  0  0  0  0  0  0  0  0  0  0
   14.7494   -7.5827   17.0868 N   0  0  0  0  0  0  0  0  0  0  0  0
   13.6638   -7.3017   16.1555 C   0  0  0  0  0  0  0  0  0  0  0  0
   16.0170   -8.0508   16.5883 C   0  0  0  0  0  0  0  0  0  0  0  0
   16.8664   -8.5483   17.3760 O   0  0  0  0  0  0  0  0  0  0  0  0
   14.0266   -7.2922   21.2678 C   0  0  0  0  0  0  0  0  0  0  0  0
   13.1103   -6.7519   20.3625 C   0  0  0  0  0  0  0  0  0  0  0  0
   13.3259   -6.8415   18.9773 C   0  0  0  0  0  0  0  0  0  0  0  0
   14.4907   -7.4747   18.4969 C   0  0  0  0  0  0  0  0  0  0  0  0
   15.3998   -8.0293   19.4092 C   0  0  0  0  0  0  0  0  0  0  0  0
   15.1728   -7.9373   20.7831 C   0  0  0  0  0  0  0  0  0  0  0  0
   14.4088   -6.2098   23.4590 C   0  0  0  0  0  0  0  0  0  0  0  0
   13.7720   -7.1787   22.6373 O   0  0  0  0  0  0  0  0  0  0  0  0
   12.3909   -6.3277   18.0708 O   0  0  0  0  0  0  0  0  0  0  0  0
   11.5933   -5.1853   18.3499 C   0  0  0  0  0  0  0  0  0  0  0  0
 30 31  1  0  0  0
 31 24  1  0  0  0
 24 25  2  0  0  0
 25 26  1  0  0  0
 26 32  1  0  0  0
 26 27  2  0  0  0
 32 33  1  0  0  0
 27 28  1  0  0  0
 27 20  1  0  0  0
 28 29  2  0  0  0
 29 24  1  0  0  0
 20 21  1  0  0  0
 20 22  1  0  0  0
 22 23  2  0  0  0
 22 19  1  0  0  0
 19 18  1  0  0  0
 18  1  1  0  0  0
  1  2  1  0  0  0
  2  3  2  0  0  0
  3  4  1  0  0  0
  4  5  2  0  0  0
  5  6  1  0  0  0
  5  9  1  0  0  0
  6  7  2  0  0  0
  6 11  1  0  0  0
  7  8  1  0  0  0
  8  4  1  0  0  0
 11 12  2  0  0  0
 12 13  1  0  0  0
 13 14  2  0  0  0
 14 15  1  0  0  0
 14 16  1  0  0  0
 16 17  2  0  0  0
 17 11  1  0  0  0
  9 10  2  0  0  0
  9  1  1  0  0  0
M  END
>  <minimizedAffinity>
-3.62668

>  <minimizedRMSD>
1.53035

$$$$
CHEMBL3702132 PubChem-58299716


 37 42  0  0  0  0  0  0  0  0999 V2000
   17.6816   -8.7979   17.1259 N   0  0  0  0  0  0  0  0  0  0  0  0
   18.5885   -9.0857   17.3789 H   0  0  0  0  0  0  0  0  0  0  0  0
   16.8928   -8.1724   18.1452 C   0  0  0  0  0  0  0  0  0  0  0  0
   17.5277   -7.5536   19.1927 N   0  0  0  0  0  0  0  0  0  0  0  0
   16.8344   -6.9408   20.1973 C   0  0  0  0  0  0  0  0  0  0  0  0
   15.4514   -6.9656   20.1246 C   0  0  0  0  0  0  0  0  0  0  0  0
   14.4550   -6.4638   20.9278 C   0  0  0  0  0  0  0  0  0  0  0  0
   13.2658   -6.8090   20.3191 C   0  0  0  0  0  0  0  0  0  0  0  0
   12.0515   -6.4368   20.8903 C   0  0  0  0  0  0  0  0  0  0  0  0
   12.0811   -5.7291   22.0590 N   0  0  0  0  0  0  0  0  0  0  0  0
   13.2561   -5.3805   22.6735 C   0  0  0  0  0  0  0  0  0  0  0  0
   14.4951   -5.7435   22.1159 C   0  0  0  0  0  0  0  0  0  0  0  0
   13.4801   -7.5054   19.1732 N   0  0  0  0  0  0  0  0  0  0  0  0
   14.8247   -7.5864   19.0756 C   0  0  0  0  0  0  0  0  0  0  0  0
   15.5251   -8.1891   18.0852 N   0  0  0  0  0  0  0  0  0  0  0  0
   12.5090   -8.0442   18.2226 C   0  0  0  0  0  0  0  0  0  0  0  0
   11.7021   -6.9314   17.5733 C   0  0  0  0  0  0  0  0  0  0  0  0
   10.2392   -7.2908   17.7575 C   0  0  0  0  0  0  0  0  0  0  0  0
   10.2086   -8.7380   18.2012 C   0  0  0  0  0  0  0  0  0  0  0  0
   11.5222   -8.9670   18.9105 C   0  0  0  0  0  0  0  0  0  0  0  0
   16.5094   -9.5406   13.1369 C   0  0  0  0  0  0  0  0  0  0  0  0
   16.0159   -8.4392   13.8496 C   0  0  0  0  0  0  0  0  0  0  0  0
   16.4059   -8.2164   15.1331 N   0  0  0  0  0  0  0  0  0  0  0  0
   17.2773   -9.0448   15.7738 C   0  0  0  0  0  0  0  0  0  0  0  0
   17.7872  -10.1592   15.1056 C   0  0  0  0  0  0  0  0  0  0  0  0
   17.3969  -10.4060   13.7889 C   0  0  0  0  0  0  0  0  0  0  0  0
   17.5238   -8.1387    8.1861 C   0  0  0  0  0  0  0  0  0  0  0  0
   16.3287   -9.1067    8.2724 C   0  0  0  0  0  0  0  0  0  0  0  0
   16.5720  -10.1896    9.3231 C   0  0  0  0  0  0  0  0  0  0  0  0
   16.9024   -9.5669   10.6020 N   0  0  0  0  0  0  0  0  0  0  0  0
   18.0141   -8.6192   10.6209 C   0  0  0  0  0  0  0  0  0  0  0  0
   17.7775   -7.5285    9.5775 C   0  0  0  0  0  0  0  0  0  0  0  0
   16.0544   -9.7848   11.7460 C   0  0  0  0  0  0  0  0  0  0  0  0
   14.8810  -10.2113   11.5623 O   0  0  0  0  0  0  0  0  0  0  0  0
   19.8582   -7.8996    7.7877 C   0  0  0  0  0  0  0  0  0  0  0  0
   18.7246   -8.8042    7.6540 N   0  0  0  0  0  0  0  0  0  0  0  0
   18.5551   -8.9894    6.2191 C   0  0  0  0  0  0  0  0  0  0  0  0
 35 36  1  0  0  0
 36 37  1  0  0  0
 36 27  1  0  0  0
 27 28  1  0  0  0
 28 29  1  0  0  0
 29 30  1  0  0  0
 30 31  1  0  0  0
 30 33  1  0  0  0
 31 32  1  0  0  0
 32 27  1  0  0  0
 33 34  2  0  0  0
 33 21  1  0  0  0
 21 22  2  0  0  0
 22 23  1  0  0  0
 23 24  2  0  0  0
 24 25  1  0  0  0
 24  1  1  0  0  0
 25 26  2  0  0  0
 26 21  1  0  0  0
  1  3  1  0  0  0
  3  4  2  0  0  0
  4  5  1  0  0  0
  5  6  2  0  0  0
  6  7  1  0  0  0
  7  8  2  0  0  0
  8  9  1  0  0  0
  8 13  1  0  0  0
  9 10  2  0  0  0
 10 11  1  0  0  0
 11 12  2  0  0  0
 12  7  1  0  0  0
 13 14  1  0  0  0
 13 16  1  0  0  0
 14 15  2  0  0  0
 14  6  1  0  0  0
 15  3  1  0  0  0
 16 17  1  0  0  0
 17 18  1  0  0  0
 18 19  1  0  0  0
 19 20  1  0  0  0
 20 16  1  0  0  0
  1  2  1  0  0  0
M  END
>  <minimizedAffinity>
-3.59740

>  <minimizedRMSD>
1.72970

$$$$
CHEMBL3318203 PubChem-73670361


 31 33  0  0  0  0  0  0  0  0999 V2000
   16.0349   -8.4975   15.8899 C   0  0  0  0  0  0  0  0  0  0  0  0
   17.1082   -9.4032   16.8124 S   0  0  0  0  0  0  0  0  0  0  0  0
   16.4357   -8.9526   18.2891 C   0  0  0  0  0  0  0  0  0  0  0  0
   15.3767   -8.0842   18.0013 C   0  0  0  0  0  0  0  0  0  0  0  0
   15.1649   -7.8328   16.6783 N   0  0  0  0  0  0  0  0  0  0  0  0
   14.5388   -7.4686   19.0483 C   0  0  0  0  0  0  0  0  0  0  0  0
   14.9453   -7.4726   20.3853 C   0  0  0  0  0  0  0  0  0  0  0  0
   14.1508   -6.8884   21.3820 C   0  0  0  0  0  0  0  0  0  0  0  0
   12.9263   -6.2874   21.0436 C   0  0  0  0  0  0  0  0  0  0  0  0
   12.5061   -6.2785   19.6891 C   0  0  0  0  0  0  0  0  0  0  0  0
   13.3218   -6.8709   18.7121 C   0  0  0  0  0  0  0  0  0  0  0  0
   11.2920   -5.6868   19.3214 O   0  0  0  0  0  0  0  0  0  0  0  0
   11.2112   -4.4418   18.6396 C   0  0  0  0  0  0  0  0  0  0  0  0
   12.1768   -5.7199   22.0881 O   0  0  0  0  0  0  0  0  0  0  0  0
   12.1721   -4.3425   22.4345 C   0  0  0  0  0  0  0  0  0  0  0  0
   14.5591   -6.8932   22.7207 O   0  0  0  0  0  0  0  0  0  0  0  0
   15.7940   -6.3372   23.1519 C   0  0  0  0  0  0  0  0  0  0  0  0
   15.9919   -9.5277   13.5956 C   0  0  0  0  0  0  0  0  0  0  0  0
   15.2891  -10.5176   13.9375 O   0  0  0  0  0  0  0  0  0  0  0  0
   16.0539   -8.3760   14.4573 N   0  0  0  0  0  0  0  0  0  0  0  0
   16.0262   -7.0435   13.8682 C   0  0  0  0  0  0  0  0  0  0  0  0
   16.7492   -9.5716   12.3181 C   0  0  0  0  0  0  0  0  0  0  0  0
   18.1436   -9.6932   12.3735 C   0  0  0  0  0  0  0  0  0  0  0  0
   18.9023   -9.7662   11.2101 C   0  0  0  0  0  0  0  0  0  0  0  0
   18.2738   -9.7230    9.9703 C   0  0  0  0  0  0  0  0  0  0  0  0
   16.8787   -9.6038    9.8738 C   0  0  0  0  0  0  0  0  0  0  0  0
   16.0995   -9.5246   11.0593 C   0  0  0  0  0  0  0  0  0  0  0  0
   14.6997   -9.3850   11.0389 O   0  0  0  0  0  0  0  0  0  0  0  0
   13.7715  -10.4351   10.8082 C   0  0  0  0  0  0  0  0  0  0  0  0
   16.2697   -9.5624    8.6139 O   0  0  0  0  0  0  0  0  0  0  0  0
   16.9813   -9.2789    7.4161 C   0  0  0  0  0  0  0  0  0  0  0  0
 18 19  2  0  0  0
 18 22  1  0  0  0
 22 23  2  0  0  0
 23 24  1  0  0  0
 24 25  2  0  0  0
 25 26  1  0  0  0
 26 27  2  0  0  0
 27 28  1  0  0  0
 28 29  1  0  0  0
 26 30  1  0  0  0
 30 31  1  0  0  0
 18 20  1  0  0  0
 20 21  1  0  0  0
 20  1  1  0  0  0
  1  2  1  0  0  0
  2  3  1  0  0  0
  3  4  2  0  0  0
  4  5  1  0  0  0
  4  6  1  0  0  0
  6  7  2  0  0  0
  7  8  1  0  0  0
  8  9  2  0  0  0
  9 10  1  0  0  0
 10 11  2  0  0  0
 10 12  1  0  0  0
 12 13  1  0  0  0
  9 14  1  0  0  0
 14 15  1  0  0  0
  8 16  1  0  0  0
 16 17  1  0  0  0
 27 22  1  0  0  0
  5  1  2  0  0  0
 11  6  1  0  0  0
M  END
>  <minimizedAffinity>
-3.59575

>  <minimizedRMSD>
1.79987

$$$$
CHEMBL455702 PubChem-25179917


 32 35  0  0  0  0  0  0  0  0999 V2000
   15.8889   -9.5798   17.4403 O   0  0  0  0  0  0  0  0  0  0  0  0
   12.2706   -6.0342   21.1096 C   0  0  0  0  0  0  0  0  0  0  0  0
   11.4083   -6.2959   20.0349 C   0  0  0  0  0  0  0  0  0  0  0  0
   11.8858   -6.8944   18.8660 C   0  0  0  0  0  0  0  0  0  0  0  0
   10.9407   -7.1501   17.7447 C   0  0  0  0  0  0  0  0  0  0  0  0
   13.2430   -7.2321   18.7568 C   0  0  0  0  0  0  0  0  0  0  0  0
   14.1129   -6.9712   19.8327 C   0  0  0  0  0  0  0  0  0  0  0  0
   13.6238   -6.3853   21.0023 C   0  0  0  0  0  0  0  0  0  0  0  0
   15.5462   -7.4221   19.7671 C   0  0  0  0  0  0  0  0  0  0  0  0
   16.1644   -7.0353   18.5667 O   0  0  0  0  0  0  0  0  0  0  0  0
   15.4245   -7.9524   17.3427 P   0  0  0  0  0  0  0  0  0  0  0  0
   15.7842   -7.3845   15.9892 O   0  0  0  0  0  0  0  0  0  0  0  0
   13.7316   -7.8170   17.5853 O   0  0  0  0  0  0  0  0  0  0  0  0
   12.5817   -5.3219   23.5732 C   0  0  0  0  0  0  0  0  0  0  0  0
   11.7519   -5.3999   22.3366 C   0  0  0  0  0  0  0  0  0  0  0  0
   10.5901   -4.9119   22.3555 O   0  0  0  0  0  0  0  0  0  0  0  0
   16.9186   -9.7275   16.5092 C   0  0  0  0  0  0  0  0  0  0  0  0
   16.7180  -11.0067   15.7173 C   0  0  0  0  0  0  0  0  0  0  0  0
   18.0134  -11.7147   15.5753 C   0  0  0  0  0  0  0  0  0  0  0  0
   18.2461  -11.9244   14.3030 C   0  0  0  0  0  0  0  0  0  0  0  0
   17.0943  -11.3959   13.5310 C   0  0  0  0  0  0  0  0  0  0  0  0
   16.2511  -10.6982   14.4205 O   0  0  0  0  0  0  0  0  0  0  0  0
   17.5233  -10.5324   12.4296 N   0  0  0  0  0  0  0  0  0  0  0  0
   16.7502  -10.5299   11.3106 C   0  0  0  0  0  0  0  0  0  0  0  0
   17.0799   -9.7279   10.2216 C   0  0  0  0  0  0  0  0  0  0  0  0
   16.2195   -9.7431    9.0045 C   0  0  0  0  0  0  0  0  0  0  0  0
   18.2215   -8.9257   10.3080 C   0  0  0  0  0  0  0  0  0  0  0  0
   18.5598   -8.1816    9.3495 O   0  0  0  0  0  0  0  0  0  0  0  0
   18.9724   -8.9465   11.4383 N   0  0  0  0  0  0  0  0  0  0  0  0
   18.6393   -9.7358   12.4929 C   0  0  0  0  0  0  0  0  0  0  0  0
   19.3688   -9.7269   13.5195 O   0  0  0  0  0  0  0  0  0  0  0  0
   19.7745   -8.3784   11.4952 H   0  0  0  0  0  0  0  0  0  0  0  0
 14 15  1  0  0  0
 15 16  2  0  0  0
 15  2  1  0  0  0
  2  3  2  0  0  0
  3  4  1  0  0  0
  4  5  1  0  0  0
  4  6  2  0  0  0
  6  7  1  0  0  0
  7  8  2  0  0  0
  7  9  1  0  0  0
  8  2  1  0  0  0
  9 10  1  0  0  0
 10 11  1  0  0  0
 11 12  2  0  0  0
 11  1  1  0  0  0
 11 13  1  0  0  0
  1 17  1  0  0  0
 18 17  1  0  0  0
 18 19  1  0  0  0
 19 20  2  0  0  0
 20 21  1  0  0  0
 21 23  1  0  0  0
 21 22  1  0  0  0
 23 24  1  0  0  0
 24 25  2  0  0  0
 25 26  1  0  0  0
 25 27  1  0  0  0
 27 28  2  0  0  0
 27 29  1  0  0  0
 29 30  1  0  0  0
 30 31  2  0  0  0
 30 23  1  0  0  0
 22 18  1  0  0  0
 13  6  1  0  0  0
 29 32  1  0  0  0
M  END
>  <minimizedAffinity>
-3.59510

>  <minimizedRMSD>
1.41739

$$$$
CHEMBL5196819


 36 39  0  0  0  0  0  0  0  0999 V2000
   15.7646   -8.8827   17.3145 N   0  0  0  0  0  0  0  0  0  0  0  0
   15.7639   -8.4867   15.9271 C   0  0  0  0  0  0  0  0  0  0  0  0
   15.4080   -7.3228   15.5936 O   0  0  0  0  0  0  0  0  0  0  0  0
   16.4985  -10.0851   17.6972 C   0  0  0  0  0  0  0  0  0  0  0  0
   13.7323   -6.6959   20.3591 C   0  0  0  0  0  0  0  0  0  0  0  0
   14.9464   -7.3326   20.6344 C   0  0  0  0  0  0  0  0  0  0  0  0
   15.6116   -8.0451   19.6345 C   0  0  0  0  0  0  0  0  0  0  0  0
   15.0789   -8.1282   18.3379 C   0  0  0  0  0  0  0  0  0  0  0  0
   13.8559   -7.4913   18.0712 C   0  0  0  0  0  0  0  0  0  0  0  0
   13.1839   -6.7759   19.0663 C   0  0  0  0  0  0  0  0  0  0  0  0
   11.8894   -6.1193   18.7245 C   0  0  0  0  0  0  0  0  0  0  0  0
   13.0569   -5.9267   21.4496 C   0  0  0  0  0  0  0  0  0  0  0  0
   11.9434   -3.3036   22.4720 C   0  0  0  0  0  0  0  0  0  0  0  0
   11.9433   -4.1626   23.6571 N   0  0  0  0  0  0  0  0  0  0  0  0
   13.2858   -4.1853   24.2198 C   0  0  0  0  0  0  0  0  0  0  0  0
   14.2295   -4.9402   23.2719 C   0  0  0  0  0  0  0  0  0  0  0  0
   13.8812   -4.7908   21.8498 N   0  0  0  0  0  0  0  0  0  0  0  0
   13.1708   -3.5338   21.5659 C   0  0  0  0  0  0  0  0  0  0  0  0
   11.6653   -5.1084   23.3951 H   0  0  0  0  0  0  0  0  0  0  0  0
   13.2571   -4.8566   25.5810 C   0  0  0  0  0  0  0  0  0  0  0  0
   14.4748   -5.7436   25.7597 C   0  0  0  0  0  0  0  0  0  0  0  0
   16.2158   -9.4410   14.8624 C   0  0  0  0  0  0  0  0  0  0  0  0
   15.8726   -8.9087   13.4612 C   0  0  0  0  0  0  0  0  0  0  0  0
   17.0808   -8.2501   12.7975 C   0  0  0  0  0  0  0  0  0  0  0  0
   18.2478   -9.2355   12.6388 C   0  0  0  0  0  0  0  0  0  0  0  0
   18.3009  -10.3042   13.7446 C   0  0  0  0  0  0  0  0  0  0  0  0
   17.6994   -9.7894   15.0477 C   0  0  0  0  0  0  0  0  0  0  0  0
   18.1720   -9.8624   11.3627 O   0  0  0  0  0  0  0  0  0  0  0  0
   18.4764   -9.2054   10.1656 C   0  0  0  0  0  0  0  0  0  0  0  0
   19.4545   -8.2021   10.1025 C   0  0  0  0  0  0  0  0  0  0  0  0
   19.7183   -7.5757    8.8828 C   0  0  0  0  0  0  0  0  0  0  0  0
   19.0289   -7.9378    7.7676 N   0  0  0  0  0  0  0  0  0  0  0  0
   18.0746   -8.9066    7.8040 C   0  0  0  0  0  0  0  0  0  0  0  0
   17.7823   -9.5566    9.0054 C   0  0  0  0  0  0  0  0  0  0  0  0
   17.3687   -9.2628    6.6062 C   0  0  0  0  0  0  0  0  0  0  0  0
   16.7997   -9.5505    5.6406 N   0  0  0  0  0  0  0  0  0  0  0  0
 13 14  1  0  0  0
 14 15  1  0  0  0
 15 16  1  0  0  0
 16 17  1  0  0  0
 17 18  1  0  0  0
 17 12  1  0  0  0
 12  5  1  0  0  0
  5  6  2  0  0  0
  6  7  1  0  0  0
  7  8  2  0  0  0
  8  9  1  0  0  0
  9 10  2  0  0  0
 10 11  1  0  0  0
  8  1  1  0  0  0
  1  2  1  0  0  0
  2  3  2  0  0  0
 22  2  1  0  0  0
 22 23  1  0  0  0
 23 24  1  0  0  0
 24 25  1  0  0  0
 25 26  1  0  0  0
 26 27  1  0  0  0
 25 28  1  0  0  0
 28 29  1  0  0  0
 29 30  2  0  0  0
 30 31  1  0  0  0
 31 32  2  0  0  0
 32 33  1  0  0  0
 33 34  2  0  0  0
 33 35  1  0  0  0
 35 36  3  0  0  0
  1  4  1  0  0  0
 15 20  1  0  0  0
 20 21  1  0  0  0
 18 13  1  0  0  0
 10  5  1  0  0  0
 27 22  1  0  0  0
 34 29  1  0  0  0
 14 19  1  0  0  0
M  END
>  <minimizedAffinity>
-3.59038

>  <minimizedRMSD>
1.38284

$$$$
CHEMBL1402929 ChemDiv-G751-3141 MCULE-3928004968 MolPort-007-878-467 PubChem-16030580 ZINC000008598162 ZINC08598162


 33 36  0  0  0  0  0  0  0  0999 V2000
   16.3322   -8.2596   17.7810 C   0  0  0  0  0  0  0  0  0  0  0  0
   15.2634   -7.9275   17.0246 N   0  0  0  0  0  0  0  0  0  0  0  0
   15.2970   -8.4669   15.8077 N   0  0  0  0  0  0  0  0  0  0  0  0
   16.3955   -9.2258   15.5983 C   0  0  0  0  0  0  0  0  0  0  0  0
   17.4001   -9.2606   16.9478 S   0  0  0  0  0  0  0  0  0  0  0  0
   16.6766   -9.9170   14.3777 N   0  0  0  0  0  0  0  0  0  0  0  0
   16.4969   -9.3710   13.0672 C   0  0  0  0  0  0  0  0  0  0  0  0
   16.0701   -8.1973   12.9041 O   0  0  0  0  0  0  0  0  0  0  0  0
   17.0194  -10.8374   14.4444 H   0  0  0  0  0  0  0  0  0  0  0  0
   16.8572  -10.1897   11.8802 C   0  0  0  0  0  0  0  0  0  0  0  0
   17.9661   -9.5997   11.2151 O   0  0  0  0  0  0  0  0  0  0  0  0
   17.9037   -9.1483    9.8917 C   0  0  0  0  0  0  0  0  0  0  0  0
   18.9444   -8.3556    9.3779 C   0  0  0  0  0  0  0  0  0  0  0  0
   20.1140   -7.9883   10.2243 C   0  0  0  0  0  0  0  0  0  0  0  0
   18.8919   -7.8996    8.0569 C   0  0  0  0  0  0  0  0  0  0  0  0
   17.8065   -8.2288    7.2412 C   0  0  0  0  0  0  0  0  0  0  0  0
   16.7685   -9.0159    7.7443 C   0  0  0  0  0  0  0  0  0  0  0  0
   16.8161   -9.4740    9.0635 C   0  0  0  0  0  0  0  0  0  0  0  0
   16.5685   -7.6941   19.4618 S   0  0  0  0  0  0  0  0  0  0  0  0
   15.0107   -8.4321   20.0519 C   0  0  0  0  0  0  0  0  0  0  0  0
    9.5166   -2.7227   19.7928 C   0  0  0  0  0  0  0  0  0  0  0  0
   10.5303   -3.7983   19.6396 C   0  0  0  0  0  0  0  0  0  0  0  0
   10.8897   -4.2419   18.3631 C   0  0  0  0  0  0  0  0  0  0  0  0
   11.8431   -5.2531   18.2130 C   0  0  0  0  0  0  0  0  0  0  0  0
   12.4398   -5.8247   19.3402 C   0  0  0  0  0  0  0  0  0  0  0  0
   13.3691   -6.8052   19.1925 N   0  0  0  0  0  0  0  0  0  0  0  0
   13.9752   -7.3821   20.2648 C   0  0  0  0  0  0  0  0  0  0  0  0
   13.6525   -6.9681   21.5603 C   0  0  0  0  0  0  0  0  0  0  0  0
   12.7000   -5.9648   21.7483 C   0  0  0  0  0  0  0  0  0  0  0  0
   12.4094   -5.5978   22.9186 O   0  0  0  0  0  0  0  0  0  0  0  0
   12.0811   -5.3787   20.6330 C   0  0  0  0  0  0  0  0  0  0  0  0
   11.1237   -4.3638   20.7722 C   0  0  0  0  0  0  0  0  0  0  0  0
   13.6097   -7.1055   18.2863 H   0  0  0  0  0  0  0  0  0  0  0  0
 21 22  1  0  0  0
 22 23  2  0  0  0
 23 24  1  0  0  0
 24 25  2  0  0  0
 25 26  1  0  0  0
 26 27  1  0  0  0
 27 20  1  0  0  0
 27 28  2  0  0  0
 20 19  1  0  0  0
 19  1  1  0  0  0
  1  2  2  0  0  0
  2  3  1  0  0  0
  3  4  2  0  0  0
  4  6  1  0  0  0
  4  5  1  0  0  0
  6  7  1  0  0  0
  7  8  2  0  0  0
  7 10  1  0  0  0
 10 11  1  0  0  0
 11 12  1  0  0  0
 12 13  2  0  0  0
 13 14  1  0  0  0
 13 15  1  0  0  0
 15 16  2  0  0  0
 16 17  1  0  0  0
 17 18  2  0  0  0
 18 12  1  0  0  0
  5  1  1  0  0  0
 28 29  1  0  0  0
 29 30  2  0  0  0
 29 31  1  0  0  0
 31 32  2  0  0  0
 31 25  1  0  0  0
 32 22  1  0  0  0
 26 33  1  0  0  0
  6  9  1  0  0  0
M  END
>  <minimizedAffinity>
-3.56919

>  <minimizedRMSD>
1.19859

$$$$
CHEMBL4542165 PubChem-135281293


 36 40  0  0  0  0  0  0  0  0999 V2000
   15.3502   -8.1104   17.8923 C   0  0  0  0  0  0  0  0  0  0  0  0
   16.2262   -9.1816   18.0645 C   0  0  0  0  0  0  0  0  0  0  0  0
   16.6299   -9.5202   16.8327 N   0  0  0  0  0  0  0  0  0  0  0  0
   17.4845  -10.4996   16.4530 C   0  0  0  0  0  0  0  0  0  0  0  0
   17.7455  -10.6505   15.0840 C   0  0  0  0  0  0  0  0  0  0  0  0
   17.1240   -9.7950   14.1430 C   0  0  0  0  0  0  0  0  0  0  0  0
   16.2431   -8.7919   14.6018 C   0  0  0  0  0  0  0  0  0  0  0  0
   16.0237   -8.6911   15.9725 C   0  0  0  0  0  0  0  0  0  0  0  0
   15.2207   -7.7994   16.5775 N   0  0  0  0  0  0  0  0  0  0  0  0
   13.3330   -6.9106   18.8542 C   0  0  0  0  0  0  0  0  0  0  0  0
   12.7299   -6.2480   19.9357 C   0  0  0  0  0  0  0  0  0  0  0  0
   13.4116   -6.0652   21.1469 C   0  0  0  0  0  0  0  0  0  0  0  0
   14.7169   -6.5540   21.2755 C   0  0  0  0  0  0  0  0  0  0  0  0
   15.3250   -7.2138   20.2068 C   0  0  0  0  0  0  0  0  0  0  0  0
   14.6512   -7.4017   18.9908 C   0  0  0  0  0  0  0  0  0  0  0  0
   15.6121   -6.3505   22.7706 Cl  0  0  0  0  0  0  0  0  0  0  0  0
   11.2408   -7.3543   17.5998 C   0  0  0  0  0  0  0  0  0  0  0  0
   12.6350   -7.0830   17.6525 O   0  0  0  0  0  0  0  0  0  0  0  0
   12.8112   -5.4050   22.2247 O   0  0  0  0  0  0  0  0  0  0  0  0
   11.5814   -4.7025   22.1082 C   0  0  0  0  0  0  0  0  0  0  0  0
   17.3908   -9.9432   12.7346 N   0  0  0  0  0  0  0  0  0  0  0  0
   16.3907  -10.5561   11.8564 C   0  0  0  0  0  0  0  0  0  0  0  0
   16.2494   -9.7403   10.5727 C   0  0  0  0  0  0  0  0  0  0  0  0
   17.5601   -9.3894   10.0109 N   0  0  0  0  0  0  0  0  0  0  0  0
   18.7834   -9.8242   10.6865 C   0  0  0  0  0  0  0  0  0  0  0  0
   18.6877   -9.5286   12.1823 C   0  0  0  0  0  0  0  0  0  0  0  0
   17.6524   -8.6582    8.7759 C   0  0  0  0  0  0  0  0  0  0  0  0
   16.5041   -8.1488    8.1566 C   0  0  0  0  0  0  0  0  0  0  0  0
   16.6430   -7.4446    6.9622 C   0  0  0  0  0  0  0  0  0  0  0  0
   17.8746   -7.2627    6.4203 N   0  0  0  0  0  0  0  0  0  0  0  0
   18.9820   -7.7601    7.0291 C   0  0  0  0  0  0  0  0  0  0  0  0
   18.8665   -8.4494    8.1943 N   0  0  0  0  0  0  0  0  0  0  0  0
   20.2638   -7.5592    6.4467 N   0  0  0  0  0  0  0  0  0  0  0  0
   15.2295   -6.7945    6.1609 Cl  0  0  0  0  0  0  0  0  0  0  0  0
   20.3481   -7.0598    5.6025 H   0  0  0  0  0  0  0  0  0  0  0  0
   21.0668   -7.9194    6.8879 H   0  0  0  0  0  0  0  0  0  0  0  0
 17 18  1  0  0  0
 18 10  1  0  0  0
 10 11  2  0  0  0
 11 12  1  0  0  0
 12 13  2  0  0  0
 13 14  1  0  0  0
 14 15  2  0  0  0
 15  1  1  0  0  0
  1  2  2  0  0  0
  2  3  1  0  0  0
  3  4  1  0  0  0
  4  5  2  0  0  0
  5  6  1  0  0  0
  6  7  2  0  0  0
  7  8  1  0  0  0
  8  9  2  0  0  0
  6 21  1  0  0  0
 21 22  1  0  0  0
 22 23  1  0  0  0
 23 24  1  0  0  0
 24 25  1  0  0  0
 25 26  1  0  0  0
 24 27  1  0  0  0
 27 28  2  0  0  0
 28 29  1  0  0  0
 29 30  2  0  0  0
 30 31  1  0  0  0
 31 32  2  0  0  0
 31 33  1  0  0  0
 29 34  1  0  0  0
 13 16  1  0  0  0
 12 19  1  0  0  0
 19 20  1  0  0  0
 15 10  1  0  0  0
  9  1  1  0  0  0
  8  3  1  0  0  0
 26 21  1  0  0  0
 32 27  1  0  0  0
 33 35  1  0  0  0
 33 36  1  0  0  0
M  END
>  <minimizedAffinity>
-3.48408

>  <minimizedRMSD>
1.15218

$$$$
CHEMBL4520770 PubChem-135335277


 35 39  0  0  0  0  0  0  0  0999 V2000
   17.0746   -9.7881   14.1921 C   0  0  0  0  0  0  0  0  0  0  0  0
   16.1397   -8.8298   14.6399 C   0  0  0  0  0  0  0  0  0  0  0  0
   15.9654   -8.6777   16.0123 C   0  0  0  0  0  0  0  0  0  0  0  0
   15.1221   -7.8175   16.6080 N   0  0  0  0  0  0  0  0  0  0  0  0
   15.3239   -8.0532   17.9293 C   0  0  0  0  0  0  0  0  0  0  0  0
   16.2826   -9.0486   18.1147 C   0  0  0  0  0  0  0  0  0  0  0  0
   16.6634   -9.4174   16.8843 N   0  0  0  0  0  0  0  0  0  0  0  0
   17.5731  -10.3503   16.5154 C   0  0  0  0  0  0  0  0  0  0  0  0
   17.7928  -10.5492   15.1453 C   0  0  0  0  0  0  0  0  0  0  0  0
   14.6163   -7.3435   19.0216 C   0  0  0  0  0  0  0  0  0  0  0  0
   15.2820   -7.1511   20.2414 C   0  0  0  0  0  0  0  0  0  0  0  0
   14.6658   -6.4901   21.3047 C   0  0  0  0  0  0  0  0  0  0  0  0
   13.3601   -6.0046   21.1666 C   0  0  0  0  0  0  0  0  0  0  0  0
   12.6864   -6.1919   19.9516 C   0  0  0  0  0  0  0  0  0  0  0  0
   13.2979   -6.8558   18.8756 C   0  0  0  0  0  0  0  0  0  0  0  0
   15.5511   -6.2809   22.8048 Cl  0  0  0  0  0  0  0  0  0  0  0  0
   12.6079   -7.0327   17.6700 O   0  0  0  0  0  0  0  0  0  0  0  0
   11.2245   -7.3536   17.6103 C   0  0  0  0  0  0  0  0  0  0  0  0
   12.7514   -5.3432   22.2392 O   0  0  0  0  0  0  0  0  0  0  0  0
   11.4697   -4.7371   22.1418 C   0  0  0  0  0  0  0  0  0  0  0  0
   17.3997   -9.5063   10.0432 N   0  0  0  0  0  0  0  0  0  0  0  0
   18.6326   -9.9546   10.6915 C   0  0  0  0  0  0  0  0  0  0  0  0
   18.5897   -9.6243   12.1827 C   0  0  0  0  0  0  0  0  0  0  0  0
   17.2979   -9.9861   12.7823 N   0  0  0  0  0  0  0  0  0  0  0  0
   16.2545  -10.5898   11.9493 C   0  0  0  0  0  0  0  0  0  0  0  0
   16.0977   -9.7997   10.6516 C   0  0  0  0  0  0  0  0  0  0  0  0
   18.7565   -7.8347    7.0508 C   0  0  0  0  0  0  0  0  0  0  0  0
   18.6659   -8.4804    8.2463 N   0  0  0  0  0  0  0  0  0  0  0  0
   17.4620   -8.8285    8.7795 C   0  0  0  0  0  0  0  0  0  0  0  0
   16.3183   -8.5250    8.1061 N   0  0  0  0  0  0  0  0  0  0  0  0
   16.3584   -7.8823    6.9111 C   0  0  0  0  0  0  0  0  0  0  0  0
   17.5832   -7.5216    6.3549 C   0  0  0  0  0  0  0  0  0  0  0  0
   20.2098   -7.0899    5.1269 C   0  0  0  0  0  0  0  0  0  0  0  0
   20.0442   -7.4829    6.5180 N   0  0  0  0  0  0  0  0  0  0  0  0
   21.2270   -7.5103    7.3630 C   0  0  0  0  0  0  0  0  0  0  0  0
 33 34  1  0  0  0
 34 35  1  0  0  0
 34 27  1  0  0  0
 27 28  2  0  0  0
 28 29  1  0  0  0
 29 30  2  0  0  0
 30 31  1  0  0  0
 31 32  2  0  0  0
 29 21  1  0  0  0
 21 22  1  0  0  0
 22 23  1  0  0  0
 23 24  1  0  0  0
 24 25  1  0  0  0
 25 26  1  0  0  0
 24  1  1  0  0  0
  1  2  2  0  0  0
  2  3  1  0  0  0
  3  4  2  0  0  0
  4  5  1  0  0  0
  5  6  2  0  0  0
  6  7  1  0  0  0
  7  8  1  0  0  0
  8  9  2  0  0  0
  5 10  1  0  0  0
 10 11  2  0  0  0
 11 12  1  0  0  0
 12 13  2  0  0  0
 13 14  1  0  0  0
 14 15  2  0  0  0
 15 17  1  0  0  0
 17 18  1  0  0  0
 13 19  1  0  0  0
 19 20  1  0  0  0
 12 16  1  0  0  0
 32 27  1  0  0  0
 26 21  1  0  0  0
  9  1  1  0  0  0
  7  3  1  0  0  0
 15 10  1  0  0  0
M  END
>  <minimizedAffinity>
-3.46990

>  <minimizedRMSD>
1.26214

$$$$
CHEMBL5200427


 31 35  0  0  0  0  0  0  0  0999 V2000
   15.4480   -8.2899   17.2408 C   0  0  0  0  0  0  0  0  0  0  0  0
   16.6874   -8.6609   17.7709 C   0  0  0  0  0  0  0  0  0  0  0  0
   17.5323   -9.4368   16.5372 S   0  0  0  0  0  0  0  0  0  0  0  0
   16.3008   -9.2684   15.4088 C   0  0  0  0  0  0  0  0  0  0  0  0
   15.2401   -8.6249   15.9372 N   0  0  0  0  0  0  0  0  0  0  0  0
   11.8623   -5.5813   21.2521 O   0  0  0  0  0  0  0  0  0  0  0  0
   12.9270   -6.2084   21.0122 C   0  0  0  0  0  0  0  0  0  0  0  0
   13.8619   -6.5808   22.1307 C   0  0  0  0  0  0  0  0  0  0  0  0
   15.3129   -6.7163   21.6295 C   0  0  0  0  0  0  0  0  0  0  0  0
   15.4315   -7.6741   20.4309 C   0  0  0  0  0  0  0  0  0  0  0  0
   14.4370   -7.2961   19.3731 C   0  0  0  0  0  0  0  0  0  0  0  0
   13.2645   -6.6502   19.6540 C   0  0  0  0  0  0  0  0  0  0  0  0
   12.5791   -6.5344   18.4622 C   0  0  0  0  0  0  0  0  0  0  0  0
   11.2490   -5.8931   18.2728 C   0  0  0  0  0  0  0  0  0  0  0  0
   13.2783   -7.1039   17.4568 N   0  0  0  0  0  0  0  0  0  0  0  0
   14.4164   -7.5784   18.0157 C   0  0  0  0  0  0  0  0  0  0  0  0
   13.0142   -7.1622   16.5102 H   0  0  0  0  0  0  0  0  0  0  0  0
   16.3540   -9.7216   14.0506 N   0  0  0  0  0  0  0  0  0  0  0  0
   15.1213   -9.8754   13.2830 C   0  0  0  0  0  0  0  0  0  0  0  0
   15.3661   -9.4536   11.8372 C   0  0  0  0  0  0  0  0  0  0  0  0
   16.5189  -10.1765   11.2925 N   0  0  0  0  0  0  0  0  0  0  0  0
   17.7285   -9.8170   12.0386 C   0  0  0  0  0  0  0  0  0  0  0  0
   17.5939  -10.2560   13.4935 C   0  0  0  0  0  0  0  0  0  0  0  0
   16.6873   -9.8520    9.8697 C   0  0  0  0  0  0  0  0  0  0  0  0
   17.8455   -8.9326    9.5835 C   0  0  0  0  0  0  0  0  0  0  0  0
   17.7219   -7.6248    9.3027 N   0  0  0  0  0  0  0  0  0  0  0  0
   18.9371   -7.1271    9.1208 N   0  0  0  0  0  0  0  0  0  0  0  0
   19.8548   -8.1045    9.2826 C   0  0  0  0  0  0  0  0  0  0  0  0
   19.1786   -9.2673    9.5802 C   0  0  0  0  0  0  0  0  0  0  0  0
   19.7816  -10.6041    9.8346 C   0  0  0  0  0  0  0  0  0  0  0  0
   19.1394   -6.1890    8.9014 H   0  0  0  0  0  0  0  0  0  0  0  0
  6  7  2  0  0  0
  7  8  1  0  0  0
  8  9  1  0  0  0
  9 10  1  0  0  0
 10 11  1  0  0  0
 11 12  1  0  0  0
 12 13  2  0  0  0
 13 14  1  0  0  0
 13 15  1  0  0  0
 15 16  1  0  0  0
 16  1  1  0  0  0
  1  2  2  0  0  0
  2  3  1  0  0  0
  3  4  1  0  0  0
  4  5  2  0  0  0
  4 18  1  0  0  0
 18 19  1  0  0  0
 19 20  1  0  0  0
 20 21  1  0  0  0
 21 22  1  0  0  0
 22 23  1  0  0  0
 21 24  1  0  0  0
 24 25  1  0  0  0
 25 26  2  0  0  0
 26 27  1  0  0  0
 27 28  1  0  0  0
 28 29  2  0  0  0
 29 30  1  0  0  0
 12  7  1  0  0  0
  5  1  1  0  0  0
 23 18  1  0  0  0
 29 25  1  0  0  0
 16 11  2  0  0  0
 15 17  1  0  0  0
 27 31  1  0  0  0
M  END
>  <minimizedAffinity>
-3.45944

>  <minimizedRMSD>
1.81907

$$$$
CHEMBL4442501 PubChem-155515933


 37 40  0  0  0  0  0  0  0  0999 V2000
   18.1742   -9.8166   11.5336 N   0  0  0  0  0  0  0  0  0  0  0  0
   17.5462   -8.9965   10.7051 N   0  0  0  0  0  0  0  0  0  0  0  0
   16.5650   -8.3326   11.3502 C   0  0  0  0  0  0  0  0  0  0  0  0
   16.5744   -8.7586   12.6654 C   0  0  0  0  0  0  0  0  0  0  0  0
   17.5989   -9.6996   12.7451 C   0  0  0  0  0  0  0  0  0  0  0  0
   17.9987  -10.5336   13.8945 C   0  0  0  0  0  0  0  0  0  0  0  0
   18.0021  -11.9290   13.7672 C   0  0  0  0  0  0  0  0  0  0  0  0
   18.3365  -12.7389   14.8561 C   0  0  0  0  0  0  0  0  0  0  0  0
   18.6593  -12.1655   16.0897 C   0  0  0  0  0  0  0  0  0  0  0  0
   18.6349  -10.7687   16.2267 C   0  0  0  0  0  0  0  0  0  0  0  0
   18.2997   -9.9607   15.1373 C   0  0  0  0  0  0  0  0  0  0  0  0
   18.9946  -13.0017   17.1580 O   0  0  0  0  0  0  0  0  0  0  0  0
   19.2693  -12.5085   18.4621 C   0  0  0  0  0  0  0  0  0  0  0  0
   17.8850   -8.8510    9.3175 C   0  0  0  0  0  0  0  0  0  0  0  0
   17.2601   -9.6432    8.3409 C   0  0  0  0  0  0  0  0  0  0  0  0
   17.5938   -9.4972    6.9913 C   0  0  0  0  0  0  0  0  0  0  0  0
   18.5548   -8.5586    6.6069 C   0  0  0  0  0  0  0  0  0  0  0  0
   19.1824   -7.7659    7.5713 C   0  0  0  0  0  0  0  0  0  0  0  0
   18.8489   -7.9114    8.9211 C   0  0  0  0  0  0  0  0  0  0  0  0
   15.7235   -8.2003   13.7306 C   0  0  0  0  0  0  0  0  0  0  0  0
   14.6585   -7.5998   13.4237 O   0  0  0  0  0  0  0  0  0  0  0  0
   16.1228   -8.2796   15.0980 N   0  0  0  0  0  0  0  0  0  0  0  0
   16.9749   -8.7157   15.3282 H   0  0  0  0  0  0  0  0  0  0  0  0
   15.3255   -7.7489   16.1178 N   0  0  0  0  0  0  0  0  0  0  0  0
   15.4705   -8.1658   17.3325 C   0  0  0  0  0  0  0  0  0  0  0  0
   14.6527   -7.6337   18.4269 C   0  0  0  0  0  0  0  0  0  0  0  0
   13.4092   -7.0444   18.1858 C   0  0  0  0  0  0  0  0  0  0  0  0
   12.6326   -6.5374   19.2398 C   0  0  0  0  0  0  0  0  0  0  0  0
   13.1217   -6.6268   20.5685 C   0  0  0  0  0  0  0  0  0  0  0  0
   14.3735   -7.2217   20.8048 C   0  0  0  0  0  0  0  0  0  0  0  0
   15.1284   -7.7200   19.7329 C   0  0  0  0  0  0  0  0  0  0  0  0
   14.8486   -7.3069   22.1187 O   0  0  0  0  0  0  0  0  0  0  0  0
   16.0009   -6.6072   22.5688 C   0  0  0  0  0  0  0  0  0  0  0  0
   12.4157   -6.1468   21.6848 O   0  0  0  0  0  0  0  0  0  0  0  0
   12.4436   -4.8063   22.1533 C   0  0  0  0  0  0  0  0  0  0  0  0
   11.3893   -5.9517   18.9737 O   0  0  0  0  0  0  0  0  0  0  0  0
   11.2335   -4.5759   18.6511 C   0  0  0  0  0  0  0  0  0  0  0  0
  1  2  1  0  0  0
  2  3  1  0  0  0
  3  4  2  0  0  0
  4  5  1  0  0  0
  5  6  1  0  0  0
  6  7  2  0  0  0
  7  8  1  0  0  0
  8  9  2  0  0  0
  9 10  1  0  0  0
 10 11  2  0  0  0
  9 12  1  0  0  0
 12 13  1  0  0  0
  4 20  1  0  0  0
 20 21  2  0  0  0
 20 22  1  0  0  0
 22 24  1  0  0  0
 24 25  2  0  0  0
 25 26  1  0  0  0
 26 27  2  0  0  0
 27 28  1  0  0  0
 28 29  2  0  0  0
 29 30  1  0  0  0
 30 31  2  0  0  0
 30 32  1  0  0  0
 32 33  1  0  0  0
 29 34  1  0  0  0
 34 35  1  0  0  0
 28 36  1  0  0  0
 36 37  1  0  0  0
  2 14  1  0  0  0
 14 15  2  0  0  0
 15 16  1  0  0  0
 16 17  2  0  0  0
 17 18  1  0  0  0
 18 19  2  0  0  0
  5  1  2  0  0  0
 11  6  1  0  0  0
 31 26  1  0  0  0
 19 14  1  0  0  0
 22 23  1  0  0  0
M  END
>  <minimizedAffinity>
-3.43045

>  <minimizedRMSD>
1.16991

$$$$
CHEMBL4067077 PubChem-137634165


 29 31  0  0  0  0  0  0  0  0999 V2000
   15.9529   -8.8883   16.3743 C   0  0  0  0  0  0  0  0  0  0  0  0
   16.7288   -9.7161   15.6609 C   0  0  0  0  0  0  0  0  0  0  0  0
   14.9481   -7.9510   15.7485 C   0  0  0  0  0  0  0  0  0  0  0  0
   14.7968   -6.7881   16.5330 O   0  0  0  0  0  0  0  0  0  0  0  0
   14.1682   -7.1785   17.7319 C   0  0  0  0  0  0  0  0  0  0  0  0
   15.1275   -7.9745   18.5776 C   0  0  0  0  0  0  0  0  0  0  0  0
   15.2294   -7.8490   19.9093 C   0  0  0  0  0  0  0  0  0  0  0  0
   16.0026   -8.9112   17.8494 C   0  0  0  0  0  0  0  0  0  0  0  0
   16.7823   -9.6901   18.4654 O   0  0  0  0  0  0  0  0  0  0  0  0
   16.7881   -9.8433   14.1868 C   0  0  0  0  0  0  0  0  0  0  0  0
   15.6564   -9.8039   13.4311 N   0  0  0  0  0  0  0  0  0  0  0  0
   15.6898   -9.9157   12.0780 C   0  0  0  0  0  0  0  0  0  0  0  0
   16.9265  -10.0759   11.4364 C   0  0  0  0  0  0  0  0  0  0  0  0
   18.0594  -10.1148   12.1847 N   0  0  0  0  0  0  0  0  0  0  0  0
   18.0258  -10.0029   13.5386 C   0  0  0  0  0  0  0  0  0  0  0  0
   19.3087  -10.0534   14.2990 C   0  0  0  0  0  0  0  0  0  0  0  0
   17.0291  -10.2042    9.9542 C   0  0  0  0  0  0  0  0  0  0  0  0
   14.4110   -9.8646   11.3126 C   0  0  0  0  0  0  0  0  0  0  0  0
   14.4577   -6.9627   20.8120 C   0  0  0  0  0  0  0  0  0  0  0  0
   15.1081   -6.3484   21.8983 C   0  0  0  0  0  0  0  0  0  0  0  0
   14.3947   -5.5105   22.7589 C   0  0  0  0  0  0  0  0  0  0  0  0
   13.0279   -5.2683   22.5577 C   0  0  0  0  0  0  0  0  0  0  0  0
   12.3716   -5.8755   21.4794 C   0  0  0  0  0  0  0  0  0  0  0  0
   13.0912   -6.7165   20.6173 C   0  0  0  0  0  0  0  0  0  0  0  0
   16.9712   -6.6206   22.2508 Br  0  0  0  0  0  0  0  0  0  0  0  0
   11.0081   -5.6315   21.2821 O   0  0  0  0  0  0  0  0  0  0  0  0
   10.4847   -5.1383   20.0563 C   0  0  0  0  0  0  0  0  0  0  0  0
   12.3057   -4.4306   23.4146 O   0  0  0  0  0  0  0  0  0  0  0  0
   12.0770   -4.7419   24.7822 C   0  0  0  0  0  0  0  0  0  0  0  0
  1  2  2  0  0  0
  2 10  1  0  0  0
 10 11  2  0  0  0
 11 12  1  0  0  0
 12 13  2  0  0  0
 13 14  1  0  0  0
 14 15  2  0  0  0
 15 16  1  0  0  0
 13 17  1  0  0  0
 12 18  1  0  0  0
  1  3  1  0  0  0
  3  4  1  0  0  0
  4  5  1  0  0  0
  5  6  1  0  0  0
  6  7  2  0  0  0
  7 19  1  0  0  0
 19 20  2  0  0  0
 20 21  1  0  0  0
 21 22  2  0  0  0
 22 23  1  0  0  0
 23 24  2  0  0  0
 23 26  1  0  0  0
 26 27  1  0  0  0
 22 28  1  0  0  0
 28 29  1  0  0  0
 20 25  1  0  0  0
  6  8  1  0  0  0
  8  9  2  0  0  0
  8  1  1  0  0  0
 15 10  1  0  0  0
 24 19  1  0  0  0
M  END
>  <minimizedAffinity>
-3.42294

>  <minimizedRMSD>
1.80792

$$$$
CHEMBL3593508 PubChem-122181960


 32 34  0  0  0  0  0  0  0  0999 V2000
   15.1900   -8.3354   16.8541 C   0  0  0  0  0  0  0  0  0  0  0  0
   15.7424   -7.0646   16.6461 C   0  0  0  0  0  0  0  0  0  0  0  0
   16.6425   -6.8919   15.5966 C   0  0  0  0  0  0  0  0  0  0  0  0
   16.9628   -7.9421   14.7976 N   0  0  0  0  0  0  0  0  0  0  0  0
   16.4128   -9.1671   15.0050 C   0  0  0  0  0  0  0  0  0  0  0  0
   15.5345   -9.3554   16.0249 N   0  0  0  0  0  0  0  0  0  0  0  0
   14.2673   -8.5757   17.8806 O   0  0  0  0  0  0  0  0  0  0  0  0
   11.7113   -7.5880   17.0785 C   0  0  0  0  0  0  0  0  0  0  0  0
   12.4101   -7.0744   18.2897 C   0  0  0  0  0  0  0  0  0  0  0  0
   11.8000   -6.0723   19.0490 C   0  0  0  0  0  0  0  0  0  0  0  0
   12.4320   -5.5696   20.1875 C   0  0  0  0  0  0  0  0  0  0  0  0
   13.6722   -6.0775   20.5783 C   0  0  0  0  0  0  0  0  0  0  0  0
   14.2955   -7.0763   19.8249 C   0  0  0  0  0  0  0  0  0  0  0  0
   15.5869   -7.6343   20.3169 C   0  0  0  0  0  0  0  0  0  0  0  0
   13.6719   -7.5722   18.6593 C   0  0  0  0  0  0  0  0  0  0  0  0
   11.8003   -4.5411   20.9644 C   0  0  0  0  0  0  0  0  0  0  0  0
   11.2909   -3.7119   21.5907 N   0  0  0  0  0  0  0  0  0  0  0  0
   16.8483  -10.5329   13.9395 S   0  0  0  0  0  0  0  0  0  0  0  0
   15.7758   -9.9294   12.6025 C   0  0  0  0  0  0  0  0  0  0  0  0
   16.5197   -9.9182   11.3138 C   0  0  0  0  0  0  0  0  0  0  0  0
   16.4035  -10.8936   10.5258 O   0  0  0  0  0  0  0  0  0  0  0  0
   17.3874   -8.8217   11.0037 N   0  0  0  0  0  0  0  0  0  0  0  0
   17.6079   -8.2025   11.7366 H   0  0  0  0  0  0  0  0  0  0  0  0
   17.9630   -8.5467    9.7202 C   0  0  0  0  0  0  0  0  0  0  0  0
   19.2684   -8.0451    9.6704 C   0  0  0  0  0  0  0  0  0  0  0  0
   19.8667   -7.7435    8.4442 C   0  0  0  0  0  0  0  0  0  0  0  0
   19.1568   -7.9304    7.2563 C   0  0  0  0  0  0  0  0  0  0  0  0
   17.8417   -8.3996    7.2963 C   0  0  0  0  0  0  0  0  0  0  0  0
   17.2385   -8.7046    8.5206 C   0  0  0  0  0  0  0  0  0  0  0  0
   15.9387   -9.0890    8.5282 F   0  0  0  0  0  0  0  0  0  0  0  0
   19.7711   -7.6216    5.9962 C   0  0  0  0  0  0  0  0  0  0  0  0
   20.2664   -7.3727    4.9803 N   0  0  0  0  0  0  0  0  0  0  0  0
  8  9  1  0  0  0
  9 10  2  0  0  0
 10 11  1  0  0  0
 11 16  1  0  0  0
 16 17  3  0  0  0
 11 12  2  0  0  0
 12 13  1  0  0  0
 13 14  1  0  0  0
 13 15  2  0  0  0
 15  7  1  0  0  0
  7  1  1  0  0  0
  1  2  2  0  0  0
  2  3  1  0  0  0
  3  4  2  0  0  0
  4  5  1  0  0  0
  5 18  1  0  0  0
 18 19  1  0  0  0
 19 20  1  0  0  0
 20 21  2  0  0  0
 20 22  1  0  0  0
 22 24  1  0  0  0
 24 25  2  0  0  0
 25 26  1  0  0  0
 26 27  2  0  0  0
 27 31  1  0  0  0
 31 32  3  0  0  0
 27 28  1  0  0  0
 28 29  2  0  0  0
 29 30  1  0  0  0
  5  6  2  0  0  0
 15  9  1  0  0  0
  6  1  1  0  0  0
 29 24  1  0  0  0
 22 23  1  0  0  0
M  END
>  <minimizedAffinity>
-3.39921

>  <minimizedRMSD>
1.76899

$$$$
CHEMBL3702084 PubChem-58299808


 35 40  0  0  0  0  0  0  0  0999 V2000
   15.3755   -8.9938   16.7792 C   0  0  0  0  0  0  0  0  0  0  0  0
   16.6556   -8.8694   17.2632 N   0  0  0  0  0  0  0  0  0  0  0  0
   16.9223   -8.2404   18.4453 C   0  0  0  0  0  0  0  0  0  0  0  0
   15.8465   -7.7250   19.1494 C   0  0  0  0  0  0  0  0  0  0  0  0
   15.7372   -7.0491   20.3410 C   0  0  0  0  0  0  0  0  0  0  0  0
   14.3910   -6.7978   20.5164 C   0  0  0  0  0  0  0  0  0  0  0  0
   13.9514   -6.1167   21.6524 C   0  0  0  0  0  0  0  0  0  0  0  0
   14.8839   -5.7154   22.5667 N   0  0  0  0  0  0  0  0  0  0  0  0
   16.2223   -5.9607   22.4005 C   0  0  0  0  0  0  0  0  0  0  0  0
   16.6929   -6.6447   21.2658 C   0  0  0  0  0  0  0  0  0  0  0  0
   12.6377   -5.8527   21.8578 F   0  0  0  0  0  0  0  0  0  0  0  0
   13.6588   -7.2878   19.4853 N   0  0  0  0  0  0  0  0  0  0  0  0
   14.5732   -7.8528   18.6603 C   0  0  0  0  0  0  0  0  0  0  0  0
   14.3232   -8.4813   17.4856 N   0  0  0  0  0  0  0  0  0  0  0  0
   12.2077   -7.2182   19.3197 C   0  0  0  0  0  0  0  0  0  0  0  0
   11.6058   -8.6069   19.2187 C   0  0  0  0  0  0  0  0  0  0  0  0
   10.5127   -8.4938   18.1818 C   0  0  0  0  0  0  0  0  0  0  0  0
   10.9809   -7.4192   17.2261 C   0  0  0  0  0  0  0  0  0  0  0  0
   11.8355   -6.4729   18.0470 C   0  0  0  0  0  0  0  0  0  0  0  0
   15.1175   -9.6615   15.5385 N   0  0  0  0  0  0  0  0  0  0  0  0
   14.3135  -10.2282   15.4981 H   0  0  0  0  0  0  0  0  0  0  0  0
   17.4526   -9.4190   12.0284 C   0  0  0  0  0  0  0  0  0  0  0  0
   17.7642  -10.3270   13.0511 C   0  0  0  0  0  0  0  0  0  0  0  0
   16.9994  -10.3903   14.1737 N   0  0  0  0  0  0  0  0  0  0  0  0
   15.9148   -9.5857   14.3509 C   0  0  0  0  0  0  0  0  0  0  0  0
   15.5692   -8.6653   13.3603 C   0  0  0  0  0  0  0  0  0  0  0  0
   16.3392   -8.5846   12.1998 C   0  0  0  0  0  0  0  0  0  0  0  0
   16.4962   -8.7579    7.9709 C   0  0  0  0  0  0  0  0  0  0  0  0
   17.9031   -9.1345    8.3860 C   0  0  0  0  0  0  0  0  0  0  0  0
   17.8475  -10.0531    9.6197 C   0  0  0  0  0  0  0  0  0  0  0  0
   18.2561   -9.3442   10.8356 N   0  0  0  0  0  0  0  0  0  0  0  0
   19.4806   -8.5376   10.8131 C   0  0  0  0  0  0  0  0  0  0  0  0
   19.8877   -8.2225    9.3771 C   0  0  0  0  0  0  0  0  0  0  0  0
   18.6897   -7.9130    8.6019 N   0  0  0  0  0  0  0  0  0  0  0  0
   18.9623   -7.5227    7.6999 H   0  0  0  0  0  0  0  0  0  0  0  0
 29 28  1  0  0  0
 29 30  1  0  0  0
 30 31  1  0  0  0
 31 32  1  0  0  0
 31 22  1  0  0  0
 32 33  1  0  0  0
 33 34  1  0  0  0
 34 29  1  0  0  0
 22 23  2  0  0  0
 23 24  1  0  0  0
 24 25  2  0  0  0
 25 26  1  0  0  0
 25 20  1  0  0  0
 26 27  2  0  0  0
 27 22  1  0  0  0
 20  1  1  0  0  0
  1  2  2  0  0  0
  2  3  1  0  0  0
  3  4  2  0  0  0
  4  5  1  0  0  0
  5  6  2  0  0  0
  6  7  1  0  0  0
  6 12  1  0  0  0
  7  8  2  0  0  0
  7 11  1  0  0  0
  8  9  1  0  0  0
  9 10  2  0  0  0
 10  5  1  0  0  0
 12 13  1  0  0  0
 12 15  1  0  0  0
 13 14  2  0  0  0
 13  4  1  0  0  0
 14  1  1  0  0  0
 15 16  1  0  0  0
 16 17  1  0  0  0
 17 18  1  0  0  0
 18 19  1  0  0  0
 19 15  1  0  0  0
 34 35  1  0  0  0
 20 21  1  0  0  0
M  END
>  <minimizedAffinity>
-3.37245

>  <minimizedRMSD>
1.70823

$$$$
CHEMBL2042646 PubChem-66572670


 36 38  0  0  0  0  0  0  0  0999 V2000
   16.9056   -9.1280   15.5684 N   0  0  0  0  0  0  0  0  0  0  0  0
   15.6835   -8.8974   16.2752 C   0  0  0  0  0  0  0  0  0  0  0  0
   14.8515   -9.8313   16.4415 O   0  0  0  0  0  0  0  0  0  0  0  0
   17.4479   -8.3436   15.3238 H   0  0  0  0  0  0  0  0  0  0  0  0
   17.5583  -10.7493   13.8186 C   0  0  0  0  0  0  0  0  0  0  0  0
   18.0465  -12.0180   13.4729 C   0  0  0  0  0  0  0  0  0  0  0  0
   18.3894  -12.9478   14.4516 C   0  0  0  0  0  0  0  0  0  0  0  0
   18.9956  -14.5226   13.9886 Cl  0  0  0  0  0  0  0  0  0  0  0  0
   18.2666  -12.6167   15.7979 C   0  0  0  0  0  0  0  0  0  0  0  0
   17.7795  -11.3647   16.1757 C   0  0  0  0  0  0  0  0  0  0  0  0
   17.7497  -11.0413   17.6312 C   0  0  0  0  0  0  0  0  0  0  0  0
   17.3969  -10.4235   15.1907 C   0  0  0  0  0  0  0  0  0  0  0  0
   17.9662   -9.8441   11.5011 N   0  0  0  0  0  0  0  0  0  0  0  0
   17.2131   -9.8145   12.7174 C   0  0  0  0  0  0  0  0  0  0  0  0
   16.2626   -8.9944   12.8373 O   0  0  0  0  0  0  0  0  0  0  0  0
   18.7087  -10.4850   11.4159 H   0  0  0  0  0  0  0  0  0  0  0  0
   17.6705   -8.9586   10.3873 C   0  0  0  0  0  0  0  0  0  0  0  0
   17.0357   -9.0447    7.9997 C   0  0  0  0  0  0  0  0  0  0  0  0
   16.8591   -9.7059    9.3501 C   0  0  0  0  0  0  0  0  0  0  0  0
   15.3943   -7.5307   16.8018 C   0  0  0  0  0  0  0  0  0  0  0  0
   15.8582   -7.4133   18.2544 C   0  0  0  0  0  0  0  0  0  0  0  0
   14.5735   -7.1376   18.9652 C   0  0  0  0  0  0  0  0  0  0  0  0
   13.5663   -7.0949   18.1640 N   0  0  0  0  0  0  0  0  0  0  0  0
   13.9936   -7.3196   16.8827 O   0  0  0  0  0  0  0  0  0  0  0  0
   14.4486   -6.9397   20.4191 C   0  0  0  0  0  0  0  0  0  0  0  0
   15.5338   -7.1918   21.2598 C   0  0  0  0  0  0  0  0  0  0  0  0
   15.4281   -7.0084   22.6459 C   0  0  0  0  0  0  0  0  0  0  0  0
   14.2181   -6.5657   23.2072 C   0  0  0  0  0  0  0  0  0  0  0  0
   13.1108   -6.3071   22.3593 C   0  0  0  0  0  0  0  0  0  0  0  0
   13.2450   -6.4992   20.9751 C   0  0  0  0  0  0  0  0  0  0  0  0
   16.5166   -7.2614   23.4888 O   0  0  0  0  0  0  0  0  0  0  0  0
   17.7572   -6.5778   23.3718 C   0  0  0  0  0  0  0  0  0  0  0  0
   14.1768   -6.4018   24.6023 O   0  0  0  0  0  0  0  0  0  0  0  0
   14.3205   -5.1639   25.2835 C   0  0  0  0  0  0  0  0  0  0  0  0
   11.8929   -5.8652   22.8893 O   0  0  0  0  0  0  0  0  0  0  0  0
   11.2289   -4.6936   22.4340 C   0  0  0  0  0  0  0  0  0  0  0  0
 18 19  1  0  0  0
 19 17  1  0  0  0
 17 13  1  0  0  0
 13 14  1  0  0  0
 14 15  2  0  0  0
 14  5  1  0  0  0
  5  6  2  0  0  0
  6  7  1  0  0  0
  7  8  1  0  0  0
  7  9  2  0  0  0
  9 10  1  0  0  0
 10 11  1  0  0  0
 10 12  2  0  0  0
 12  1  1  0  0  0
 12  5  1  0  0  0
  1  2  1  0  0  0
  2  3  2  0  0  0
 20  2  1  0  0  0
 20 21  1  0  0  0
 21 22  1  0  0  0
 22 25  1  0  0  0
 22 23  2  0  0  0
 25 26  2  0  0  0
 26 27  1  0  0  0
 27 31  1  0  0  0
 27 28  2  0  0  0
 31 32  1  0  0  0
 28 33  1  0  0  0
 28 29  1  0  0  0
 33 34  1  0  0  0
 29 35  1  0  0  0
 29 30  2  0  0  0
 35 36  1  0  0  0
 30 25  1  0  0  0
 23 24  1  0  0  0
 24 20  1  0  0  0
 13 16  1  0  0  0
  1  4  1  0  0  0
M  END
>  <minimizedAffinity>
-3.36779

>  <minimizedRMSD>
1.80017

$$$$
CHEMBL1579346 4102830 MCULE-8501509862 MolPort-000-031-666 PubChem-655194 ZINC000004102830 ZINC04102830


 32 35  0  0  0  0  0  0  0  0999 V2000
   15.3809   -8.8479   20.3461 S   0  0  0  0  0  0  0  0  0  0  0  0
   14.1025   -6.6928   21.5719 N   0  0  0  0  0  0  0  0  0  0  0  0
   14.0768   -7.6444   20.6025 C   0  0  0  0  0  0  0  0  0  0  0  0
   12.9654   -7.5938   19.8215 N   0  0  0  0  0  0  0  0  0  0  0  0
   12.2907   -6.5505   20.3437 C   0  0  0  0  0  0  0  0  0  0  0  0
   12.9654   -6.0062   21.3836 C   0  0  0  0  0  0  0  0  0  0  0  0
   12.4466   -4.9086   22.0603 C   0  0  0  0  0  0  0  0  0  0  0  0
   13.0672   -4.3939   23.0308 O   0  0  0  0  0  0  0  0  0  0  0  0
   11.2408   -4.4046   21.6407 N   0  0  0  0  0  0  0  0  0  0  0  0
   10.6645   -3.2529   22.3277 C   0  0  0  0  0  0  0  0  0  0  0  0
   10.5685   -4.9741   20.5775 C   0  0  0  0  0  0  0  0  0  0  0  0
    9.4598   -4.4962   20.2050 O   0  0  0  0  0  0  0  0  0  0  0  0
   11.0985   -6.0588   19.9202 N   0  0  0  0  0  0  0  0  0  0  0  0
   10.4068   -6.6726   18.7935 C   0  0  0  0  0  0  0  0  0  0  0  0
   15.0387   -7.4111   23.7092 C   0  0  0  0  0  0  0  0  0  0  0  0
   15.1507   -6.4358   22.5524 C   0  0  0  0  0  0  0  0  0  0  0  0
   16.3522   -7.7120   19.3094 C   0  0  0  0  0  0  0  0  0  0  0  0
   16.0611   -7.9420   17.8666 C   0  0  0  0  0  0  0  0  0  0  0  0
   14.9848   -7.5153   17.3709 O   0  0  0  0  0  0  0  0  0  0  0  0
   17.0267   -8.6297   17.0640 N   0  0  0  0  0  0  0  0  0  0  0  0
   17.8570   -8.9105   17.5122 H   0  0  0  0  0  0  0  0  0  0  0  0
   16.9040   -8.9496   15.6727 C   0  0  0  0  0  0  0  0  0  0  0  0
   17.9182   -9.5187   14.9775 N   0  0  0  0  0  0  0  0  0  0  0  0
   17.5614   -9.7289   13.6853 C   0  0  0  0  0  0  0  0  0  0  0  0
   18.3937  -10.2999   12.7240 C   0  0  0  0  0  0  0  0  0  0  0  0
   17.8986  -10.4617   11.4195 C   0  0  0  0  0  0  0  0  0  0  0  0
   16.5845  -10.0551   11.0861 C   0  0  0  0  0  0  0  0  0  0  0  0
   15.7612   -9.4819   12.0692 C   0  0  0  0  0  0  0  0  0  0  0  0
   16.2757   -9.3326   13.3537 C   0  0  0  0  0  0  0  0  0  0  0  0
   15.5285   -8.6892   14.7100 S   0  0  0  0  0  0  0  0  0  0  0  0
   16.0791  -10.2101    9.7925 O   0  0  0  0  0  0  0  0  0  0  0  0
   16.6895   -9.6182    8.6541 C   0  0  0  0  0  0  0  0  0  0  0  0
 15 16  1  0  0  0
 16  2  1  0  0  0
  2  3  1  0  0  0
  3  1  1  0  0  0
  3  4  2  0  0  0
  1 17  1  0  0  0
 17 18  1  0  0  0
 18 19  2  0  0  0
 18 20  1  0  0  0
 20 22  1  0  0  0
 22 23  2  0  0  0
 23 24  1  0  0  0
 24 25  2  0  0  0
 25 26  1  0  0  0
 26 27  2  0  0  0
 27 31  1  0  0  0
 27 28  1  0  0  0
 31 32  1  0  0  0
 28 29  2  0  0  0
 29 30  1  0  0  0
 29 24  1  0  0  0
 30 22  1  0  0  0
  4  5  1  0  0  0
  5  6  2  0  0  0
  6  7  1  0  0  0
  6  2  1  0  0  0
  7  8  2  0  0  0
  7  9  1  0  0  0
  9 10  1  0  0  0
  9 11  1  0  0  0
 11 12  2  0  0  0
 11 13  1  0  0  0
 13 14  1  0  0  0
 13  5  1  0  0  0
 20 21  1  0  0  0
M  END
>  <minimizedAffinity>
-3.36734

>  <minimizedRMSD>
1.36843

$$$$
CHEMBL3126622 PubChem-76314625


 39 42  0  0  0  0  0  0  0  0999 V2000
   12.9259   -6.5796   20.3950 C   0  0  0  0  0  0  0  0  0  0  0  0
   13.5948   -7.1594   19.3119 C   0  0  0  0  0  0  0  0  0  0  0  0
   14.8788   -7.6866   19.4672 C   0  0  0  0  0  0  0  0  0  0  0  0
   15.4956   -7.6274   20.7197 C   0  0  0  0  0  0  0  0  0  0  0  0
   14.8403   -7.0635   21.8172 C   0  0  0  0  0  0  0  0  0  0  0  0
   15.5986   -6.9921   23.0981 C   0  0  0  0  0  0  0  0  0  0  0  0
   13.5301   -6.5409   21.6655 C   0  0  0  0  0  0  0  0  0  0  0  0
   15.5741   -8.2980   18.3240 C   0  0  0  0  0  0  0  0  0  0  0  0
   16.5386   -9.2320   18.4458 N   0  0  0  0  0  0  0  0  0  0  0  0
   16.8831   -9.5166   17.2273 O   0  0  0  0  0  0  0  0  0  0  0  0
   16.1735   -8.8014   16.3889 C   0  0  0  0  0  0  0  0  0  0  0  0
   15.3096   -7.9936   17.0353 N   0  0  0  0  0  0  0  0  0  0  0  0
   16.2998   -8.8743   14.9273 C   0  0  0  0  0  0  0  0  0  0  0  0
   15.5562   -8.0263   14.1028 C   0  0  0  0  0  0  0  0  0  0  0  0
   15.6754   -8.1074   12.7513 N   0  0  0  0  0  0  0  0  0  0  0  0
   16.5062   -9.0008   12.1480 C   0  0  0  0  0  0  0  0  0  0  0  0
   17.2766   -9.8755   12.9489 C   0  0  0  0  0  0  0  0  0  0  0  0
   18.2099  -10.8840   12.3686 C   0  0  0  0  0  0  0  0  0  0  0  0
   17.1621   -9.8009   14.3377 C   0  0  0  0  0  0  0  0  0  0  0  0
   16.5530   -9.0044   10.6455 C   0  0  0  0  0  0  0  0  0  0  0  0
   15.8008  -10.1740   10.0383 C   0  0  0  0  0  0  0  0  0  0  0  0
   16.6431  -10.6690    8.8751 C   0  0  0  0  0  0  0  0  0  0  0  0
   17.8357   -9.7380    8.7609 C   0  0  0  0  0  0  0  0  0  0  0  0
   17.9644   -9.0567   10.1038 C   0  0  0  0  0  0  0  0  0  0  0  0
   11.4256   -5.3115   18.8805 C   0  0  0  0  0  0  0  0  0  0  0  0
   11.5411   -6.0513   20.1999 C   0  0  0  0  0  0  0  0  0  0  0  0
   12.8060   -5.9575   22.7183 O   0  0  0  0  0  0  0  0  0  0  0  0
   13.0529   -6.1899   24.0984 C   0  0  0  0  0  0  0  0  0  0  0  0
   12.1786   -5.2751   24.9384 C   0  0  0  0  0  0  0  0  0  0  0  0
   12.0716   -5.8025   26.2239 O   0  0  0  0  0  0  0  0  0  0  0  0
   12.9535   -5.8619   26.6234 H   0  0  0  0  0  0  0  0  0  0  0  0
   12.7913   -3.8853   25.0221 C   0  0  0  0  0  0  0  0  0  0  0  0
   13.0050   -3.3429   23.6886 N   0  0  0  0  0  0  0  0  0  0  0  0
   14.3108   -3.2299   23.1225 C   0  0  0  0  0  0  0  0  0  0  0  0
   15.3254   -3.6019   23.7703 O   0  0  0  0  0  0  0  0  0  0  0  0
   12.2278   -3.0458   23.1624 H   0  0  0  0  0  0  0  0  0  0  0  0
   14.4707   -2.7098   21.7388 C   0  0  0  0  0  0  0  0  0  0  0  0
   13.5017   -3.2751   20.9114 O   0  0  0  0  0  0  0  0  0  0  0  0
   13.6042   -4.2397   20.9058 H   0  0  0  0  0  0  0  0  0  0  0  0
 25 26  1  0  0  0
 26  1  1  0  0  0
  1  2  2  0  0  0
  2  3  1  0  0  0
  3  8  1  0  0  0
  3  4  2  0  0  0
  8  9  2  0  0  0
  9 10  1  0  0  0
 10 11  1  0  0  0
 11 13  1  0  0  0
 11 12  2  0  0  0
 13 14  2  0  0  0
 14 15  1  0  0  0
 15 16  2  0  0  0
 16 20  1  0  0  0
 16 17  1  0  0  0
 20 21  1  0  0  0
 21 22  1  0  0  0
 22 23  1  0  0  0
 23 24  1  0  0  0
 24 20  1  0  0  0
 17 18  1  0  0  0
 17 19  2  0  0  0
 19 13  1  0  0  0
 12  8  1  0  0  0
  4  5  1  0  0  0
  5  6  1  0  0  0
  5  7  2  0  0  0
  7 27  1  0  0  0
  7  1  1  0  0  0
 27 28  1  0  0  0
 29 28  1  0  0  0
 29 30  1  0  0  0
 29 32  1  0  0  0
 32 33  1  0  0  0
 33 34  1  0  0  0
 34 35  2  0  0  0
 34 37  1  0  0  0
 37 38  1  0  0  0
 30 31  1  0  0  0
 33 36  1  0  0  0
 38 39  1  0  0  0
M  END
>  <minimizedAffinity>
-3.33945

>  <minimizedRMSD>
1.89839

$$$$
CHEMBL3318202 PubChem-73670190


 33 35  0  0  0  0  0  0  0  0999 V2000
   16.3536   -8.6636   16.0594 C   0  0  0  0  0  0  0  0  0  0  0  0
   15.5837   -7.8744   16.8369 N   0  0  0  0  0  0  0  0  0  0  0  0
   15.3632   -8.4239   18.0649 C   0  0  0  0  0  0  0  0  0  0  0  0
   15.9518   -9.6750   18.2813 C   0  0  0  0  0  0  0  0  0  0  0  0
   16.7699  -10.0777   16.8654 S   0  0  0  0  0  0  0  0  0  0  0  0
   14.5507   -7.7339   19.0852 C   0  0  0  0  0  0  0  0  0  0  0  0
   14.9310   -7.7432   20.4299 C   0  0  0  0  0  0  0  0  0  0  0  0
   14.1605   -7.0883   21.4011 C   0  0  0  0  0  0  0  0  0  0  0  0
   12.9875   -6.4097   21.0292 C   0  0  0  0  0  0  0  0  0  0  0  0
   12.5942   -6.3951   19.6667 C   0  0  0  0  0  0  0  0  0  0  0  0
   13.3847   -7.0592   18.7155 C   0  0  0  0  0  0  0  0  0  0  0  0
   11.4309   -5.7276   19.2658 O   0  0  0  0  0  0  0  0  0  0  0  0
   11.4485   -4.5427   18.4805 C   0  0  0  0  0  0  0  0  0  0  0  0
   12.2601   -5.7735   22.0495 O   0  0  0  0  0  0  0  0  0  0  0  0
   12.3416   -4.3924   22.3707 C   0  0  0  0  0  0  0  0  0  0  0  0
   14.5425   -7.0984   22.7477 O   0  0  0  0  0  0  0  0  0  0  0  0
   15.8683   -6.8163   23.1750 C   0  0  0  0  0  0  0  0  0  0  0  0
   16.3731   -7.0125   14.1944 C   0  0  0  0  0  0  0  0  0  0  0  0
   16.7049   -8.3365   14.7045 N   0  0  0  0  0  0  0  0  0  0  0  0
   17.4793   -9.2338   13.8887 C   0  0  0  0  0  0  0  0  0  0  0  0
   18.4423   -9.8644   14.4055 O   0  0  0  0  0  0  0  0  0  0  0  0
   17.1760   -9.4320   12.4538 C   0  0  0  0  0  0  0  0  0  0  0  0
   18.1473   -9.1578   11.4878 C   0  0  0  0  0  0  0  0  0  0  0  0
   17.8867   -9.3582   10.1247 C   0  0  0  0  0  0  0  0  0  0  0  0
   16.6357   -9.8468    9.7118 C   0  0  0  0  0  0  0  0  0  0  0  0
   15.6465  -10.1368   10.6855 C   0  0  0  0  0  0  0  0  0  0  0  0
   15.9358   -9.9268   12.0428 C   0  0  0  0  0  0  0  0  0  0  0  0
   14.3923  -10.6291   10.3060 O   0  0  0  0  0  0  0  0  0  0  0  0
   13.2009  -10.3579   11.0328 C   0  0  0  0  0  0  0  0  0  0  0  0
   16.4362  -10.0239    8.3321 O   0  0  0  0  0  0  0  0  0  0  0  0
   16.9667   -9.1848    7.3163 C   0  0  0  0  0  0  0  0  0  0  0  0
   18.8601   -9.0782    9.1585 O   0  0  0  0  0  0  0  0  0  0  0  0
   19.6396   -7.8898    9.1714 C   0  0  0  0  0  0  0  0  0  0  0  0
 18 19  1  0  0  0
 19  1  1  0  0  0
 19 20  1  0  0  0
  1  2  2  0  0  0
  2  3  1  0  0  0
  3  4  2  0  0  0
  3  6  1  0  0  0
  4  5  1  0  0  0
  5  1  1  0  0  0
  6  7  2  0  0  0
  7  8  1  0  0  0
  8  9  2  0  0  0
  8 16  1  0  0  0
  9 10  1  0  0  0
  9 14  1  0  0  0
 10 11  2  0  0  0
 10 12  1  0  0  0
 11  6  1  0  0  0
 12 13  1  0  0  0
 14 15  1  0  0  0
 16 17  1  0  0  0
 20 21  2  0  0  0
 20 22  1  0  0  0
 22 23  2  0  0  0
 23 24  1  0  0  0
 24 25  2  0  0  0
 24 32  1  0  0  0
 25 26  1  0  0  0
 25 30  1  0  0  0
 26 27  2  0  0  0
 26 28  1  0  0  0
 27 22  1  0  0  0
 28 29  1  0  0  0
 30 31  1  0  0  0
 32 33  1  0  0  0
M  END
>  <minimizedAffinity>
-3.33098

>  <minimizedRMSD>
1.67422

$$$$
CHEMBL3593506 PubChem-122181958


 32 34  0  0  0  0  0  0  0  0999 V2000
   15.2711   -8.3028   16.8271 C   0  0  0  0  0  0  0  0  0  0  0  0
   15.8987   -7.0540   16.7273 C   0  0  0  0  0  0  0  0  0  0  0  0
   16.8523   -6.8638   15.7292 C   0  0  0  0  0  0  0  0  0  0  0  0
   17.1515   -7.8760   14.8750 N   0  0  0  0  0  0  0  0  0  0  0  0
   16.5291   -9.0797   14.9776 C   0  0  0  0  0  0  0  0  0  0  0  0
   15.5978   -9.2847   15.9461 N   0  0  0  0  0  0  0  0  0  0  0  0
   14.2918   -8.5573   17.7965 O   0  0  0  0  0  0  0  0  0  0  0  0
   11.7682   -7.5163   16.9622 C   0  0  0  0  0  0  0  0  0  0  0  0
   12.4418   -7.0472   18.2051 C   0  0  0  0  0  0  0  0  0  0  0  0
   11.8229   -6.0627   18.9800 C   0  0  0  0  0  0  0  0  0  0  0  0
   12.4306   -5.6031   20.1496 C   0  0  0  0  0  0  0  0  0  0  0  0
   13.6548   -6.1370   20.5556 C   0  0  0  0  0  0  0  0  0  0  0  0
   14.2870   -7.1185   19.7870 C   0  0  0  0  0  0  0  0  0  0  0  0
   15.5566   -7.7097   20.2969 C   0  0  0  0  0  0  0  0  0  0  0  0
   13.6884   -7.5704   18.5906 C   0  0  0  0  0  0  0  0  0  0  0  0
   11.7898   -4.5934   20.9432 C   0  0  0  0  0  0  0  0  0  0  0  0
   11.2735   -3.7793   21.5835 N   0  0  0  0  0  0  0  0  0  0  0  0
   16.9382  -10.3949   13.8404 S   0  0  0  0  0  0  0  0  0  0  0  0
   15.5001  -10.0352   12.7897 C   0  0  0  0  0  0  0  0  0  0  0  0
   15.9258   -9.8925   11.3711 C   0  0  0  0  0  0  0  0  0  0  0  0
   15.2407  -10.4378   10.4660 O   0  0  0  0  0  0  0  0  0  0  0  0
   17.0969   -9.1260   11.0582 N   0  0  0  0  0  0  0  0  0  0  0  0
   17.5767   -8.7240   11.8180 H   0  0  0  0  0  0  0  0  0  0  0  0
   17.6418   -8.8842    9.7540 C   0  0  0  0  0  0  0  0  0  0  0  0
   17.1311   -9.5102    8.6073 C   0  0  0  0  0  0  0  0  0  0  0  0
   17.6869   -9.2479    7.3521 C   0  0  0  0  0  0  0  0  0  0  0  0
   18.7621   -8.3558    7.2258 C   0  0  0  0  0  0  0  0  0  0  0  0
   19.2720   -7.7327    8.3731 C   0  0  0  0  0  0  0  0  0  0  0  0
   18.7145   -7.9958    9.6277 C   0  0  0  0  0  0  0  0  0  0  0  0
   19.3348   -8.0812    5.9399 N   0  0  0  0  0  0  0  0  0  0  0  0
   18.7710   -8.4748    4.8979 O   0  0  0  0  0  0  0  0  0  0  0  0
   20.5058   -7.3653    5.8392 O   0  0  0  0  0  0  0  0  0  0  0  0
  8  9  1  0  0  0
  9 10  2  0  0  0
 10 11  1  0  0  0
 11 16  1  0  0  0
 16 17  3  0  0  0
 11 12  2  0  0  0
 12 13  1  0  0  0
 13 14  1  0  0  0
 13 15  2  0  0  0
 15  7  1  0  0  0
  7  1  1  0  0  0
  1  2  2  0  0  0
  2  3  1  0  0  0
  3  4  2  0  0  0
  4  5  1  0  0  0
  5 18  1  0  0  0
 18 19  1  0  0  0
 19 20  1  0  0  0
 20 21  2  0  0  0
 20 22  1  0  0  0
 22 24  1  0  0  0
 24 25  2  0  0  0
 25 26  1  0  0  0
 26 27  2  0  0  0
 27 30  1  0  0  0
 30 31  2  0  0  0
 30 32  1  0  0  0
 27 28  1  0  0  0
 28 29  2  0  0  0
  5  6  2  0  0  0
 15  9  1  0  0  0
  6  1  1  0  0  0
 29 24  1  0  0  0
 22 23  1  0  0  0
M  CHG 1  30   1
M  CHG 1  32  -1
M  END
>  <minimizedAffinity>
-3.32996

>  <minimizedRMSD>
1.67787

$$$$
CHEMBL3702083 PubChem-58300164


 35 40  0  0  0  0  0  0  0  0999 V2000
   15.3653   -8.9978   16.7809 C   0  0  0  0  0  0  0  0  0  0  0  0
   16.6467   -8.8720   17.2610 N   0  0  0  0  0  0  0  0  0  0  0  0
   16.9160   -8.2436   18.4427 C   0  0  0  0  0  0  0  0  0  0  0  0
   15.8416   -7.7306   19.1506 C   0  0  0  0  0  0  0  0  0  0  0  0
   15.7354   -7.0533   20.3415 C   0  0  0  0  0  0  0  0  0  0  0  0
   14.3895   -6.8032   20.5210 C   0  0  0  0  0  0  0  0  0  0  0  0
   13.9533   -6.1188   21.6563 C   0  0  0  0  0  0  0  0  0  0  0  0
   14.8886   -5.7134   22.5658 N   0  0  0  0  0  0  0  0  0  0  0  0
   16.2267   -5.9572   22.3953 C   0  0  0  0  0  0  0  0  0  0  0  0
   16.6939   -6.6442   21.2613 C   0  0  0  0  0  0  0  0  0  0  0  0
   12.6403   -5.8556   21.8654 F   0  0  0  0  0  0  0  0  0  0  0  0
   13.6545   -7.2961   19.4934 N   0  0  0  0  0  0  0  0  0  0  0  0
   14.5669   -7.8601   18.6655 C   0  0  0  0  0  0  0  0  0  0  0  0
   14.3144   -8.4867   17.4904 N   0  0  0  0  0  0  0  0  0  0  0  0
   12.2033   -7.2228   19.3295 C   0  0  0  0  0  0  0  0  0  0  0  0
   11.5989   -8.6102   19.2200 C   0  0  0  0  0  0  0  0  0  0  0  0
   10.5198   -8.4967   18.1688 C   0  0  0  0  0  0  0  0  0  0  0  0
   10.9961   -7.4159   17.2243 C   0  0  0  0  0  0  0  0  0  0  0  0
   11.8327   -6.4686   18.0618 C   0  0  0  0  0  0  0  0  0  0  0  0
   15.1053   -9.6604   15.5374 N   0  0  0  0  0  0  0  0  0  0  0  0
   14.2979  -10.2221   15.4938 H   0  0  0  0  0  0  0  0  0  0  0  0
   17.4499   -9.4196   12.0334 C   0  0  0  0  0  0  0  0  0  0  0  0
   17.7571  -10.3287   13.0563 C   0  0  0  0  0  0  0  0  0  0  0  0
   16.9894  -10.3911   14.1769 N   0  0  0  0  0  0  0  0  0  0  0  0
   15.9053   -9.5855   14.3514 C   0  0  0  0  0  0  0  0  0  0  0  0
   15.5623   -8.6655   13.3594 C   0  0  0  0  0  0  0  0  0  0  0  0
   16.3363   -8.5846   12.2015 C   0  0  0  0  0  0  0  0  0  0  0  0
   16.4887   -8.7910    7.9902 C   0  0  0  0  0  0  0  0  0  0  0  0
   17.9021   -9.1559    8.3932 C   0  0  0  0  0  0  0  0  0  0  0  0
   17.8636  -10.0689    9.6317 C   0  0  0  0  0  0  0  0  0  0  0  0
   18.2575   -9.3447   10.8433 N   0  0  0  0  0  0  0  0  0  0  0  0
   19.4678   -8.5173   10.8168 C   0  0  0  0  0  0  0  0  0  0  0  0
   19.8793   -8.2179    9.3788 C   0  0  0  0  0  0  0  0  0  0  0  0
   18.6822   -7.9275    8.5950 N   0  0  0  0  0  0  0  0  0  0  0  0
   18.9560   -7.5487    7.6884 H   0  0  0  0  0  0  0  0  0  0  0  0
 29 28  1  0  0  0
 29 30  1  0  0  0
 30 31  1  0  0  0
 31 32  1  0  0  0
 31 22  1  0  0  0
 32 33  1  0  0  0
 33 34  1  0  0  0
 34 29  1  0  0  0
 22 23  2  0  0  0
 23 24  1  0  0  0
 24 25  2  0  0  0
 25 26  1  0  0  0
 25 20  1  0  0  0
 26 27  2  0  0  0
 27 22  1  0  0  0
 20  1  1  0  0  0
  1  2  2  0  0  0
  2  3  1  0  0  0
  3  4  2  0  0  0
  4  5  1  0  0  0
  5  6  2  0  0  0
  6  7  1  0  0  0
  6 12  1  0  0  0
  7  8  2  0  0  0
  7 11  1  0  0  0
  8  9  1  0  0  0
  9 10  2  0  0  0
 10  5  1  0  0  0
 12 13  1  0  0  0
 12 15  1  0  0  0
 13 14  2  0  0  0
 13  4  1  0  0  0
 14  1  1  0  0  0
 15 16  1  0  0  0
 16 17  1  0  0  0
 17 18  1  0  0  0
 18 19  1  0  0  0
 19 15  1  0  0  0
 34 35  1  0  0  0
 20 21  1  0  0  0
M  END
>  <minimizedAffinity>
-3.31508

>  <minimizedRMSD>
1.71282

$$$$
CHEMBL3653900 PubChem-86701145


 36 40  0  0  0  0  0  0  0  0999 V2000
   15.3536   -7.9286   16.5540 C   0  0  0  0  0  0  0  0  0  0  0  0
   14.7774   -7.1030   15.6349 N   0  0  0  0  0  0  0  0  0  0  0  0
   15.0701   -7.1608   14.3118 C   0  0  0  0  0  0  0  0  0  0  0  0
   15.9917   -8.0890   13.8410 C   0  0  0  0  0  0  0  0  0  0  0  0
   16.6223   -8.9653   14.7292 C   0  0  0  0  0  0  0  0  0  0  0  0
   17.5814   -9.9167   14.2911 C   0  0  0  0  0  0  0  0  0  0  0  0
   18.2034  -10.7259   15.2517 C   0  0  0  0  0  0  0  0  0  0  0  0
   17.8769  -10.6021   16.5981 C   0  0  0  0  0  0  0  0  0  0  0  0
   16.9499   -9.6949   16.9930 N   0  0  0  0  0  0  0  0  0  0  0  0
   16.3091   -8.8798   16.1113 C   0  0  0  0  0  0  0  0  0  0  0  0
   13.1508   -7.5099   19.6213 C   0  0  0  0  0  0  0  0  0  0  0  0
   13.5892   -7.6351   18.2939 C   0  0  0  0  0  0  0  0  0  0  0  0
   14.9472   -7.7739   17.9787 C   0  0  0  0  0  0  0  0  0  0  0  0
   15.8749   -7.7995   19.0270 C   0  0  0  0  0  0  0  0  0  0  0  0
   15.4577   -7.6733   20.3518 C   0  0  0  0  0  0  0  0  0  0  0  0
   14.1007   -7.5245   20.6711 C   0  0  0  0  0  0  0  0  0  0  0  0
   13.7270   -7.3942   22.1014 C   0  0  0  0  0  0  0  0  0  0  0  0
   12.7147   -6.7330   22.4530 O   0  0  0  0  0  0  0  0  0  0  0  0
   14.5176   -8.0232   23.1069 N   0  0  0  0  0  0  0  0  0  0  0  0
   15.3130   -8.5448   22.8530 H   0  0  0  0  0  0  0  0  0  0  0  0
   14.2681   -7.9361   24.0553 H   0  0  0  0  0  0  0  0  0  0  0  0
   11.7512   -7.3588   19.8979 N   0  0  0  0  0  0  0  0  0  0  0  0
   11.4398   -7.5416   20.8138 H   0  0  0  0  0  0  0  0  0  0  0  0
   10.2622   -8.1601   18.1388 C   0  0  0  0  0  0  0  0  0  0  0  0
   10.7611   -6.9519   18.9090 C   0  0  0  0  0  0  0  0  0  0  0  0
   17.9510  -10.0866   12.9030 N   0  0  0  0  0  0  0  0  0  0  0  0
   18.8986  -10.9321   12.4420 C   0  0  0  0  0  0  0  0  0  0  0  0
   18.9997  -10.8937   11.0984 N   0  0  0  0  0  0  0  0  0  0  0  0
   18.0727   -9.9928   10.7222 C   0  0  0  0  0  0  0  0  0  0  0  0
   17.4138   -9.4892   11.8219 C   0  0  0  0  0  0  0  0  0  0  0  0
   17.8149   -9.6187    9.3271 C   0  0  0  0  0  0  0  0  0  0  0  0
   16.8193  -10.1234    8.5088 C   0  0  0  0  0  0  0  0  0  0  0  0
   16.9309   -9.5164    7.3113 N   0  0  0  0  0  0  0  0  0  0  0  0
   17.9464   -8.6716    7.3727 N   0  0  0  0  0  0  0  0  0  0  0  0
   18.3681   -7.8365    6.2641 C   0  0  0  0  0  0  0  0  0  0  0  0
   18.5227   -8.6950    8.5855 C   0  0  0  0  0  0  0  0  0  0  0  0
 24 25  1  0  0  0
 25 22  1  0  0  0
 22 11  1  0  0  0
 11 12  2  0  0  0
 12 13  1  0  0  0
 13 14  2  0  0  0
 14 15  1  0  0  0
 15 16  2  0  0  0
 16 17  1  0  0  0
 17 18  2  0  0  0
 17 19  1  0  0  0
 13  1  1  0  0  0
  1  2  2  0  0  0
  2  3  1  0  0  0
  3  4  2  0  0  0
  4  5  1  0  0  0
  5  6  2  0  0  0
  6  7  1  0  0  0
  7  8  2  0  0  0
  8  9  1  0  0  0
  9 10  2  0  0  0
  6 26  1  0  0  0
 26 27  1  0  0  0
 27 28  2  0  0  0
 28 29  1  0  0  0
 29 30  2  0  0  0
 29 31  1  0  0  0
 31 32  1  0  0  0
 32 33  2  0  0  0
 33 34  1  0  0  0
 34 35  1  0  0  0
 34 36  1  0  0  0
 16 11  1  0  0  0
 10  1  1  0  0  0
 30 26  1  0  0  0
 36 31  2  0  0  0
 10  5  1  0  0  0
 22 23  1  0  0  0
 19 20  1  0  0  0
 19 21  1  0  0  0
M  END
>  <minimizedAffinity>
-3.30011

>  <minimizedRMSD>
1.88276

$$$$
CHEMBL3657545 PubChem-71698645


 34 38  0  0  0  0  0  0  0  0999 V2000
   14.5730   -7.3833   18.6851 C   0  0  0  0  0  0  0  0  0  0  0  0
   14.3509   -8.0856   17.5408 N   0  0  0  0  0  0  0  0  0  0  0  0
   15.3396   -8.8054   16.9480 C   0  0  0  0  0  0  0  0  0  0  0  0
   16.5809   -8.8281   17.5052 N   0  0  0  0  0  0  0  0  0  0  0  0
   16.8495   -8.1431   18.6461 C   0  0  0  0  0  0  0  0  0  0  0  0
   15.8462   -7.4014   19.2649 C   0  0  0  0  0  0  0  0  0  0  0  0
   10.8548   -4.2276   19.1228 C   0  0  0  0  0  0  0  0  0  0  0  0
   11.8730   -5.2526   19.4811 C   0  0  0  0  0  0  0  0  0  0  0  0
   12.7568   -5.7700   18.6114 N   0  0  0  0  0  0  0  0  0  0  0  0
   13.5063   -6.6336   19.2817 N   0  0  0  0  0  0  0  0  0  0  0  0
   13.1284   -6.6898   20.5783 C   0  0  0  0  0  0  0  0  0  0  0  0
   12.0708   -5.8153   20.7233 C   0  0  0  0  0  0  0  0  0  0  0  0
   11.3563   -5.4903   21.9917 C   0  0  0  0  0  0  0  0  0  0  0  0
   12.0988   -4.4817   22.7346 N   0  0  0  0  0  0  0  0  0  0  0  0
   11.2611   -4.0485   23.8459 C   0  0  0  0  0  0  0  0  0  0  0  0
   12.1192   -4.7378   24.8803 C   0  0  0  0  0  0  0  0  0  0  0  0
   12.9395   -5.1854   23.6933 C   0  0  0  0  0  0  0  0  0  0  0  0
   12.8324   -3.7805   25.6014 O   0  0  0  0  0  0  0  0  0  0  0  0
   13.2149   -3.1330   24.9888 H   0  0  0  0  0  0  0  0  0  0  0  0
   15.0504   -9.5262   15.7424 N   0  0  0  0  0  0  0  0  0  0  0  0
   14.2649  -10.1192   15.7669 H   0  0  0  0  0  0  0  0  0  0  0  0
   15.7746   -9.4823   14.5048 C   0  0  0  0  0  0  0  0  0  0  0  0
   16.9774  -10.1996   14.3188 C   0  0  0  0  0  0  0  0  0  0  0  0
   17.6063  -10.0956   13.0823 C   0  0  0  0  0  0  0  0  0  0  0  0
   17.0998   -9.3357   12.0683 C   0  0  0  0  0  0  0  0  0  0  0  0
   15.9168   -8.6137   12.2086 C   0  0  0  0  0  0  0  0  0  0  0  0
   15.2551   -8.6971   13.4482 C   0  0  0  0  0  0  0  0  0  0  0  0
   17.9130   -9.4252   11.0012 N   0  0  0  0  0  0  0  0  0  0  0  0
   18.9293  -10.2305   11.3002 N   0  0  0  0  0  0  0  0  0  0  0  0
   18.7613  -10.6519   12.5767 C   0  0  0  0  0  0  0  0  0  0  0  0
   19.8539  -11.7369   13.4127 Cl  0  0  0  0  0  0  0  0  0  0  0  0
   17.7191   -8.7778    9.7089 C   0  0  0  0  0  0  0  0  0  0  0  0
   18.9533   -7.9845    9.3245 C   0  0  0  0  0  0  0  0  0  0  0  0
   17.4190   -9.8136    8.6427 C   0  0  0  0  0  0  0  0  0  0  0  0
  7  8  1  0  0  0
  8  9  2  0  0  0
  9 10  1  0  0  0
 10 11  1  0  0  0
 10  1  1  0  0  0
 11 12  2  0  0  0
 12 13  1  0  0  0
 12  8  1  0  0  0
 13 14  1  0  0  0
 14 15  1  0  0  0
 15 16  1  0  0  0
 16 17  1  0  0  0
 16 18  1  0  0  0
 17 14  1  0  0  0
  1  2  2  0  0  0
  2  3  1  0  0  0
  3  4  2  0  0  0
  3 20  1  0  0  0
  4  5  1  0  0  0
  5  6  2  0  0  0
  6  1  1  0  0  0
 20 22  1  0  0  0
 22 23  2  0  0  0
 23 24  1  0  0  0
 24 25  2  0  0  0
 25 26  1  0  0  0
 25 28  1  0  0  0
 26 27  2  0  0  0
 27 22  1  0  0  0
 28 29  1  0  0  0
 28 32  1  0  0  0
 29 30  2  0  0  0
 30 31  1  0  0  0
 30 24  1  0  0  0
 32 33  1  0  0  0
 32 34  1  0  0  0
 18 19  1  0  0  0
 20 21  1  0  0  0
M  END
>  <minimizedAffinity>
-3.25808

>  <minimizedRMSD>
1.76903

$$$$
CHEMBL3702229 PubChem-58300037


 33 37  0  0  0  0  0  0  0  0999 V2000
   13.4162   -7.5177   18.7497 N   0  0  0  0  0  0  0  0  0  0  0  0
   14.0277   -6.9841   19.8379 C   0  0  0  0  0  0  0  0  0  0  0  0
   13.4631   -6.2304   20.8635 C   0  0  0  0  0  0  0  0  0  0  0  0
   14.2829   -5.7924   21.8651 N   0  0  0  0  0  0  0  0  0  0  0  0
   15.6254   -6.0704   21.8861 C   0  0  0  0  0  0  0  0  0  0  0  0
   16.2192   -6.8287   20.8616 C   0  0  0  0  0  0  0  0  0  0  0  0
   15.3774   -7.2703   19.8476 C   0  0  0  0  0  0  0  0  0  0  0  0
   15.6147   -8.0136   18.7159 C   0  0  0  0  0  0  0  0  0  0  0  0
   16.7554   -8.5854   18.1771 C   0  0  0  0  0  0  0  0  0  0  0  0
   16.6198   -9.2699   17.0035 N   0  0  0  0  0  0  0  0  0  0  0  0
   15.4065   -9.3942   16.3703 C   0  0  0  0  0  0  0  0  0  0  0  0
   14.2883   -8.8240   16.9132 N   0  0  0  0  0  0  0  0  0  0  0  0
   14.4083   -8.1426   18.0784 C   0  0  0  0  0  0  0  0  0  0  0  0
   12.0094   -7.4463   18.3539 C   0  0  0  0  0  0  0  0  0  0  0  0
   11.2951   -8.7410   18.6955 C   0  0  0  0  0  0  0  0  0  0  0  0
   11.5150   -5.0063   18.2142 C   0  0  0  0  0  0  0  0  0  0  0  0
   11.3100   -6.2728   19.0229 C   0  0  0  0  0  0  0  0  0  0  0  0
   15.2881  -10.1167   15.1389 N   0  0  0  0  0  0  0  0  0  0  0  0
   14.6458  -10.8626   15.1217 H   0  0  0  0  0  0  0  0  0  0  0  0
   16.0131   -9.8600   13.9301 C   0  0  0  0  0  0  0  0  0  0  0  0
   15.3177   -9.4181   12.8033 C   0  0  0  0  0  0  0  0  0  0  0  0
   16.0153   -9.1657   11.6219 C   0  0  0  0  0  0  0  0  0  0  0  0
   17.4031   -9.3555   11.5641 C   0  0  0  0  0  0  0  0  0  0  0  0
   18.0608   -9.7973   12.7212 C   0  0  0  0  0  0  0  0  0  0  0  0
   17.3617  -10.0374   13.8625 N   0  0  0  0  0  0  0  0  0  0  0  0
   18.1354   -9.0905   10.3532 N   0  0  0  0  0  0  0  0  0  0  0  0
   19.4999   -8.5651   10.4048 C   0  0  0  0  0  0  0  0  0  0  0  0
   19.7043   -7.5631    9.2713 C   0  0  0  0  0  0  0  0  0  0  0  0
   19.3592   -8.1802    7.9921 N   0  0  0  0  0  0  0  0  0  0  0  0
   17.9297   -8.4845    7.9964 C   0  0  0  0  0  0  0  0  0  0  0  0
   17.5185   -9.0054    6.6358 C   0  0  0  0  0  0  0  0  0  0  0  0
   17.6241   -9.5384    9.0576 C   0  0  0  0  0  0  0  0  0  0  0  0
   19.8940   -9.0400    7.8693 H   0  0  0  0  0  0  0  0  0  0  0  0
 16 17  1  0  0  0
 17 14  1  0  0  0
 14 15  1  0  0  0
 14  1  1  0  0  0
  1  2  1  0  0  0
  2  3  2  0  0  0
  3  4  1  0  0  0
  4  5  2  0  0  0
  5  6  1  0  0  0
  6  7  2  0  0  0
  7  8  1  0  0  0
  8  9  2  0  0  0
  9 10  1  0  0  0
 10 11  2  0  0  0
 11 18  1  0  0  0
 18 20  1  0  0  0
 20 21  2  0  0  0
 21 22  1  0  0  0
 22 23  2  0  0  0
 23 24  1  0  0  0
 24 25  2  0  0  0
 23 26  1  0  0  0
 26 27  1  0  0  0
 27 28  1  0  0  0
 28 29  1  0  0  0
 29 30  1  0  0  0
 30 31  1  0  0  0
 30 32  1  0  0  0
 11 12  1  0  0  0
 12 13  2  0  0  0
 13  1  1  0  0  0
  7  2  1  0  0  0
 13  8  1  0  0  0
 25 20  1  0  0  0
 32 26  1  0  0  0
 18 19  1  0  0  0
 29 33  1  0  0  0
M  END
>  <minimizedAffinity>
-3.25391

>  <minimizedRMSD>
1.73843

$$$$
CHEMBL1355076 ChemDiv-G751-3148 MCULE-2636581369 MolPort-007-878-471 PubChem-16030586 ZINC000008598195 ZINC08598195


 33 36  0  0  0  0  0  0  0  0999 V2000
   16.3241   -8.2568   17.7855 C   0  0  0  0  0  0  0  0  0  0  0  0
   15.2567   -7.9197   17.0293 N   0  0  0  0  0  0  0  0  0  0  0  0
   15.2858   -8.4619   15.8136 N   0  0  0  0  0  0  0  0  0  0  0  0
   16.3792   -9.2286   15.6050 C   0  0  0  0  0  0  0  0  0  0  0  0
   17.3850   -9.2663   16.9534 S   0  0  0  0  0  0  0  0  0  0  0  0
   16.6548   -9.9236   14.3854 N   0  0  0  0  0  0  0  0  0  0  0  0
   16.4867   -9.3750   13.0744 C   0  0  0  0  0  0  0  0  0  0  0  0
   16.0718   -8.1971   12.9102 O   0  0  0  0  0  0  0  0  0  0  0  0
   16.9849  -10.8487   14.4531 H   0  0  0  0  0  0  0  0  0  0  0  0
   16.8449  -10.1960   11.8884 C   0  0  0  0  0  0  0  0  0  0  0  0
   17.9493   -9.6041   11.2178 O   0  0  0  0  0  0  0  0  0  0  0  0
   17.8793   -9.1518    9.8959 C   0  0  0  0  0  0  0  0  0  0  0  0
   18.9339   -8.3890    9.3689 C   0  0  0  0  0  0  0  0  0  0  0  0
   20.3367   -7.9975   10.3476 Cl  0  0  0  0  0  0  0  0  0  0  0  0
   18.8772   -7.9308    8.0488 C   0  0  0  0  0  0  0  0  0  0  0  0
   17.7720   -8.2288    7.2477 C   0  0  0  0  0  0  0  0  0  0  0  0
   16.7190   -8.9869    7.7647 C   0  0  0  0  0  0  0  0  0  0  0  0
   16.7717   -9.4470    9.0830 C   0  0  0  0  0  0  0  0  0  0  0  0
   16.5641   -7.6914   19.4658 S   0  0  0  0  0  0  0  0  0  0  0  0
   15.0079   -8.4300   20.0590 C   0  0  0  0  0  0  0  0  0  0  0  0
    9.5143   -2.7204   19.7908 C   0  0  0  0  0  0  0  0  0  0  0  0
   10.5278   -3.7963   19.6395 C   0  0  0  0  0  0  0  0  0  0  0  0
   10.8885   -4.2406   18.3637 C   0  0  0  0  0  0  0  0  0  0  0  0
   11.8423   -5.2517   18.2152 C   0  0  0  0  0  0  0  0  0  0  0  0
   12.4384   -5.8221   19.3431 C   0  0  0  0  0  0  0  0  0  0  0  0
   13.3676   -6.8027   19.1969 N   0  0  0  0  0  0  0  0  0  0  0  0
   13.9715   -7.3804   20.2702 C   0  0  0  0  0  0  0  0  0  0  0  0
   13.6465   -6.9669   21.5654 C   0  0  0  0  0  0  0  0  0  0  0  0
   12.6946   -5.9627   21.7517 C   0  0  0  0  0  0  0  0  0  0  0  0
   12.4027   -5.5952   22.9214 O   0  0  0  0  0  0  0  0  0  0  0  0
   12.0782   -5.3756   20.6354 C   0  0  0  0  0  0  0  0  0  0  0  0
   11.1203   -4.3609   20.7731 C   0  0  0  0  0  0  0  0  0  0  0  0
   13.6099   -7.1027   18.2911 H   0  0  0  0  0  0  0  0  0  0  0  0
 21 22  1  0  0  0
 22 23  2  0  0  0
 23 24  1  0  0  0
 24 25  2  0  0  0
 25 26  1  0  0  0
 26 27  1  0  0  0
 27 20  1  0  0  0
 27 28  2  0  0  0
 20 19  1  0  0  0
 19  1  1  0  0  0
  1  2  2  0  0  0
  2  3  1  0  0  0
  3  4  2  0  0  0
  4  6  1  0  0  0
  4  5  1  0  0  0
  6  7  1  0  0  0
  7  8  2  0  0  0
  7 10  1  0  0  0
 10 11  1  0  0  0
 11 12  1  0  0  0
 12 13  2  0  0  0
 13 14  1  0  0  0
 13 15  1  0  0  0
 15 16  2  0  0  0
 16 17  1  0  0  0
 17 18  2  0  0  0
 18 12  1  0  0  0
  5  1  1  0  0  0
 28 29  1  0  0  0
 29 30  2  0  0  0
 29 31  1  0  0  0
 31 32  2  0  0  0
 31 25  1  0  0  0
 32 22  1  0  0  0
 26 33  1  0  0  0
  6  9  1  0  0  0
M  END
>  <minimizedAffinity>
-3.24381

>  <minimizedRMSD>
1.18984

$$$$
CHEMBL3702054 PubChem-58299819


 37 42  0  0  0  0  0  0  0  0999 V2000
   13.9381   -6.1203   21.6465 C   0  0  0  0  0  0  0  0  0  0  0  0
   14.8810   -5.7187   22.5545 N   0  0  0  0  0  0  0  0  0  0  0  0
   16.2175   -5.9666   22.3816 C   0  0  0  0  0  0  0  0  0  0  0  0
   16.6799   -6.6538   21.2468 C   0  0  0  0  0  0  0  0  0  0  0  0
   15.7188   -7.0591   20.3286 C   0  0  0  0  0  0  0  0  0  0  0  0
   15.8244   -7.7368   19.1382 C   0  0  0  0  0  0  0  0  0  0  0  0
   16.8981   -8.2530   18.4317 C   0  0  0  0  0  0  0  0  0  0  0  0
   16.6282   -8.8826   17.2508 N   0  0  0  0  0  0  0  0  0  0  0  0
   15.3472   -9.0070   16.7697 C   0  0  0  0  0  0  0  0  0  0  0  0
   14.2973   -8.4922   17.4784 N   0  0  0  0  0  0  0  0  0  0  0  0
   14.5503   -7.8642   18.6528 C   0  0  0  0  0  0  0  0  0  0  0  0
   13.6381   -7.2988   19.4798 N   0  0  0  0  0  0  0  0  0  0  0  0
   14.3730   -6.8061   20.5090 C   0  0  0  0  0  0  0  0  0  0  0  0
   12.1873   -7.2265   19.3113 C   0  0  0  0  0  0  0  0  0  0  0  0
   11.8195   -6.4736   18.0423 C   0  0  0  0  0  0  0  0  0  0  0  0
   10.9720   -7.4165   17.2104 C   0  0  0  0  0  0  0  0  0  0  0  0
   10.4988   -8.4974   18.1564 C   0  0  0  0  0  0  0  0  0  0  0  0
   11.5827   -8.6137   19.2021 C   0  0  0  0  0  0  0  0  0  0  0  0
   12.1049   -5.2594   23.0469 C   0  0  0  0  0  0  0  0  0  0  0  0
   12.5830   -5.8533   21.8496 O   0  0  0  0  0  0  0  0  0  0  0  0
   15.0833   -9.6718   15.5268 N   0  0  0  0  0  0  0  0  0  0  0  0
   14.2830  -10.2445   15.5013 H   0  0  0  0  0  0  0  0  0  0  0  0
   15.8497   -9.5997   14.3161 C   0  0  0  0  0  0  0  0  0  0  0  0
   17.2482   -9.6691   14.3201 C   0  0  0  0  0  0  0  0  0  0  0  0
   17.9457   -9.5941   13.1148 C   0  0  0  0  0  0  0  0  0  0  0  0
   17.2544   -9.4505   11.9043 C   0  0  0  0  0  0  0  0  0  0  0  0
   15.8540   -9.3845   11.9459 C   0  0  0  0  0  0  0  0  0  0  0  0
   15.1939   -9.4597   13.1325 N   0  0  0  0  0  0  0  0  0  0  0  0
   17.9628   -9.3695   10.6525 N   0  0  0  0  0  0  0  0  0  0  0  0
   19.0152   -8.3615   10.4647 C   0  0  0  0  0  0  0  0  0  0  0  0
   19.7672   -8.5632    9.1474 C   0  0  0  0  0  0  0  0  0  0  0  0
   18.8118   -8.7163    7.9541 C   0  0  0  0  0  0  0  0  0  0  0  0
   17.5340   -9.5357    8.2552 C   0  0  0  0  0  0  0  0  0  0  0  0
   17.6487  -10.3022    9.5674 C   0  0  0  0  0  0  0  0  0  0  0  0
   18.5542   -7.4213    7.3074 N   0  0  0  0  0  0  0  0  0  0  0  0
   17.2006   -7.3601    6.7676 C   0  0  0  0  0  0  0  0  0  0  0  0
   19.4789   -7.2636    6.1959 C   0  0  0  0  0  0  0  0  0  0  0  0
 19 20  1  0  0  0
 20  1  1  0  0  0
  1  2  2  0  0  0
  2  3  1  0  0  0
  3  4  2  0  0  0
  4  5  1  0  0  0
  5  6  1  0  0  0
  6  7  2  0  0  0
  7  8  1  0  0  0
  8  9  2  0  0  0
  9 21  1  0  0  0
 21 23  1  0  0  0
 23 24  2  0  0  0
 24 25  1  0  0  0
 25 26  2  0  0  0
 26 27  1  0  0  0
 27 28  2  0  0  0
 26 29  1  0  0  0
 29 30  1  0  0  0
 30 31  1  0  0  0
 31 32  1  0  0  0
 32 33  1  0  0  0
 33 34  1  0  0  0
 32 35  1  0  0  0
 35 36  1  0  0  0
 35 37  1  0  0  0
  9 10  1  0  0  0
 10 11  2  0  0  0
 11 12  1  0  0  0
 12 14  1  0  0  0
 14 15  1  0  0  0
 15 16  1  0  0  0
 16 17  1  0  0  0
 17 18  1  0  0  0
 12 13  1  0  0  0
 13  1  1  0  0  0
 13  5  2  0  0  0
 11  6  1  0  0  0
 18 14  1  0  0  0
 28 23  1  0  0  0
 34 29  1  0  0  0
 21 22  1  0  0  0
M  END
>  <minimizedAffinity>
-3.23548

>  <minimizedRMSD>
1.97657

$$$$
CHEMBL4281130 PubChem-145979922


 32 33  0  0  0  0  0  0  0  0999 V2000
   16.2574   -8.5011   16.4841 C   0  0  0  0  0  0  0  0  0  0  0  0
   15.7020   -7.8048   17.4303 N   0  0  0  0  0  0  0  0  0  0  0  0
   16.3189   -6.6706   14.9994 O   0  0  0  0  0  0  0  0  0  0  0  0
   16.3178   -7.9271   15.1177 C   0  0  0  0  0  0  0  0  0  0  0  0
   16.3811   -8.7519   13.8858 C   0  0  0  0  0  0  0  0  0  0  0  0
   15.2712   -8.8156   13.0388 C   0  0  0  0  0  0  0  0  0  0  0  0
   15.3058   -9.5640   11.8536 C   0  0  0  0  0  0  0  0  0  0  0  0
   16.4720  -10.2605   11.4953 C   0  0  0  0  0  0  0  0  0  0  0  0
   17.6085  -10.1932   12.3398 C   0  0  0  0  0  0  0  0  0  0  0  0
   17.5442   -9.4351   13.5191 C   0  0  0  0  0  0  0  0  0  0  0  0
   14.1891   -9.6294   11.0123 O   0  0  0  0  0  0  0  0  0  0  0  0
   13.1215  -10.5448   11.2181 C   0  0  0  0  0  0  0  0  0  0  0  0
   16.4425  -10.9947   10.2974 O   0  0  0  0  0  0  0  0  0  0  0  0
   16.5893  -10.4417    8.9974 C   0  0  0  0  0  0  0  0  0  0  0  0
   18.7873  -10.8714   12.0084 O   0  0  0  0  0  0  0  0  0  0  0  0
   19.8239  -11.1282   12.9469 C   0  0  0  0  0  0  0  0  0  0  0  0
   15.5758   -8.2849   18.7432 N   0  0  0  0  0  0  0  0  0  0  0  0
   16.0860   -9.0819   19.0147 H   0  0  0  0  0  0  0  0  0  0  0  0
   14.7249   -7.6447   19.6939 C   0  0  0  0  0  0  0  0  0  0  0  0
   15.0646   -7.6711   21.0444 C   0  0  0  0  0  0  0  0  0  0  0  0
   14.2515   -7.0520   22.0075 C   0  0  0  0  0  0  0  0  0  0  0  0
   13.0660   -6.3902   21.5950 C   0  0  0  0  0  0  0  0  0  0  0  0
   12.7277   -6.3665   20.2306 C   0  0  0  0  0  0  0  0  0  0  0  0
   13.5582   -6.9931   19.2905 C   0  0  0  0  0  0  0  0  0  0  0  0
   11.5567   -5.7118   19.8313 O   0  0  0  0  0  0  0  0  0  0  0  0
   11.5211   -4.7835   18.7556 C   0  0  0  0  0  0  0  0  0  0  0  0
   12.1926   -5.7441   22.4865 O   0  0  0  0  0  0  0  0  0  0  0  0
   12.3687   -4.4288   22.9926 C   0  0  0  0  0  0  0  0  0  0  0  0
   14.6138   -7.0919   23.3590 O   0  0  0  0  0  0  0  0  0  0  0  0
   15.9655   -7.1064   23.7995 C   0  0  0  0  0  0  0  0  0  0  0  0
   16.7399   -9.8387   16.7533 C   0  0  0  0  0  0  0  0  0  0  0  0
   17.1246  -10.9084   16.9705 N   0  0  0  0  0  0  0  0  0  0  0  0
  3  4  2  0  0  0
  4  1  1  0  0  0
  1  2  2  0  0  0
  2 17  1  0  0  0
 17 19  1  0  0  0
 19 20  2  0  0  0
 20 21  1  0  0  0
 21 22  2  0  0  0
 22 23  1  0  0  0
 23 24  2  0  0  0
 23 25  1  0  0  0
 25 26  1  0  0  0
 22 27  1  0  0  0
 27 28  1  0  0  0
 21 29  1  0  0  0
 29 30  1  0  0  0
  1 31  1  0  0  0
 31 32  3  0  0  0
  4  5  1  0  0  0
  5  6  2  0  0  0
  6  7  1  0  0  0
  7 11  1  0  0  0
 11 12  1  0  0  0
  7  8  2  0  0  0
  8 13  1  0  0  0
 13 14  1  0  0  0
  8  9  1  0  0  0
  9 15  1  0  0  0
 15 16  1  0  0  0
  9 10  2  0  0  0
 24 19  1  0  0  0
 10  5  1  0  0  0
 17 18  1  0  0  0
M  END
>  <minimizedAffinity>
-3.22688

>  <minimizedRMSD>
1.97286

$$$$
CHEMBL3661129 PubChem-49872083


 39 43  0  0  0  0  0  0  0  0999 V2000
   15.6219   -8.2415   17.7119 N   0  0  0  0  0  0  0  0  0  0  0  0
   15.4274   -7.5958   16.5670 N   0  0  0  0  0  0  0  0  0  0  0  0
   16.0247   -8.2910   15.5675 C   0  0  0  0  0  0  0  0  0  0  0  0
   16.6324   -9.4183   16.1046 C   0  0  0  0  0  0  0  0  0  0  0  0
   17.4266  -10.4599   15.5938 C   0  0  0  0  0  0  0  0  0  0  0  0
   17.9395  -11.3837   16.5264 C   0  0  0  0  0  0  0  0  0  0  0  0
   17.6380  -11.2535   17.8976 C   0  0  0  0  0  0  0  0  0  0  0  0
   16.8506  -10.2308   18.3412 N   0  0  0  0  0  0  0  0  0  0  0  0
   16.3640   -9.3353   17.4448 C   0  0  0  0  0  0  0  0  0  0  0  0
   13.7807   -7.7092   19.3111 C   0  0  0  0  0  0  0  0  0  0  0  0
   13.3773   -7.2307   20.5674 C   0  0  0  0  0  0  0  0  0  0  0  0
   14.3157   -6.8219   21.5210 C   0  0  0  0  0  0  0  0  0  0  0  0
   15.6768   -6.8956   21.2122 C   0  0  0  0  0  0  0  0  0  0  0  0
   16.0913   -7.3661   19.9662 C   0  0  0  0  0  0  0  0  0  0  0  0
   15.1596   -7.7753   18.9988 C   0  0  0  0  0  0  0  0  0  0  0  0
   13.8747   -6.3237   22.8355 C   0  0  0  0  0  0  0  0  0  0  0  0
   12.7728   -5.7239   22.9517 O   0  0  0  0  0  0  0  0  0  0  0  0
   14.6881   -6.5140   23.9898 N   0  0  0  0  0  0  0  0  0  0  0  0
   15.5512   -6.9811   23.9121 H   0  0  0  0  0  0  0  0  0  0  0  0
   14.3870   -6.1783   24.8650 H   0  0  0  0  0  0  0  0  0  0  0  0
   12.7969   -8.1404   18.3612 N   0  0  0  0  0  0  0  0  0  0  0  0
   13.1116   -8.4528   17.4822 H   0  0  0  0  0  0  0  0  0  0  0  0
   10.6419   -7.5862   17.4044 C   0  0  0  0  0  0  0  0  0  0  0  0
   11.3619   -8.1462   18.6124 C   0  0  0  0  0  0  0  0  0  0  0  0
   10.8833   -9.5646   18.8594 C   0  0  0  0  0  0  0  0  0  0  0  0
   17.6964  -10.6323   14.1950 N   0  0  0  0  0  0  0  0  0  0  0  0
   18.3457  -11.6752   13.6400 C   0  0  0  0  0  0  0  0  0  0  0  0
   18.3587  -11.5938   12.2944 N   0  0  0  0  0  0  0  0  0  0  0  0
   17.6731  -10.4655   12.0229 C   0  0  0  0  0  0  0  0  0  0  0  0
   17.2424   -9.8674   13.1873 C   0  0  0  0  0  0  0  0  0  0  0  0
   17.4238   -9.9666   10.6662 C   0  0  0  0  0  0  0  0  0  0  0  0
   16.2843  -10.1736    9.9085 C   0  0  0  0  0  0  0  0  0  0  0  0
   16.4604   -9.5457    8.7298 N   0  0  0  0  0  0  0  0  0  0  0  0
   17.6514   -8.9714    8.7448 N   0  0  0  0  0  0  0  0  0  0  0  0
   18.1886   -8.2007    7.6395 C   0  0  0  0  0  0  0  0  0  0  0  0
   18.2833   -9.1979    9.9080 C   0  0  0  0  0  0  0  0  0  0  0  0
   16.1222   -7.7902   14.1630 C   0  0  0  0  0  0  0  0  0  0  0  0
   15.0825   -8.4567   13.2830 C   0  0  0  0  0  0  0  0  0  0  0  0
   15.9410   -6.2857   14.1270 C   0  0  0  0  0  0  0  0  0  0  0  0
 23 24  1  0  0  0
 24 25  1  0  0  0
 24 21  1  0  0  0
 21 10  1  0  0  0
 10 11  2  0  0  0
 11 12  1  0  0  0
 12 13  2  0  0  0
 13 14  1  0  0  0
 14 15  2  0  0  0
 15  1  1  0  0  0
  1  2  1  0  0  0
  2  3  2  0  0  0
  3 37  1  0  0  0
 37 38  1  0  0  0
 37 39  1  0  0  0
  3  4  1  0  0  0
  4  5  2  0  0  0
  5  6  1  0  0  0
  6  7  2  0  0  0
  7  8  1  0  0  0
  8  9  2  0  0  0
  5 26  1  0  0  0
 26 27  1  0  0  0
 27 28  2  0  0  0
 28 29  1  0  0  0
 29 30  2  0  0  0
 29 31  1  0  0  0
 31 32  1  0  0  0
 32 33  2  0  0  0
 33 34  1  0  0  0
 34 35  1  0  0  0
 34 36  1  0  0  0
 12 16  1  0  0  0
 16 17  2  0  0  0
 16 18  1  0  0  0
 15 10  1  0  0  0
  9  1  1  0  0  0
 30 26  1  0  0  0
 36 31  2  0  0  0
  9  4  1  0  0  0
 21 22  1  0  0  0
 18 19  1  0  0  0
 18 20  1  0  0  0
M  END
>  <minimizedAffinity>
-3.21902

>  <minimizedRMSD>
1.71988

$$$$
CHEMBL1498042 8687182 CSC027789501 MCULE-3961883546 MolPort-004-268-280 PubChem-4244380 Z15516680 ZINC000008687182 ZINC08687182


 34 36  0  0  0  0  0  0  0  0999 V2000
   17.0245  -10.1271   16.5830 C   0  0  0  0  0  0  0  0  0  0  0  0
   17.1095  -11.1452   17.3207 O   0  0  0  0  0  0  0  0  0  0  0  0
   16.8120  -10.2746   15.1710 N   0  0  0  0  0  0  0  0  0  0  0  0
   16.6202  -11.6001   14.5937 C   0  0  0  0  0  0  0  0  0  0  0  0
   17.4251  -11.7039   13.2992 C   0  0  0  0  0  0  0  0  0  0  0  0
   17.1577  -10.6136   12.3410 N   0  0  0  0  0  0  0  0  0  0  0  0
   16.3546   -9.4987   12.8766 C   0  0  0  0  0  0  0  0  0  0  0  0
   16.7565   -9.1018   14.3001 C   0  0  0  0  0  0  0  0  0  0  0  0
   18.6858  -10.0002   11.7815 S   0  0  0  0  0  0  0  0  0  0  0  0
   19.2409   -9.0238   12.7829 O   0  0  0  0  0  0  0  0  0  0  0  0
   19.6590  -11.1344   11.6239 O   0  0  0  0  0  0  0  0  0  0  0  0
   18.4864   -9.1977   10.2221 C   0  0  0  0  0  0  0  0  0  0  0  0
   19.4112   -8.2163    9.8442 C   0  0  0  0  0  0  0  0  0  0  0  0
   19.2908   -7.5649    8.6142 C   0  0  0  0  0  0  0  0  0  0  0  0
   18.2409   -7.8891    7.7525 C   0  0  0  0  0  0  0  0  0  0  0  0
   18.1138   -7.1981    6.4424 C   0  0  0  0  0  0  0  0  0  0  0  0
   17.3108   -8.8639    8.1214 C   0  0  0  0  0  0  0  0  0  0  0  0
   17.4266   -9.5236    9.3493 C   0  0  0  0  0  0  0  0  0  0  0  0
   16.4067  -10.5530    9.7010 C   0  0  0  0  0  0  0  0  0  0  0  0
   17.1548   -8.7717   17.2026 C   0  0  0  0  0  0  0  0  0  0  0  0
   16.0333   -8.4975   18.0353 O   0  0  0  0  0  0  0  0  0  0  0  0
   14.9389   -7.7443   17.6002 C   0  0  0  0  0  0  0  0  0  0  0  0
   14.7191   -7.5958   16.3675 O   0  0  0  0  0  0  0  0  0  0  0  0
   13.1800   -6.2441   20.4366 C   0  0  0  0  0  0  0  0  0  0  0  0
   12.2684   -6.1957   19.3901 C   0  0  0  0  0  0  0  0  0  0  0  0
   10.8857   -5.6427   19.4526 C   0  0  0  0  0  0  0  0  0  0  0  0
   12.7845   -6.7229   18.2630 N   0  0  0  0  0  0  0  0  0  0  0  0
   14.0358   -7.1142   18.5771 C   0  0  0  0  0  0  0  0  0  0  0  0
   14.3167   -6.8378   19.9067 C   0  0  0  0  0  0  0  0  0  0  0  0
   15.5975   -7.1250   20.6184 C   0  0  0  0  0  0  0  0  0  0  0  0
   12.3391   -6.8056   17.3889 H   0  0  0  0  0  0  0  0  0  0  0  0
   13.3759   -4.3865   22.2385 C   0  0  0  0  0  0  0  0  0  0  0  0
   12.9669   -5.7577   21.8211 C   0  0  0  0  0  0  0  0  0  0  0  0
   12.4224   -6.5045   22.6755 O   0  0  0  0  0  0  0  0  0  0  0  0
 32 33  1  0  0  0
 33 34  2  0  0  0
 33 24  1  0  0  0
 24 25  2  0  0  0
 25 26  1  0  0  0
 25 27  1  0  0  0
 27 28  1  0  0  0
 28 22  1  0  0  0
 28 29  2  0  0  0
 22 23  2  0  0  0
 22 21  1  0  0  0
 21 20  1  0  0  0
 20  1  1  0  0  0
  1  2  2  0  0  0
  1  3  1  0  0  0
  3  4  1  0  0  0
  4  5  1  0  0  0
  5  6  1  0  0  0
  6  7  1  0  0  0
  6  9  1  0  0  0
  7  8  1  0  0  0
  8  3  1  0  0  0
  9 10  2  0  0  0
  9 11  2  0  0  0
  9 12  1  0  0  0
 12 13  2  0  0  0
 13 14  1  0  0  0
 14 15  2  0  0  0
 15 16  1  0  0  0
 15 17  1  0  0  0
 17 18  2  0  0  0
 18 19  1  0  0  0
 18 12  1  0  0  0
 29 30  1  0  0  0
 29 24  1  0  0  0
 27 31  1  0  0  0
M  END
>  <minimizedAffinity>
-3.21682

>  <minimizedRMSD>
1.42530

$$$$
CHEMBL4094162 PubChem-137655419


 28 30  0  0  0  0  0  0  0  0999 V2000
   16.3046   -9.1188   14.2666 C   0  0  0  0  0  0  0  0  0  0  0  0
   16.6653  -10.0100   13.3320 C   0  0  0  0  0  0  0  0  0  0  0  0
   16.0261   -7.6719   13.9465 C   0  0  0  0  0  0  0  0  0  0  0  0
   16.3365   -6.8165   15.0932 N   0  0  0  0  0  0  0  0  0  0  0  0
   15.4328   -7.1617   16.1895 C   0  0  0  0  0  0  0  0  0  0  0  0
   15.7142   -8.5599   16.6706 C   0  0  0  0  0  0  0  0  0  0  0  0
   15.6990   -8.8778   17.9707 C   0  0  0  0  0  0  0  0  0  0  0  0
   16.1004   -9.5641   15.6611 C   0  0  0  0  0  0  0  0  0  0  0  0
   16.2727  -10.7719   15.9863 O   0  0  0  0  0  0  0  0  0  0  0  0
   16.2078   -5.8377   14.8368 H   0  0  0  0  0  0  0  0  0  0  0  0
   16.8924   -9.7626   11.8894 C   0  0  0  0  0  0  0  0  0  0  0  0
   18.0927   -9.3103   11.4331 N   0  0  0  0  0  0  0  0  0  0  0  0
   18.3214   -9.0804   10.1141 C   0  0  0  0  0  0  0  0  0  0  0  0
   17.2920   -9.3162    9.1914 C   0  0  0  0  0  0  0  0  0  0  0  0
   16.0927   -9.7687    9.6403 N   0  0  0  0  0  0  0  0  0  0  0  0
   15.8639   -9.9987   10.9599 C   0  0  0  0  0  0  0  0  0  0  0  0
   14.5225  -10.4962   11.3838 C   0  0  0  0  0  0  0  0  0  0  0  0
   17.4811   -9.0831    7.7307 C   0  0  0  0  0  0  0  0  0  0  0  0
   19.6604   -8.5844    9.6842 C   0  0  0  0  0  0  0  0  0  0  0  0
   15.3120   -7.9585   19.0548 C   0  0  0  0  0  0  0  0  0  0  0  0
   13.9787   -7.5441   19.2630 C   0  0  0  0  0  0  0  0  0  0  0  0
   13.6795   -6.6811   20.3217 C   0  0  0  0  0  0  0  0  0  0  0  0
   14.6895   -6.2308   21.1854 C   0  0  0  0  0  0  0  0  0  0  0  0
   16.0022   -6.6667   20.9907 C   0  0  0  0  0  0  0  0  0  0  0  0
   16.3097   -7.5296   19.9362 C   0  0  0  0  0  0  0  0  0  0  0  0
   12.6464   -8.1394   18.2821 Cl  0  0  0  0  0  0  0  0  0  0  0  0
   14.4148   -5.3617   22.2447 O   0  0  0  0  0  0  0  0  0  0  0  0
   13.0917   -5.0148   22.6298 C   0  0  0  0  0  0  0  0  0  0  0  0
  1  2  2  0  0  0
  2 11  1  0  0  0
 11 12  2  0  0  0
 12 13  1  0  0  0
 13 14  2  0  0  0
 14 15  1  0  0  0
 15 16  2  0  0  0
 16 17  1  0  0  0
 14 18  1  0  0  0
 13 19  1  0  0  0
  1  3  1  0  0  0
  3  4  1  0  0  0
  4  5  1  0  0  0
  5  6  1  0  0  0
  6  7  2  0  0  0
  7 20  1  0  0  0
 20 21  2  0  0  0
 21 22  1  0  0  0
 22 23  2  0  0  0
 23 24  1  0  0  0
 24 25  2  0  0  0
 23 27  1  0  0  0
 27 28  1  0  0  0
 21 26  1  0  0  0
  6  8  1  0  0  0
  8  9  2  0  0  0
  8  1  1  0  0  0
 16 11  1  0  0  0
 25 20  1  0  0  0
  4 10  1  0  0  0
M  END
>  <minimizedAffinity>
-3.21518

>  <minimizedRMSD>
1.84626

$$$$
CHEMBL3702155 PubChem-58299661


 35 40  0  0  0  0  0  0  0  0999 V2000
   15.3880   -9.0018   16.7589 C   0  0  0  0  0  0  0  0  0  0  0  0
   16.6703   -8.8779   17.2372 N   0  0  0  0  0  0  0  0  0  0  0  0
   16.9424   -8.2490   18.4181 C   0  0  0  0  0  0  0  0  0  0  0  0
   15.8700   -7.7336   19.1272 C   0  0  0  0  0  0  0  0  0  0  0  0
   15.7665   -7.0566   20.3184 C   0  0  0  0  0  0  0  0  0  0  0  0
   14.4212   -6.8048   20.5001 C   0  0  0  0  0  0  0  0  0  0  0  0
   13.9876   -6.1209   21.6367 C   0  0  0  0  0  0  0  0  0  0  0  0
   14.9248   -5.7177   22.5453 N   0  0  0  0  0  0  0  0  0  0  0  0
   16.2623   -5.9635   22.3728 C   0  0  0  0  0  0  0  0  0  0  0  0
   16.7269   -6.6500   21.2374 C   0  0  0  0  0  0  0  0  0  0  0  0
   12.6752   -5.8562   21.8480 F   0  0  0  0  0  0  0  0  0  0  0  0
   13.6840   -7.2963   19.4734 N   0  0  0  0  0  0  0  0  0  0  0  0
   14.5944   -7.8610   18.6438 C   0  0  0  0  0  0  0  0  0  0  0  0
   14.3391   -8.4881   17.4696 N   0  0  0  0  0  0  0  0  0  0  0  0
   12.2327   -7.2216   19.3121 C   0  0  0  0  0  0  0  0  0  0  0  0
   11.6248   -8.6085   19.2174 C   0  0  0  0  0  0  0  0  0  0  0  0
   10.5412   -8.5016   18.1702 C   0  0  0  0  0  0  0  0  0  0  0  0
   11.0157   -7.4304   17.2139 C   0  0  0  0  0  0  0  0  0  0  0  0
   11.8608   -6.4789   18.0382 C   0  0  0  0  0  0  0  0  0  0  0  0
   15.1252   -9.6658   15.5171 N   0  0  0  0  0  0  0  0  0  0  0  0
   14.3240  -10.2366   15.4792 H   0  0  0  0  0  0  0  0  0  0  0  0
   17.4414   -9.4147   12.0285 C   0  0  0  0  0  0  0  0  0  0  0  0
   18.0045   -9.6459   13.2469 N   0  0  0  0  0  0  0  0  0  0  0  0
   17.2671   -9.7257   14.3564 N   0  0  0  0  0  0  0  0  0  0  0  0
   15.9148   -9.5798   14.3250 C   0  0  0  0  0  0  0  0  0  0  0  0
   15.2855   -9.3418   13.1056 C   0  0  0  0  0  0  0  0  0  0  0  0
   16.0533   -9.2582   11.9474 C   0  0  0  0  0  0  0  0  0  0  0  0
   16.5670   -8.7579    7.9513 C   0  0  0  0  0  0  0  0  0  0  0  0
   17.9681   -9.1210    8.3969 C   0  0  0  0  0  0  0  0  0  0  0  0
   17.8930  -10.0434    9.6269 C   0  0  0  0  0  0  0  0  0  0  0  0
   18.2654   -9.3333   10.8535 N   0  0  0  0  0  0  0  0  0  0  0  0
   19.4725   -8.5033   10.8650 C   0  0  0  0  0  0  0  0  0  0  0  0
   19.9164   -8.1881    9.4403 C   0  0  0  0  0  0  0  0  0  0  0  0
   18.7372   -7.8918    8.6324 N   0  0  0  0  0  0  0  0  0  0  0  0
   19.0306   -7.5002    7.7374 H   0  0  0  0  0  0  0  0  0  0  0  0
 29 28  1  0  0  0
 29 30  1  0  0  0
 30 31  1  0  0  0
 31 32  1  0  0  0
 31 22  1  0  0  0
 32 33  1  0  0  0
 33 34  1  0  0  0
 34 29  1  0  0  0
 22 23  2  0  0  0
 23 24  1  0  0  0
 24 25  2  0  0  0
 25 26  1  0  0  0
 25 20  1  0  0  0
 26 27  2  0  0  0
 27 22  1  0  0  0
 20  1  1  0  0  0
  1  2  2  0  0  0
  2  3  1  0  0  0
  3  4  2  0  0  0
  4  5  1  0  0  0
  5  6  2  0  0  0
  6  7  1  0  0  0
  6 12  1  0  0  0
  7  8  2  0  0  0
  7 11  1  0  0  0
  8  9  1  0  0  0
  9 10  2  0  0  0
 10  5  1  0  0  0
 12 13  1  0  0  0
 12 15  1  0  0  0
 13 14  2  0  0  0
 13  4  1  0  0  0
 14  1  1  0  0  0
 15 16  1  0  0  0
 16 17  1  0  0  0
 17 18  1  0  0  0
 18 19  1  0  0  0
 19 15  1  0  0  0
 34 35  1  0  0  0
 20 21  1  0  0  0
M  END
>  <minimizedAffinity>
-3.20907

>  <minimizedRMSD>
1.70752

$$$$
CHEMBL4639508 PubChem-156013127


 35 37  0  0  0  0  0  0  0  0999 V2000
   16.3394   -8.9146   15.4310 C   0  0  0  0  0  0  0  0  0  0  0  0
   16.3874   -9.0690   16.7785 N   0  0  0  0  0  0  0  0  0  0  0  0
   15.6219   -8.3068   17.5993 C   0  0  0  0  0  0  0  0  0  0  0  0
   14.8065   -7.3630   17.0593 N   0  0  0  0  0  0  0  0  0  0  0  0
   14.7591   -7.1706   15.7411 N   0  0  0  0  0  0  0  0  0  0  0  0
   15.5096   -7.9176   14.8924 C   0  0  0  0  0  0  0  0  0  0  0  0
   15.4778   -7.5411   13.1765 Cl  0  0  0  0  0  0  0  0  0  0  0  0
   17.1746   -9.7371   14.6075 N   0  0  0  0  0  0  0  0  0  0  0  0
   17.8312  -10.3155   15.0588 H   0  0  0  0  0  0  0  0  0  0  0  0
   17.0912   -9.9125   10.3606 C   0  0  0  0  0  0  0  0  0  0  0  0
   18.2805   -9.5507   11.0445 C   0  0  0  0  0  0  0  0  0  0  0  0
   18.2777   -9.4947   12.4478 C   0  0  0  0  0  0  0  0  0  0  0  0
   17.1258   -9.7808   13.1770 C   0  0  0  0  0  0  0  0  0  0  0  0
   15.9611  -10.1517   12.5002 C   0  0  0  0  0  0  0  0  0  0  0  0
   15.9346  -10.2141   11.1001 C   0  0  0  0  0  0  0  0  0  0  0  0
   14.7661  -10.5752   10.4195 O   0  0  0  0  0  0  0  0  0  0  0  0
   13.4654  -10.3056   10.9253 C   0  0  0  0  0  0  0  0  0  0  0  0
   19.4499   -9.2528   10.3351 O   0  0  0  0  0  0  0  0  0  0  0  0
   19.6928   -7.9861    9.7373 C   0  0  0  0  0  0  0  0  0  0  0  0
   16.9993   -9.9909    8.9606 O   0  0  0  0  0  0  0  0  0  0  0  0
   16.7291   -8.8956    8.0977 C   0  0  0  0  0  0  0  0  0  0  0  0
   15.6920   -8.5136   19.0165 N   0  0  0  0  0  0  0  0  0  0  0  0
   16.1674   -9.3217   19.3169 H   0  0  0  0  0  0  0  0  0  0  0  0
   15.1478   -7.6761   20.0462 C   0  0  0  0  0  0  0  0  0  0  0  0
   16.0149   -7.1147   20.9819 C   0  0  0  0  0  0  0  0  0  0  0  0
   15.5392   -6.2873   22.0121 C   0  0  0  0  0  0  0  0  0  0  0  0
   14.1495   -6.0185   22.1015 C   0  0  0  0  0  0  0  0  0  0  0  0
   13.2760   -6.5852   21.1578 C   0  0  0  0  0  0  0  0  0  0  0  0
   13.7802   -7.4072   20.1405 C   0  0  0  0  0  0  0  0  0  0  0  0
   11.9054   -6.3165   21.2511 O   0  0  0  0  0  0  0  0  0  0  0  0
   11.2469   -5.3722   20.4176 C   0  0  0  0  0  0  0  0  0  0  0  0
   13.5830   -5.2038   23.0966 O   0  0  0  0  0  0  0  0  0  0  0  0
   13.4978   -3.7871   23.0409 C   0  0  0  0  0  0  0  0  0  0  0  0
   16.4342   -5.7375   22.9373 O   0  0  0  0  0  0  0  0  0  0  0  0
   17.7683   -6.2020   23.0962 C   0  0  0  0  0  0  0  0  0  0  0  0
 10 11  2  0  0  0
 11 12  1  0  0  0
 12 13  2  0  0  0
 13 14  1  0  0  0
 14 15  2  0  0  0
 15 16  1  0  0  0
 16 17  1  0  0  0
 13  8  1  0  0  0
  8  1  1  0  0  0
  1  2  2  0  0  0
  2  3  1  0  0  0
  3  4  2  0  0  0
  4  5  1  0  0  0
  5  6  2  0  0  0
  6  7  1  0  0  0
  3 22  1  0  0  0
 22 24  1  0  0  0
 24 25  2  0  0  0
 25 26  1  0  0  0
 26 27  2  0  0  0
 27 28  1  0  0  0
 28 29  2  0  0  0
 28 30  1  0  0  0
 30 31  1  0  0  0
 27 32  1  0  0  0
 32 33  1  0  0  0
 26 34  1  0  0  0
 34 35  1  0  0  0
 11 18  1  0  0  0
 18 19  1  0  0  0
 10 20  1  0  0  0
 20 21  1  0  0  0
 15 10  1  0  0  0
  6  1  1  0  0  0
 29 24  1  0  0  0
  8  9  1  0  0  0
 22 23  1  0  0  0
M  END
>  <minimizedAffinity>
-3.18647

>  <minimizedRMSD>
1.95019

$$$$
CHEMBL2018167


 34 37  0  0  0  0  0  0  0  0999 V2000
   15.8628   -8.1034   17.9084 C   0  0  0  0  0  0  0  0  0  0  0  0
   14.9591   -7.6475   17.0138 N   0  0  0  0  0  0  0  0  0  0  0  0
   15.0931   -8.1988   15.8092 N   0  0  0  0  0  0  0  0  0  0  0  0
   16.1064   -9.0910   15.7481 C   0  0  0  0  0  0  0  0  0  0  0  0
   16.9019   -9.2383   17.2234 S   0  0  0  0  0  0  0  0  0  0  0  0
   16.4637   -9.8252   14.5735 N   0  0  0  0  0  0  0  0  0  0  0  0
   16.3372   -9.3391   13.2335 C   0  0  0  0  0  0  0  0  0  0  0  0
   15.9004   -8.1810   13.0000 O   0  0  0  0  0  0  0  0  0  0  0  0
   16.8239  -10.7332   14.6962 H   0  0  0  0  0  0  0  0  0  0  0  0
   16.7648  -10.2015   12.1010 C   0  0  0  0  0  0  0  0  0  0  0  0
   18.0756   -9.8344   11.6920 O   0  0  0  0  0  0  0  0  0  0  0  0
   18.3389   -9.2229   10.4635 C   0  0  0  0  0  0  0  0  0  0  0  0
   19.3913   -8.3073   10.3749 C   0  0  0  0  0  0  0  0  0  0  0  0
   19.6798   -7.6792    9.1606 C   0  0  0  0  0  0  0  0  0  0  0  0
   18.9186   -7.9605    8.0221 C   0  0  0  0  0  0  0  0  0  0  0  0
   19.2573   -7.2699    6.7443 C   0  0  0  0  0  0  0  0  0  0  0  0
   17.8574   -8.8809    8.1028 C   0  0  0  0  0  0  0  0  0  0  0  0
   17.0189   -9.2117    6.9147 C   0  0  0  0  0  0  0  0  0  0  0  0
   17.5738   -9.5060    9.3209 C   0  0  0  0  0  0  0  0  0  0  0  0
   15.9350   -7.5540   19.6093 S   0  0  0  0  0  0  0  0  0  0  0  0
   14.2816   -8.2055   20.0089 C   0  0  0  0  0  0  0  0  0  0  0  0
   10.6601   -3.7048   19.7133 C   0  0  0  0  0  0  0  0  0  0  0  0
   11.3339   -4.5060   18.8444 N   0  0  0  0  0  0  0  0  0  0  0  0
   11.9574   -5.3318   19.7014 C   0  0  0  0  0  0  0  0  0  0  0  0
   12.7856   -6.3492   19.3621 N   0  0  0  0  0  0  0  0  0  0  0  0
   13.3480   -7.0980   20.3579 C   0  0  0  0  0  0  0  0  0  0  0  0
   13.0729   -6.8107   21.7121 C   0  0  0  0  0  0  0  0  0  0  0  0
   12.2098   -5.7484   22.0098 C   0  0  0  0  0  0  0  0  0  0  0  0
   11.9039   -5.4224   23.3250 O   0  0  0  0  0  0  0  0  0  0  0  0
   11.6858   -5.0495   20.9750 N   0  0  0  0  0  0  0  0  0  0  0  0
   10.8659   -4.0195   21.0171 N   0  0  0  0  0  0  0  0  0  0  0  0
   12.2756   -5.9169   24.0288 H   0  0  0  0  0  0  0  0  0  0  0  0
    8.6618   -3.0923   18.4072 C   0  0  0  0  0  0  0  0  0  0  0  0
    9.7962   -2.5752   19.2699 C   0  0  0  0  0  0  0  0  0  0  0  0
 33 34  1  0  0  0
 34 22  1  0  0  0
 22 23  1  0  0  0
 23 24  2  0  0  0
 24 25  1  0  0  0
 25 26  2  0  0  0
 26 21  1  0  0  0
 26 27  1  0  0  0
 21 20  1  0  0  0
 20  1  1  0  0  0
  1  2  2  0  0  0
  2  3  1  0  0  0
  3  4  2  0  0  0
  4  6  1  0  0  0
  4  5  1  0  0  0
  6  7  1  0  0  0
  7  8  2  0  0  0
  7 10  1  0  0  0
 10 11  1  0  0  0
 11 12  1  0  0  0
 12 13  2  0  0  0
 13 14  1  0  0  0
 14 15  2  0  0  0
 15 16  1  0  0  0
 15 17  1  0  0  0
 17 18  1  0  0  0
 17 19  2  0  0  0
 19 12  1  0  0  0
  5  1  1  0  0  0
 27 28  2  0  0  0
 28 29  1  0  0  0
 28 30  1  0  0  0
 30 31  1  0  0  0
 30 24  1  0  0  0
 31 22  2  0  0  0
  6  9  1  0  0  0
 29 32  1  0  0  0
M  END
>  <minimizedAffinity>
-3.17817

>  <minimizedRMSD>
1.49805

$$$$
CHEMBL3702228 PubChem-58299646


 34 38  0  0  0  0  0  0  0  0999 V2000
   13.4944   -7.5533   18.4198 N   0  0  0  0  0  0  0  0  0  0  0  0
   14.0740   -7.0295   19.5302 C   0  0  0  0  0  0  0  0  0  0  0  0
   15.4130   -7.3546   19.5999 C   0  0  0  0  0  0  0  0  0  0  0  0
   16.2223   -6.9327   20.6482 C   0  0  0  0  0  0  0  0  0  0  0  0
   15.6068   -6.1522   21.6429 C   0  0  0  0  0  0  0  0  0  0  0  0
   14.2751   -5.8359   21.5625 N   0  0  0  0  0  0  0  0  0  0  0  0
   13.4872   -6.2554   20.5279 C   0  0  0  0  0  0  0  0  0  0  0  0
   15.6769   -8.1136   18.4846 C   0  0  0  0  0  0  0  0  0  0  0  0
   16.8211   -8.7267   18.0018 C   0  0  0  0  0  0  0  0  0  0  0  0
   16.7151   -9.4198   16.8304 N   0  0  0  0  0  0  0  0  0  0  0  0
   15.5269   -9.5142   16.1464 C   0  0  0  0  0  0  0  0  0  0  0  0
   14.4046   -8.9040   16.6344 N   0  0  0  0  0  0  0  0  0  0  0  0
   14.4955   -8.2124   17.7964 C   0  0  0  0  0  0  0  0  0  0  0  0
   12.1079   -7.4529   17.9688 C   0  0  0  0  0  0  0  0  0  0  0  0
   11.6181   -6.0170   18.0738 C   0  0  0  0  0  0  0  0  0  0  0  0
    9.9446   -8.6972   18.0012 C   0  0  0  0  0  0  0  0  0  0  0  0
   11.2174   -8.3928   18.7684 C   0  0  0  0  0  0  0  0  0  0  0  0
   15.4392  -10.2472   14.9186 N   0  0  0  0  0  0  0  0  0  0  0  0
   14.8340  -11.0237   14.9072 H   0  0  0  0  0  0  0  0  0  0  0  0
   16.1459   -9.9608   13.7058 C   0  0  0  0  0  0  0  0  0  0  0  0
   17.4200  -10.3996   13.5085 N   0  0  0  0  0  0  0  0  0  0  0  0
   18.1010  -10.1345   12.3617 C   0  0  0  0  0  0  0  0  0  0  0  0
   17.5008   -9.3926   11.3342 C   0  0  0  0  0  0  0  0  0  0  0  0
   16.1908   -8.9325   11.5261 C   0  0  0  0  0  0  0  0  0  0  0  0
   15.5106   -9.2159   12.7106 C   0  0  0  0  0  0  0  0  0  0  0  0
   18.2160   -9.0996   10.1198 N   0  0  0  0  0  0  0  0  0  0  0  0
   19.4492   -8.3193   10.1437 C   0  0  0  0  0  0  0  0  0  0  0  0
   19.4267   -7.3193    8.9960 C   0  0  0  0  0  0  0  0  0  0  0  0
   19.2116   -8.0126    7.7221 N   0  0  0  0  0  0  0  0  0  0  0  0
   17.9205   -8.7164    7.7058 C   0  0  0  0  0  0  0  0  0  0  0  0
   17.8360   -9.7261    8.8544 C   0  0  0  0  0  0  0  0  0  0  0  0
   17.8020   -9.4764    6.4018 C   0  0  0  0  0  0  0  0  0  0  0  0
   16.7631   -7.7292    7.7818 C   0  0  0  0  0  0  0  0  0  0  0  0
   19.9609   -8.6905    7.5825 H   0  0  0  0  0  0  0  0  0  0  0  0
 16 17  1  0  0  0
 14 17  1  0  0  0
 14 15  1  0  0  0
 14  1  1  0  0  0
  1  2  1  0  0  0
  2  3  2  0  0  0
  3  4  1  0  0  0
  3  8  1  0  0  0
  4  5  2  0  0  0
  5  6  1  0  0  0
  6  7  2  0  0  0
  7  2  1  0  0  0
  8  9  2  0  0  0
  9 10  1  0  0  0
 10 11  2  0  0  0
 11 12  1  0  0  0
 11 18  1  0  0  0
 12 13  2  0  0  0
 13  1  1  0  0  0
 13  8  1  0  0  0
 18 20  1  0  0  0
 20 21  2  0  0  0
 21 22  1  0  0  0
 22 23  2  0  0  0
 23 24  1  0  0  0
 23 26  1  0  0  0
 24 25  2  0  0  0
 25 20  1  0  0  0
 26 27  1  0  0  0
 27 28  1  0  0  0
 28 29  1  0  0  0
 29 30  1  0  0  0
 30 31  1  0  0  0
 30 32  1  0  0  0
 30 33  1  0  0  0
 31 26  1  0  0  0
 18 19  1  0  0  0
 29 34  1  0  0  0
M  END
>  <minimizedAffinity>
-3.15975

>  <minimizedRMSD>
1.75768

$$$$
CHEMBL4455160 PubChem-155524761


 34 39  0  0  0  0  0  0  0  0999 V2000
   15.2768   -8.7491   17.3085 C   0  0  0  0  0  0  0  0  0  0  0  0
   14.2665   -8.2290   18.0567 N   0  0  0  0  0  0  0  0  0  0  0  0
   14.5129   -7.5503   19.2112 C   0  0  0  0  0  0  0  0  0  0  0  0
   15.8511   -7.3899   19.6304 C   0  0  0  0  0  0  0  0  0  0  0  0
   16.8763   -7.9269   18.8561 C   0  0  0  0  0  0  0  0  0  0  0  0
   16.5689   -8.5939   17.7137 N   0  0  0  0  0  0  0  0  0  0  0  0
   16.0752   -6.7136   20.7790 N   0  0  0  0  0  0  0  0  0  0  0  0
   15.0991   -6.2008   21.5189 C   0  0  0  0  0  0  0  0  0  0  0  0
   13.7667   -6.3385   21.1377 C   0  0  0  0  0  0  0  0  0  0  0  0
   12.8479   -5.8466   21.8492 O   0  0  0  0  0  0  0  0  0  0  0  0
   13.4833   -7.0200   19.9740 N   0  0  0  0  0  0  0  0  0  0  0  0
   15.6033   -5.5835   22.6014 N   0  0  0  0  0  0  0  0  0  0  0  0
   16.9215   -5.7453   22.4835 N   0  0  0  0  0  0  0  0  0  0  0  0
   17.2134   -6.4297   21.3806 N   0  0  0  0  0  0  0  0  0  0  0  0
   12.0727   -7.1587   19.5805 C   0  0  0  0  0  0  0  0  0  0  0  0
   11.6814   -8.6048   19.3482 C   0  0  0  0  0  0  0  0  0  0  0  0
   10.6401   -8.5523   18.2547 C   0  0  0  0  0  0  0  0  0  0  0  0
   11.0015   -7.3510   17.4044 C   0  0  0  0  0  0  0  0  0  0  0  0
   11.7497   -6.3886   18.3096 C   0  0  0  0  0  0  0  0  0  0  0  0
   14.9554   -9.4538   16.1018 N   0  0  0  0  0  0  0  0  0  0  0  0
   14.1487  -10.0175   16.1282 H   0  0  0  0  0  0  0  0  0  0  0  0
   15.2605   -8.5456   13.8618 C   0  0  0  0  0  0  0  0  0  0  0  0
   15.9335   -8.4930   12.6382 C   0  0  0  0  0  0  0  0  0  0  0  0
   17.0350   -9.3286   12.3909 C   0  0  0  0  0  0  0  0  0  0  0  0
   17.4471  -10.2168   13.3973 C   0  0  0  0  0  0  0  0  0  0  0  0
   16.7732  -10.2682   14.6200 C   0  0  0  0  0  0  0  0  0  0  0  0
   15.6741   -9.4319   14.8605 C   0  0  0  0  0  0  0  0  0  0  0  0
   17.7304   -9.2734   11.1302 N   0  0  0  0  0  0  0  0  0  0  0  0
   17.1503   -9.8981    9.9392 C   0  0  0  0  0  0  0  0  0  0  0  0
   17.2791   -8.9496    8.7513 C   0  0  0  0  0  0  0  0  0  0  0  0
   18.7268   -8.4942    8.5167 C   0  0  0  0  0  0  0  0  0  0  0  0
   19.6844   -8.8338    9.6660 C   0  0  0  0  0  0  0  0  0  0  0  0
   19.0389   -8.6126   11.0359 C   0  0  0  0  0  0  0  0  0  0  0  0
   18.7520   -7.0052    8.2333 C   0  0  0  0  0  0  0  0  0  0  0  0
 22 23  2  0  0  0
 23 24  1  0  0  0
 24 25  2  0  0  0
 25 26  1  0  0  0
 26 27  2  0  0  0
 27 20  1  0  0  0
 20  1  1  0  0  0
  1  2  2  0  0  0
  2  3  1  0  0  0
  3  4  2  0  0  0
  4  5  1  0  0  0
  5  6  2  0  0  0
  4  7  1  0  0  0
  7  8  1  0  0  0
  8  9  1  0  0  0
  9 10  2  0  0  0
  9 11  1  0  0  0
 11 15  1  0  0  0
 15 16  1  0  0  0
 16 17  1  0  0  0
 17 18  1  0  0  0
 18 19  1  0  0  0
  8 12  2  0  0  0
 12 13  1  0  0  0
 13 14  2  0  0  0
 24 28  1  0  0  0
 28 29  1  0  0  0
 29 30  1  0  0  0
 30 31  1  0  0  0
 31 32  1  0  0  0
 32 33  1  0  0  0
 31 34  1  0  0  0
 27 22  1  0  0  0
  6  1  1  0  0  0
 14  7  1  0  0  0
 33 28  1  0  0  0
 11  3  1  0  0  0
 19 15  1  0  0  0
 20 21  1  0  0  0
M  END
>  <minimizedAffinity>
-3.15973

>  <minimizedRMSD>
1.97588

$$$$
CHEMBL3702232 PubChem-58300115


 34 38  0  0  0  0  0  0  0  0999 V2000
   13.5082   -7.5841   18.3973 N   0  0  0  0  0  0  0  0  0  0  0  0
   14.0811   -7.0493   19.5059 C   0  0  0  0  0  0  0  0  0  0  0  0
   15.4224   -7.3633   19.5807 C   0  0  0  0  0  0  0  0  0  0  0  0
   16.2259   -6.9290   20.6284 C   0  0  0  0  0  0  0  0  0  0  0  0
   15.6018   -6.1478   21.6172 C   0  0  0  0  0  0  0  0  0  0  0  0
   14.2678   -5.8427   21.5319 N   0  0  0  0  0  0  0  0  0  0  0  0
   13.4857   -6.2742   20.4978 C   0  0  0  0  0  0  0  0  0  0  0  0
   15.6949   -8.1265   18.4703 C   0  0  0  0  0  0  0  0  0  0  0  0
   16.8453   -8.7329   17.9935 C   0  0  0  0  0  0  0  0  0  0  0  0
   16.7476   -9.4334   16.8258 N   0  0  0  0  0  0  0  0  0  0  0  0
   15.5617   -9.5412   16.1396 C   0  0  0  0  0  0  0  0  0  0  0  0
   14.4334   -8.9376   16.6217 N   0  0  0  0  0  0  0  0  0  0  0  0
   14.5160   -8.2387   17.7800 C   0  0  0  0  0  0  0  0  0  0  0  0
   12.1223   -7.4968   17.9422 C   0  0  0  0  0  0  0  0  0  0  0  0
   11.6260   -6.0616   18.0238 C   0  0  0  0  0  0  0  0  0  0  0  0
    9.9385   -8.7031   18.0156 C   0  0  0  0  0  0  0  0  0  0  0  0
   11.2340   -8.4278   18.7549 C   0  0  0  0  0  0  0  0  0  0  0  0
   15.4829  -10.2816   14.9157 N   0  0  0  0  0  0  0  0  0  0  0  0
   14.9061  -11.0794   14.9152 H   0  0  0  0  0  0  0  0  0  0  0  0
   16.1620   -9.9740   13.6924 C   0  0  0  0  0  0  0  0  0  0  0  0
   17.4338  -10.3977   13.4597 N   0  0  0  0  0  0  0  0  0  0  0  0
   18.0678  -10.1125   12.3206 N   0  0  0  0  0  0  0  0  0  0  0  0
   17.4738   -9.3854   11.3341 C   0  0  0  0  0  0  0  0  0  0  0  0
   16.1672   -8.9257   11.5298 C   0  0  0  0  0  0  0  0  0  0  0  0
   15.5071   -9.2240   12.7186 C   0  0  0  0  0  0  0  0  0  0  0  0
   18.1880   -9.0888   10.1231 N   0  0  0  0  0  0  0  0  0  0  0  0
   19.4289   -8.3242   10.1679 C   0  0  0  0  0  0  0  0  0  0  0  0
   19.4394   -7.3260    9.0184 C   0  0  0  0  0  0  0  0  0  0  0  0
   19.2341   -8.0181    7.7421 N   0  0  0  0  0  0  0  0  0  0  0  0
   17.9319   -8.7002    7.7055 C   0  0  0  0  0  0  0  0  0  0  0  0
   17.8122   -9.7080    8.8528 C   0  0  0  0  0  0  0  0  0  0  0  0
   17.8215   -9.4589    6.4000 C   0  0  0  0  0  0  0  0  0  0  0  0
   16.7899   -7.6941    7.7630 C   0  0  0  0  0  0  0  0  0  0  0  0
   19.9742   -8.7086    7.6161 H   0  0  0  0  0  0  0  0  0  0  0  0
 16 17  1  0  0  0
 14 17  1  0  0  0
 14 15  1  0  0  0
 14  1  1  0  0  0
  1  2  1  0  0  0
  2  3  2  0  0  0
  3  4  1  0  0  0
  3  8  1  0  0  0
  4  5  2  0  0  0
  5  6  1  0  0  0
  6  7  2  0  0  0
  7  2  1  0  0  0
  8  9  2  0  0  0
  9 10  1  0  0  0
 10 11  2  0  0  0
 11 12  1  0  0  0
 11 18  1  0  0  0
 12 13  2  0  0  0
 13  1  1  0  0  0
 13  8  1  0  0  0
 18 20  1  0  0  0
 20 21  2  0  0  0
 21 22  1  0  0  0
 22 23  2  0  0  0
 23 24  1  0  0  0
 23 26  1  0  0  0
 24 25  2  0  0  0
 25 20  1  0  0  0
 26 27  1  0  0  0
 27 28  1  0  0  0
 28 29  1  0  0  0
 29 30  1  0  0  0
 30 31  1  0  0  0
 30 32  1  0  0  0
 30 33  1  0  0  0
 31 26  1  0  0  0
 18 19  1  0  0  0
 29 34  1  0  0  0
M  END
>  <minimizedAffinity>
-3.10309

>  <minimizedRMSD>
1.78567

$$$$
CHEMBL4576500 PubChem-155551714


 34 39  0  0  0  0  0  0  0  0999 V2000
   15.3044   -8.8791   17.1206 C   0  0  0  0  0  0  0  0  0  0  0  0
   14.3098   -8.3482   17.8821 N   0  0  0  0  0  0  0  0  0  0  0  0
   14.5791   -7.6689   19.0311 C   0  0  0  0  0  0  0  0  0  0  0  0
   15.9248   -7.5193   19.4302 C   0  0  0  0  0  0  0  0  0  0  0  0
   16.9337   -8.0671   18.6424 C   0  0  0  0  0  0  0  0  0  0  0  0
   16.6036   -8.7342   17.5063 N   0  0  0  0  0  0  0  0  0  0  0  0
   16.1716   -6.8421   20.5736 N   0  0  0  0  0  0  0  0  0  0  0  0
   15.2110   -6.3189   21.3264 C   0  0  0  0  0  0  0  0  0  0  0  0
   13.8719   -6.4458   20.9653 C   0  0  0  0  0  0  0  0  0  0  0  0
   12.9680   -5.9440   21.6889 O   0  0  0  0  0  0  0  0  0  0  0  0
   13.5655   -7.1277   19.8075 N   0  0  0  0  0  0  0  0  0  0  0  0
   15.7365   -5.7034   22.3998 N   0  0  0  0  0  0  0  0  0  0  0  0
   17.0513   -5.8770   22.2630 N   0  0  0  0  0  0  0  0  0  0  0  0
   17.3209   -6.5666   21.1576 N   0  0  0  0  0  0  0  0  0  0  0  0
   12.1481   -7.2549   19.4351 C   0  0  0  0  0  0  0  0  0  0  0  0
   11.7202   -8.7023   19.2922 C   0  0  0  0  0  0  0  0  0  0  0  0
   10.6695   -8.6890   18.2066 C   0  0  0  0  0  0  0  0  0  0  0  0
   11.0507   -7.5490   17.2836 C   0  0  0  0  0  0  0  0  0  0  0  0
   11.8308   -6.5535   18.1237 C   0  0  0  0  0  0  0  0  0  0  0  0
   14.9591   -9.5840   15.9206 N   0  0  0  0  0  0  0  0  0  0  0  0
   14.1733  -10.1748   15.9732 H   0  0  0  0  0  0  0  0  0  0  0  0
   14.8568   -9.3821   13.4949 C   0  0  0  0  0  0  0  0  0  0  0  0
   15.4682   -9.3230   12.2397 C   0  0  0  0  0  0  0  0  0  0  0  0
   16.8645   -9.4105   12.1200 C   0  0  0  0  0  0  0  0  0  0  0  0
   17.6348   -9.5532   13.2852 C   0  0  0  0  0  0  0  0  0  0  0  0
   17.0217   -9.6120   14.5392 C   0  0  0  0  0  0  0  0  0  0  0  0
   15.6270   -9.5275   14.6523 C   0  0  0  0  0  0  0  0  0  0  0  0
   17.4958   -9.3414   10.8275 N   0  0  0  0  0  0  0  0  0  0  0  0
   16.8006   -9.8144    9.6298 C   0  0  0  0  0  0  0  0  0  0  0  0
   17.1265   -8.8960    8.4545 C   0  0  0  0  0  0  0  0  0  0  0  0
   18.5749   -8.7920    8.2914 N   0  0  0  0  0  0  0  0  0  0  0  0
   19.1243   -8.1274    9.4713 C   0  0  0  0  0  0  0  0  0  0  0  0
   18.9138   -9.0014   10.7052 C   0  0  0  0  0  0  0  0  0  0  0  0
   18.8053   -7.9037    7.1671 C   0  0  0  0  0  0  0  0  0  0  0  0
 22 23  2  0  0  0
 23 24  1  0  0  0
 24 25  2  0  0  0
 25 26  1  0  0  0
 26 27  2  0  0  0
 27 20  1  0  0  0
 20  1  1  0  0  0
  1  2  2  0  0  0
  2  3  1  0  0  0
  3  4  2  0  0  0
  4  5  1  0  0  0
  5  6  2  0  0  0
  4  7  1  0  0  0
  7  8  1  0  0  0
  8  9  1  0  0  0
  9 10  2  0  0  0
  9 11  1  0  0  0
 11 15  1  0  0  0
 15 16  1  0  0  0
 16 17  1  0  0  0
 17 18  1  0  0  0
 18 19  1  0  0  0
  8 12  2  0  0  0
 12 13  1  0  0  0
 13 14  2  0  0  0
 24 28  1  0  0  0
 28 29  1  0  0  0
 29 30  1  0  0  0
 30 31  1  0  0  0
 31 32  1  0  0  0
 32 33  1  0  0  0
 31 34  1  0  0  0
 27 22  1  0  0  0
  6  1  1  0  0  0
 14  7  1  0  0  0
 33 28  1  0  0  0
 11  3  1  0  0  0
 19 15  1  0  0  0
 20 21  1  0  0  0
M  END
>  <minimizedAffinity>
-3.09843

>  <minimizedRMSD>
1.89966

$$$$
CHEMBL2087809 PubChem-60154705


 30 31  0  0  0  0  0  0  0  0999 V2000
   16.2837   -8.2813   17.8871 C   0  0  0  0  0  0  0  0  0  0  0  0
   16.8530   -9.0751   16.9781 C   0  0  0  0  0  0  0  0  0  0  0  0
   14.8764   -8.0388   17.9219 N   0  0  0  0  0  0  0  0  0  0  0  0
   14.3540   -8.3199   17.1362 H   0  0  0  0  0  0  0  0  0  0  0  0
   12.6359   -6.2233   21.0520 C   0  0  0  0  0  0  0  0  0  0  0  0
   14.0099   -6.3982   21.2054 C   0  0  0  0  0  0  0  0  0  0  0  0
   14.7835   -6.9927   20.1954 C   0  0  0  0  0  0  0  0  0  0  0  0
   14.1546   -7.4214   19.0004 C   0  0  0  0  0  0  0  0  0  0  0  0
   12.7682   -7.2447   18.8452 C   0  0  0  0  0  0  0  0  0  0  0  0
   12.0199   -6.6482   19.8701 C   0  0  0  0  0  0  0  0  0  0  0  0
   11.1979   -4.4076   21.9201 C   0  0  0  0  0  0  0  0  0  0  0  0
   11.9089   -5.6268   22.0857 O   0  0  0  0  0  0  0  0  0  0  0  0
   16.1623   -7.1574   20.3733 O   0  0  0  0  0  0  0  0  0  0  0  0
   16.8789   -6.5788   21.4560 C   0  0  0  0  0  0  0  0  0  0  0  0
   12.1531   -7.6707   17.6618 O   0  0  0  0  0  0  0  0  0  0  0  0
   10.7420   -7.7369   17.5067 C   0  0  0  0  0  0  0  0  0  0  0  0
   16.1476   -9.8029   15.9019 C   0  0  0  0  0  0  0  0  0  0  0  0
   15.0330  -10.3479   16.1287 O   0  0  0  0  0  0  0  0  0  0  0  0
   16.7329   -9.8770   14.5389 C   0  0  0  0  0  0  0  0  0  0  0  0
   17.6774  -10.8782   14.2078 C   0  0  0  0  0  0  0  0  0  0  0  0
   18.2176  -10.9228   12.9133 C   0  0  0  0  0  0  0  0  0  0  0  0
   17.8342  -10.0019   11.9417 C   0  0  0  0  0  0  0  0  0  0  0  0
   16.8941   -9.0186   12.2648 C   0  0  0  0  0  0  0  0  0  0  0  0
   16.3389   -8.9450   13.5508 C   0  0  0  0  0  0  0  0  0  0  0  0
   18.0536  -11.8329   15.1613 O   0  0  0  0  0  0  0  0  0  0  0  0
   18.0903  -13.2274   14.8884 C   0  0  0  0  0  0  0  0  0  0  0  0
   18.3991  -10.0873   10.6663 O   0  0  0  0  0  0  0  0  0  0  0  0
   18.2434   -9.0683    9.6878 C   0  0  0  0  0  0  0  0  0  0  0  0
   15.4112   -7.9428   13.8641 O   0  0  0  0  0  0  0  0  0  0  0  0
   15.7748   -6.7221   14.4951 C   0  0  0  0  0  0  0  0  0  0  0  0
 11 12  1  0  0  0
 12  5  1  0  0  0
  5  6  2  0  0  0
  6  7  1  0  0  0
  7 13  1  0  0  0
  7  8  2  0  0  0
 13 14  1  0  0  0
  8  3  1  0  0  0
  8  9  1  0  0  0
  3  1  1  0  0  0
  1  2  2  0  0  0
  2 17  1  0  0  0
 17 18  2  0  0  0
 17 19  1  0  0  0
 19 20  2  0  0  0
 20 25  1  0  0  0
 20 21  1  0  0  0
 25 26  1  0  0  0
 21 22  2  0  0  0
 22 27  1  0  0  0
 22 23  1  0  0  0
 27 28  1  0  0  0
 23 24  2  0  0  0
 24 29  1  0  0  0
 24 19  1  0  0  0
 29 30  1  0  0  0
  9 15  1  0  0  0
  9 10  2  0  0  0
 15 16  1  0  0  0
 10  5  1  0  0  0
  3  4  1  0  0  0
M  END
>  <minimizedAffinity>
-3.09734

>  <minimizedRMSD>
1.71738

$$$$
CHEMBL3287131 PubChem-90644219


 35 38  0  0  0  0  0  0  0  0999 V2000
   15.6872   -8.4243   13.3935 N   0  0  0  0  0  0  0  0  0  0  0  0
   14.9011   -8.0213   12.9589 H   0  0  0  0  0  0  0  0  0  0  0  0
   12.7956   -6.7303   20.2383 C   0  0  0  0  0  0  0  0  0  0  0  0
   14.0095   -7.4053   20.4272 C   0  0  0  0  0  0  0  0  0  0  0  0
   14.7906   -7.8025   19.3412 C   0  0  0  0  0  0  0  0  0  0  0  0
   14.3536   -7.5217   18.0370 C   0  0  0  0  0  0  0  0  0  0  0  0
   13.1495   -6.8464   17.8325 C   0  0  0  0  0  0  0  0  0  0  0  0
   12.3594   -6.4419   18.9212 C   0  0  0  0  0  0  0  0  0  0  0  0
   15.1756   -7.9951   16.9235 C   0  0  0  0  0  0  0  0  0  0  0  0
   14.8419   -7.8620   15.6120 N   0  0  0  0  0  0  0  0  0  0  0  0
   15.7928   -8.4028   14.8165 C   0  0  0  0  0  0  0  0  0  0  0  0
   17.0811   -9.0569   15.6991 S   0  0  0  0  0  0  0  0  0  0  0  0
   16.3693   -8.6451   17.1648 C   0  0  0  0  0  0  0  0  0  0  0  0
   16.9492   -8.8154   18.5336 C   0  0  0  0  0  0  0  0  0  0  0  0
   15.9936   -8.5022   19.5646 O   0  0  0  0  0  0  0  0  0  0  0  0
   12.5523   -5.5017   22.4026 C   0  0  0  0  0  0  0  0  0  0  0  0
   12.0784   -6.3774   21.3916 O   0  0  0  0  0  0  0  0  0  0  0  0
   11.1517   -5.7716   18.7004 O   0  0  0  0  0  0  0  0  0  0  0  0
   10.9872   -4.3763   18.9315 C   0  0  0  0  0  0  0  0  0  0  0  0
   16.6878   -9.0113   12.6057 N   0  0  0  0  0  0  0  0  0  0  0  0
   16.4402   -9.7736   11.5826 C   0  0  0  0  0  0  0  0  0  0  0  0
   15.0599  -10.1633   11.1964 C   0  0  0  0  0  0  0  0  0  0  0  0
   14.1683  -10.3391   12.0679 O   0  0  0  0  0  0  0  0  0  0  0  0
   14.7268  -10.3043    9.8538 O   0  0  0  0  0  0  0  0  0  0  0  0
   15.3791  -10.1768    9.1933 H   0  0  0  0  0  0  0  0  0  0  0  0
   17.6150  -10.3633   10.8628 C   0  0  0  0  0  0  0  0  0  0  0  0
   18.3697   -9.3571   10.0451 C   0  0  0  0  0  0  0  0  0  0  0  0
   19.5701   -8.8493   10.5548 C   0  0  0  0  0  0  0  0  0  0  0  0
   20.2884   -7.8814    9.8515 C   0  0  0  0  0  0  0  0  0  0  0  0
   19.8131   -7.4096    8.6299 C   0  0  0  0  0  0  0  0  0  0  0  0
   18.6238   -7.9139    8.1071 C   0  0  0  0  0  0  0  0  0  0  0  0
   17.8904   -8.8974    8.7933 C   0  0  0  0  0  0  0  0  0  0  0  0
   16.6863   -9.4098    8.1972 N   0  0  0  0  0  0  0  0  0  0  0  0
   15.7437   -8.6370    7.9293 O   0  0  0  0  0  0  0  0  0  0  0  0
   16.5577  -10.7430    7.8783 O   0  0  0  0  0  0  0  0  0  0  0  0
 16 17  1  0  0  0
 17  3  1  0  0  0
  3  4  2  0  0  0
  4  5  1  0  0  0
  5  6  2  0  0  0
  6  7  1  0  0  0
  6  9  1  0  0  0
  7  8  2  0  0  0
  8 18  1  0  0  0
  8  3  1  0  0  0
 18 19  1  0  0  0
  9 10  1  0  0  0
 10 11  2  0  0  0
 11  1  1  0  0  0
 11 12  1  0  0  0
  1 20  1  0  0  0
 20 21  2  0  0  0
 21 26  1  0  0  0
 21 22  1  0  0  0
 26 27  1  0  0  0
 27 28  2  0  0  0
 28 29  1  0  0  0
 29 30  2  0  0  0
 30 31  1  0  0  0
 31 32  2  0  0  0
 32 33  1  0  0  0
 32 27  1  0  0  0
 33 34  2  0  0  0
 33 35  1  0  0  0
 22 23  2  0  0  0
 22 24  1  0  0  0
 12 13  1  0  0  0
 13 14  1  0  0  0
 13  9  2  0  0  0
 14 15  1  0  0  0
 15  5  1  0  0  0
  1  2  1  0  0  0
 24 25  1  0  0  0
M  CHG 1  33   1
M  CHG 1  35  -1
M  END
>  <minimizedAffinity>
-3.06284

>  <minimizedRMSD>
1.60965

$$$$
CHEMBL3209991 LN00731700 MolPort-002-639-450 PubChem-6224549 ZINC02209875


 38 41  0  0  0  0  0  0  0  0999 V2000
   14.1853   -6.2918   21.0074 C   0  0  0  0  0  0  0  0  0  0  0  0
   15.0488   -7.1188   20.3007 C   0  0  0  0  0  0  0  0  0  0  0  0
   16.0411   -7.4882   21.1357 N   0  0  0  0  0  0  0  0  0  0  0  0
   15.8018   -6.9156   22.3063 N   0  0  0  0  0  0  0  0  0  0  0  0
   14.6964   -6.1899   22.2541 N   0  0  0  0  0  0  0  0  0  0  0  0
   14.2028   -5.4420   23.3739 C   0  0  0  0  0  0  0  0  0  0  0  0
   14.1037   -5.9318   24.6209 N   0  0  0  0  0  0  0  0  0  0  0  0
   13.7324   -4.9222   25.3615 O   0  0  0  0  0  0  0  0  0  0  0  0
   13.6031   -3.8012   24.7044 N   0  0  0  0  0  0  0  0  0  0  0  0
   13.8957   -4.1057   23.4311 C   0  0  0  0  0  0  0  0  0  0  0  0
   14.0399   -3.1428   22.3934 N   0  0  0  0  0  0  0  0  0  0  0  0
   13.7842   -2.2055   22.5525 H   0  0  0  0  0  0  0  0  0  0  0  0
   14.3955   -3.4139   21.5163 H   0  0  0  0  0  0  0  0  0  0  0  0
   10.4587   -4.6157   19.7184 C   0  0  0  0  0  0  0  0  0  0  0  0
   10.5184   -5.3996   20.8750 C   0  0  0  0  0  0  0  0  0  0  0  0
   11.7330   -5.9516   21.2916 C   0  0  0  0  0  0  0  0  0  0  0  0
   12.9013   -5.7275   20.5521 C   0  0  0  0  0  0  0  0  0  0  0  0
   12.8446   -4.9401   19.3953 C   0  0  0  0  0  0  0  0  0  0  0  0
   11.6304   -4.3879   18.9789 C   0  0  0  0  0  0  0  0  0  0  0  0
    9.2294   -4.0768   19.3284 O   0  0  0  0  0  0  0  0  0  0  0  0
    9.1161   -2.8257   18.6635 C   0  0  0  0  0  0  0  0  0  0  0  0
    7.5860   -1.3375   17.4173 C   0  0  0  0  0  0  0  0  0  0  0  0
    7.6838   -2.6184   18.2181 C   0  0  0  0  0  0  0  0  0  0  0  0
   14.9203   -7.6341   18.9271 C   0  0  0  0  0  0  0  0  0  0  0  0
   13.7947   -7.6976   18.3652 O   0  0  0  0  0  0  0  0  0  0  0  0
   16.0843   -8.0877   18.2369 N   0  0  0  0  0  0  0  0  0  0  0  0
   16.9605   -8.0437   18.6837 H   0  0  0  0  0  0  0  0  0  0  0  0
   15.9996   -8.5940   16.9351 N   0  0  0  0  0  0  0  0  0  0  0  0
   17.0284   -8.5465   16.1542 C   0  0  0  0  0  0  0  0  0  0  0  0
   16.9740   -9.0684   14.7849 C   0  0  0  0  0  0  0  0  0  0  0  0
   15.9229   -8.7341   13.9191 C   0  0  0  0  0  0  0  0  0  0  0  0
   15.8945   -9.2454   12.6187 C   0  0  0  0  0  0  0  0  0  0  0  0
   16.9189  -10.0952   12.1702 C   0  0  0  0  0  0  0  0  0  0  0  0
   17.9646  -10.4272   13.0379 C   0  0  0  0  0  0  0  0  0  0  0  0
   17.9922   -9.9168   14.3391 C   0  0  0  0  0  0  0  0  0  0  0  0
   16.9192  -10.6260   10.8753 O   0  0  0  0  0  0  0  0  0  0  0  0
   16.6074   -9.8590    9.7170 C   0  0  0  0  0  0  0  0  0  0  0  0
   17.7830   -8.9757    9.3428 C   0  0  0  0  0  0  0  0  0  0  0  0
 22 23  1  0  0  0
 23 21  1  0  0  0
 21 20  1  0  0  0
 20 14  1  0  0  0
 14 15  2  0  0  0
 15 16  1  0  0  0
 16 17  2  0  0  0
 17 18  1  0  0  0
 17  1  1  0  0  0
 18 19  2  0  0  0
 19 14  1  0  0  0
  1  2  2  0  0  0
  2  3  1  0  0  0
  2 24  1  0  0  0
  3  4  2  0  0  0
  4  5  1  0  0  0
  5  6  1  0  0  0
  5  1  1  0  0  0
  6  7  2  0  0  0
  7  8  1  0  0  0
  8  9  1  0  0  0
  9 10  2  0  0  0
 10 11  1  0  0  0
 10  6  1  0  0  0
 24 25  2  0  0  0
 24 26  1  0  0  0
 26 28  1  0  0  0
 28 29  2  0  0  0
 29 30  1  0  0  0
 30 31  2  0  0  0
 31 32  1  0  0  0
 32 33  2  0  0  0
 33 36  1  0  0  0
 33 34  1  0  0  0
 36 37  1  0  0  0
 37 38  1  0  0  0
 34 35  2  0  0  0
 35 30  1  0  0  0
 11 12  1  0  0  0
 11 13  1  0  0  0
 26 27  1  0  0  0
M  END
>  <minimizedAffinity>
-3.04830

>  <minimizedRMSD>
1.98370

$$$$
CHEMBL3593511 PubChem-122181963


 30 32  0  0  0  0  0  0  0  0999 V2000
   16.5346   -9.0499   14.9708 C   0  0  0  0  0  0  0  0  0  0  0  0
   17.0876   -7.8191   14.8119 N   0  0  0  0  0  0  0  0  0  0  0  0
   16.7494   -6.7933   15.6349 C   0  0  0  0  0  0  0  0  0  0  0  0
   15.8273   -6.9977   16.6593 C   0  0  0  0  0  0  0  0  0  0  0  0
   15.2719   -8.2743   16.8175 C   0  0  0  0  0  0  0  0  0  0  0  0
   15.6350   -9.2690   15.9657 N   0  0  0  0  0  0  0  0  0  0  0  0
   16.9943  -10.3832   13.8746 S   0  0  0  0  0  0  0  0  0  0  0  0
   15.4920  -10.1791   12.8748 C   0  0  0  0  0  0  0  0  0  0  0  0
   17.1085   -9.2826   11.1623 N   0  0  0  0  0  0  0  0  0  0  0  0
   15.8630   -9.9278   11.4574 C   0  0  0  0  0  0  0  0  0  0  0  0
   15.0913  -10.3125   10.5395 O   0  0  0  0  0  0  0  0  0  0  0  0
   17.6635   -9.0212   11.9323 H   0  0  0  0  0  0  0  0  0  0  0  0
   19.2677   -7.9909    6.0197 C   0  0  0  0  0  0  0  0  0  0  0  0
   18.7000   -8.3334    7.3495 C   0  0  0  0  0  0  0  0  0  0  0  0
   19.2016   -7.7229    8.5021 C   0  0  0  0  0  0  0  0  0  0  0  0
   18.6672   -8.0455    9.7533 C   0  0  0  0  0  0  0  0  0  0  0  0
   17.6298   -8.9786    9.8615 C   0  0  0  0  0  0  0  0  0  0  0  0
   17.1309   -9.5878    8.6995 C   0  0  0  0  0  0  0  0  0  0  0  0
   17.6642   -9.2662    7.4480 C   0  0  0  0  0  0  0  0  0  0  0  0
   14.3277   -8.5456   17.8164 O   0  0  0  0  0  0  0  0  0  0  0  0
   13.7124   -7.5657   18.6096 C   0  0  0  0  0  0  0  0  0  0  0  0
   12.4522   -7.0692   18.2329 C   0  0  0  0  0  0  0  0  0  0  0  0
   11.7760   -7.5593   16.9994 C   0  0  0  0  0  0  0  0  0  0  0  0
   11.8226   -6.0905   19.0065 C   0  0  0  0  0  0  0  0  0  0  0  0
   12.4332   -5.6101   20.1661 C   0  0  0  0  0  0  0  0  0  0  0  0
   13.6716   -6.1174   20.5634 C   0  0  0  0  0  0  0  0  0  0  0  0
   14.3145   -7.0929   19.7961 C   0  0  0  0  0  0  0  0  0  0  0  0
   15.6028   -7.6522   20.2943 C   0  0  0  0  0  0  0  0  0  0  0  0
   11.7815   -4.6055   20.9575 C   0  0  0  0  0  0  0  0  0  0  0  0
   11.2560   -3.7955   21.5955 N   0  0  0  0  0  0  0  0  0  0  0  0
 13 14  1  0  0  0
 14 15  2  0  0  0
 15 16  1  0  0  0
 16 17  2  0  0  0
 17  9  1  0  0  0
  9 10  1  0  0  0
 10 11  2  0  0  0
 10  8  1  0  0  0
  8  7  1  0  0  0
  7  1  1  0  0  0
  1  2  2  0  0  0
  2  3  1  0  0  0
  3  4  2  0  0  0
  4  5  1  0  0  0
  5 20  1  0  0  0
 20 21  1  0  0  0
 21 22  2  0  0  0
 22 23  1  0  0  0
 22 24  1  0  0  0
 24 25  2  0  0  0
 25 29  1  0  0  0
 29 30  3  0  0  0
 25 26  1  0  0  0
 26 27  2  0  0  0
 27 28  1  0  0  0
  5  6  2  0  0  0
 17 18  1  0  0  0
 18 19  2  0  0  0
 19 14  1  0  0  0
  6  1  1  0  0  0
 27 21  1  0  0  0
  9 12  1  0  0  0
M  END
>  <minimizedAffinity>
-3.04112

>  <minimizedRMSD>
1.65961

$$$$
CHEMBL110407 PubChem-150004


 33 35  0  0  0  0  0  0  0  0999 V2000
   16.9380   -9.5605   12.5600 C   0  0  0  0  0  0  0  0  0  0  0  0
   17.2352  -10.1763   13.7790 C   0  0  0  0  0  0  0  0  0  0  0  0
   16.7565   -9.6109   14.9605 C   0  0  0  0  0  0  0  0  0  0  0  0
   15.9773   -8.4549   14.9208 C   0  0  0  0  0  0  0  0  0  0  0  0
   15.6935   -7.8665   13.6827 C   0  0  0  0  0  0  0  0  0  0  0  0
   14.8937   -6.6909   13.6058 N   0  0  0  0  0  0  0  0  0  0  0  0
   16.1798   -8.4271   12.5419 N   0  0  0  0  0  0  0  0  0  0  0  0
   15.4346   -7.9286   16.1380 N   0  0  0  0  0  0  0  0  0  0  0  0
   15.7272   -8.4091   17.3155 C   0  0  0  0  0  0  0  0  0  0  0  0
   16.7649   -9.5048   17.4737 C   0  0  0  0  0  0  0  0  0  0  0  0
   17.0230  -10.2171   16.2229 N   0  0  0  0  0  0  0  0  0  0  0  0
   14.5396   -6.2818   14.4283 H   0  0  0  0  0  0  0  0  0  0  0  0
   14.6947   -6.2874   12.7302 H   0  0  0  0  0  0  0  0  0  0  0  0
   17.3871  -11.1313   16.2532 H   0  0  0  0  0  0  0  0  0  0  0  0
   15.1102   -7.8102   18.5184 C   0  0  0  0  0  0  0  0  0  0  0  0
   15.8412   -7.6742   19.7018 C   0  0  0  0  0  0  0  0  0  0  0  0
   15.2631   -7.1097   20.8476 C   0  0  0  0  0  0  0  0  0  0  0  0
   13.9287   -6.6706   20.8193 C   0  0  0  0  0  0  0  0  0  0  0  0
   13.1773   -6.8048   19.6243 C   0  0  0  0  0  0  0  0  0  0  0  0
   13.7818   -7.3736   18.4923 C   0  0  0  0  0  0  0  0  0  0  0  0
   15.9985   -6.9746   22.0309 O   0  0  0  0  0  0  0  0  0  0  0  0
   17.2901   -6.3828   22.0724 C   0  0  0  0  0  0  0  0  0  0  0  0
   13.4082   -6.1139   22.0000 O   0  0  0  0  0  0  0  0  0  0  0  0
   13.3609   -4.7256   22.2962 C   0  0  0  0  0  0  0  0  0  0  0  0
   11.8457   -6.3772   19.5654 O   0  0  0  0  0  0  0  0  0  0  0  0
   10.8718   -6.9873   18.7286 C   0  0  0  0  0  0  0  0  0  0  0  0
   17.8609   -9.4147   10.1878 C   0  0  0  0  0  0  0  0  0  0  0  0
   17.8189   -8.1539   10.1626 O   0  0  0  0  0  0  0  0  0  0  0  0
   17.4363  -10.1386   11.3480 N   0  0  0  0  0  0  0  0  0  0  0  0
   17.4919  -11.1208   11.3092 H   0  0  0  0  0  0  0  0  0  0  0  0
   18.3243  -10.1263    9.0810 O   0  0  0  0  0  0  0  0  0  0  0  0
   18.0991   -8.9162    7.0237 C   0  0  0  0  0  0  0  0  0  0  0  0
   17.6406  -10.1089    7.8367 C   0  0  0  0  0  0  0  0  0  0  0  0
 32 33  1  0  0  0
 33 31  1  0  0  0
 31 27  1  0  0  0
 27 28  2  0  0  0
 27 29  1  0  0  0
 29  1  1  0  0  0
  1  2  2  0  0  0
  2  3  1  0  0  0
  3  4  2  0  0  0
  4  5  1  0  0  0
  4  8  1  0  0  0
  5  6  1  0  0  0
  5  7  2  0  0  0
  7  1  1  0  0  0
  8  9  2  0  0  0
  9 15  1  0  0  0
  9 10  1  0  0  0
 15 16  2  0  0  0
 16 17  1  0  0  0
 17 21  1  0  0  0
 17 18  2  0  0  0
 21 22  1  0  0  0
 18 23  1  0  0  0
 18 19  1  0  0  0
 23 24  1  0  0  0
 19 25  1  0  0  0
 19 20  2  0  0  0
 25 26  1  0  0  0
 20 15  1  0  0  0
 10 11  1  0  0  0
 11  3  1  0  0  0
 29 30  1  0  0  0
  6 12  1  0  0  0
  6 13  1  0  0  0
 11 14  1  0  0  0
M  END
>  <minimizedAffinity>
-3.00292

>  <minimizedRMSD>
1.37498

$$$$
CHEMBL2251348 PubChem-16127105


 34 37  0  0  0  0  0  0  0  0999 V2000
   15.9540   -8.2165   15.7826 C   0  0  0  0  0  0  0  0  0  0  0  0
   16.4588   -9.3510   16.3019 N   0  0  0  0  0  0  0  0  0  0  0  0
   16.3918   -9.2153   17.6171 N   0  0  0  0  0  0  0  0  0  0  0  0
   15.8518   -8.0018   17.8423 C   0  0  0  0  0  0  0  0  0  0  0  0
   15.5785   -7.3821   16.7206 O   0  0  0  0  0  0  0  0  0  0  0  0
   15.8072   -7.8962   14.0293 S   0  0  0  0  0  0  0  0  0  0  0  0
   16.0262   -9.6473   13.5774 C   0  0  0  0  0  0  0  0  0  0  0  0
   16.1895   -9.9694   11.0539 C   0  0  0  0  0  0  0  0  0  0  0  0
   15.5492  -10.2057    9.8280 C   0  0  0  0  0  0  0  0  0  0  0  0
   14.1705  -10.4234    9.7756 C   0  0  0  0  0  0  0  0  0  0  0  0
   13.4155  -10.4042   10.9497 C   0  0  0  0  0  0  0  0  0  0  0  0
   14.0380  -10.1621   12.1759 C   0  0  0  0  0  0  0  0  0  0  0  0
   15.4197   -9.9415   12.2407 C   0  0  0  0  0  0  0  0  0  0  0  0
   18.4246  -10.3409   11.9181 N   0  0  0  0  0  0  0  0  0  0  0  0
   17.6558   -9.7453   11.0565 C   0  0  0  0  0  0  0  0  0  0  0  0
   18.8302  -12.0165   13.6159 C   0  0  0  0  0  0  0  0  0  0  0  0
   17.9354  -11.2250   12.8547 O   0  0  0  0  0  0  0  0  0  0  0  0
   18.2722   -8.8694   10.0446 C   0  0  0  0  0  0  0  0  0  0  0  0
   17.5981   -8.4719    9.0535 O   0  0  0  0  0  0  0  0  0  0  0  0
   19.6067   -8.4828   10.1890 O   0  0  0  0  0  0  0  0  0  0  0  0
   20.3059   -7.8064    9.1577 C   0  0  0  0  0  0  0  0  0  0  0  0
   15.5961   -7.4349   19.1963 C   0  0  0  0  0  0  0  0  0  0  0  0
   14.6039   -8.5948   20.1858 S   0  0  0  0  0  0  0  0  0  0  0  0
   13.4822   -7.3077   20.7187 C   0  0  0  0  0  0  0  0  0  0  0  0
   13.2242   -7.0415   22.0276 N   0  0  0  0  0  0  0  0  0  0  0  0
   12.3609   -6.0182   21.9071 C   0  0  0  0  0  0  0  0  0  0  0  0
   11.7823   -5.3431   22.9316 N   0  0  0  0  0  0  0  0  0  0  0  0
   10.9306   -4.3134   22.6418 C   0  0  0  0  0  0  0  0  0  0  0  0
   10.2768   -3.5618   23.7439 C   0  0  0  0  0  0  0  0  0  0  0  0
   10.6614   -3.9627   21.3036 C   0  0  0  0  0  0  0  0  0  0  0  0
   11.2810   -4.6920   20.2781 C   0  0  0  0  0  0  0  0  0  0  0  0
   11.0266   -4.3612   18.8479 C   0  0  0  0  0  0  0  0  0  0  0  0
   12.1158   -5.7002   20.6355 N   0  0  0  0  0  0  0  0  0  0  0  0
   12.8128   -6.5038   19.8560 N   0  0  0  0  0  0  0  0  0  0  0  0
 16 17  1  0  0  0
 17 14  1  0  0  0
 14 15  2  0  0  0
 15 18  1  0  0  0
 15  8  1  0  0  0
 18 19  2  0  0  0
 18 20  1  0  0  0
 20 21  1  0  0  0
  8  9  2  0  0  0
  9 10  1  0  0  0
 10 11  2  0  0  0
 11 12  1  0  0  0
 12 13  2  0  0  0
 13  7  1  0  0  0
 13  8  1  0  0  0
  7  6  1  0  0  0
  6  1  1  0  0  0
  1  2  2  0  0  0
  2  3  1  0  0  0
  3  4  2  0  0  0
  4 22  1  0  0  0
  4  5  1  0  0  0
 22 23  1  0  0  0
 23 24  1  0  0  0
 24 25  1  0  0  0
 25 26  2  0  0  0
 26 27  1  0  0  0
 27 28  2  0  0  0
 28 29  1  0  0  0
 28 30  1  0  0  0
 30 31  2  0  0  0
 31 32  1  0  0  0
 31 33  1  0  0  0
 33 34  1  0  0  0
 33 26  1  0  0  0
 34 24  2  0  0  0
  5  1  1  0  0  0
M  END
>  <minimizedAffinity>
-3.00056

>  <minimizedRMSD>
1.83274

$$$$
CHEMBL3698711 PubChem-58299902


 34 39  0  0  0  0  0  0  0  0999 V2000
   15.3784   -8.9668   16.7741 C   0  0  0  0  0  0  0  0  0  0  0  0
   16.6564   -8.8493   17.2654 N   0  0  0  0  0  0  0  0  0  0  0  0
   16.9194   -8.2327   18.4546 C   0  0  0  0  0  0  0  0  0  0  0  0
   15.8417   -7.7232   19.1595 C   0  0  0  0  0  0  0  0  0  0  0  0
   15.7287   -7.0523   20.3540 C   0  0  0  0  0  0  0  0  0  0  0  0
   14.3831   -6.7982   20.5214 C   0  0  0  0  0  0  0  0  0  0  0  0
   13.9308   -6.1172   21.6479 C   0  0  0  0  0  0  0  0  0  0  0  0
   14.8567   -5.7158   22.5692 N   0  0  0  0  0  0  0  0  0  0  0  0
   16.1970   -5.9624   22.4153 C   0  0  0  0  0  0  0  0  0  0  0  0
   16.6777   -6.6480   21.2855 C   0  0  0  0  0  0  0  0  0  0  0  0
   13.6541   -7.2806   19.4879 N   0  0  0  0  0  0  0  0  0  0  0  0
   14.5699   -7.8433   18.6629 C   0  0  0  0  0  0  0  0  0  0  0  0
   14.3243   -8.4565   17.4795 N   0  0  0  0  0  0  0  0  0  0  0  0
   12.2051   -7.1851   19.3183 C   0  0  0  0  0  0  0  0  0  0  0  0
   11.5760   -8.5646   19.2422 C   0  0  0  0  0  0  0  0  0  0  0  0
   10.5272   -8.4720   18.1584 C   0  0  0  0  0  0  0  0  0  0  0  0
   11.0429   -7.4280   17.1941 C   0  0  0  0  0  0  0  0  0  0  0  0
   11.8537   -6.4577   18.0297 C   0  0  0  0  0  0  0  0  0  0  0  0
   15.1242   -9.6090   15.5176 N   0  0  0  0  0  0  0  0  0  0  0  0
   14.3020  -10.1477   15.4621 H   0  0  0  0  0  0  0  0  0  0  0  0
   17.4311   -9.4554   12.0119 C   0  0  0  0  0  0  0  0  0  0  0  0
   16.0326   -9.3773   11.9689 C   0  0  0  0  0  0  0  0  0  0  0  0
   15.3197   -9.4305   13.1243 N   0  0  0  0  0  0  0  0  0  0  0  0
   15.9301   -9.5567   14.3320 C   0  0  0  0  0  0  0  0  0  0  0  0
   17.3270   -9.6380   14.3763 C   0  0  0  0  0  0  0  0  0  0  0  0
   18.0415   -9.5864   13.2222 N   0  0  0  0  0  0  0  0  0  0  0  0
   16.4121   -8.7875    7.9820 C   0  0  0  0  0  0  0  0  0  0  0  0
   17.8225   -9.1859    8.3640 C   0  0  0  0  0  0  0  0  0  0  0  0
   17.7805  -10.1050    9.5986 C   0  0  0  0  0  0  0  0  0  0  0  0
   18.2137   -9.3985   10.8074 N   0  0  0  0  0  0  0  0  0  0  0  0
   19.4358   -8.5911   10.7687 C   0  0  0  0  0  0  0  0  0  0  0  0
   19.8339   -8.2958    9.3261 C   0  0  0  0  0  0  0  0  0  0  0  0
   18.6327   -7.9757    8.5603 N   0  0  0  0  0  0  0  0  0  0  0  0
   18.9023   -7.5989    7.6516 H   0  0  0  0  0  0  0  0  0  0  0  0
 28 27  1  0  0  0
 28 29  1  0  0  0
 29 30  1  0  0  0
 30 31  1  0  0  0
 30 21  1  0  0  0
 31 32  1  0  0  0
 32 33  1  0  0  0
 33 28  1  0  0  0
 21 22  2  0  0  0
 22 23  1  0  0  0
 23 24  2  0  0  0
 24 25  1  0  0  0
 24 19  1  0  0  0
 25 26  2  0  0  0
 26 21  1  0  0  0
 19  1  1  0  0  0
  1  2  2  0  0  0
  2  3  1  0  0  0
  3  4  2  0  0  0
  4  5  1  0  0  0
  5  6  2  0  0  0
  6  7  1  0  0  0
  6 11  1  0  0  0
  7  8  2  0  0  0
  8  9  1  0  0  0
  9 10  2  0  0  0
 10  5  1  0  0  0
 11 12  1  0  0  0
 11 14  1  0  0  0
 12 13  2  0  0  0
 12  4  1  0  0  0
 13  1  1  0  0  0
 14 15  1  0  0  0
 15 16  1  0  0  0
 16 17  1  0  0  0
 17 18  1  0  0  0
 18 14  1  0  0  0
 33 34  1  0  0  0
 19 20  1  0  0  0
M  END
>  <minimizedAffinity>
-2.98524

>  <minimizedRMSD>
1.69544

$$$$
CHEMBL4476470 PubChem-153534159


 35 40  0  0  0  0  0  0  0  0999 V2000
   15.3683   -8.7611   17.2571 C   0  0  0  0  0  0  0  0  0  0  0  0
   14.3491   -8.2516   17.9984 N   0  0  0  0  0  0  0  0  0  0  0  0
   14.5806   -7.5612   19.1490 C   0  0  0  0  0  0  0  0  0  0  0  0
   15.9166   -7.3755   19.5745 C   0  0  0  0  0  0  0  0  0  0  0  0
   16.9493   -7.9015   18.8013 C   0  0  0  0  0  0  0  0  0  0  0  0
   16.6562   -8.5816   17.6640 N   0  0  0  0  0  0  0  0  0  0  0  0
   16.1298   -6.6851   20.7235 N   0  0  0  0  0  0  0  0  0  0  0  0
   15.1279   -6.1776   21.4500 C   0  0  0  0  0  0  0  0  0  0  0  0
   13.8011   -6.3435   21.0530 C   0  0  0  0  0  0  0  0  0  0  0  0
   12.8648   -5.8479   21.7424 O   0  0  0  0  0  0  0  0  0  0  0  0
   13.5384   -7.0464   19.8998 N   0  0  0  0  0  0  0  0  0  0  0  0
   15.5718   -5.5180   22.5375 N   0  0  0  0  0  0  0  0  0  0  0  0
   16.8995   -5.6090   22.5077 N   0  0  0  0  0  0  0  0  0  0  0  0
   17.2331   -6.3191   21.4058 C   0  0  0  0  0  0  0  0  0  0  0  0
   18.6422   -6.6432   21.0253 C   0  0  0  0  0  0  0  0  0  0  0  0
   12.1303   -7.2231   19.5053 C   0  0  0  0  0  0  0  0  0  0  0  0
   11.8780   -6.8011   18.0662 C   0  0  0  0  0  0  0  0  0  0  0  0
   10.8183   -7.7534   17.5646 C   0  0  0  0  0  0  0  0  0  0  0  0
   11.0508   -9.0508   18.3157 C   0  0  0  0  0  0  0  0  0  0  0  0
   11.6596   -8.6645   19.6569 C   0  0  0  0  0  0  0  0  0  0  0  0
   15.0620   -9.4998   16.0663 N   0  0  0  0  0  0  0  0  0  0  0  0
   14.2926  -10.1118   16.1179 H   0  0  0  0  0  0  0  0  0  0  0  0
   16.8651  -10.2555   14.5286 C   0  0  0  0  0  0  0  0  0  0  0  0
   17.4986  -10.1897   13.2809 C   0  0  0  0  0  0  0  0  0  0  0  0
   17.0279   -9.3182   12.2835 C   0  0  0  0  0  0  0  0  0  0  0  0
   15.9144   -8.5088   12.5667 C   0  0  0  0  0  0  0  0  0  0  0  0
   15.2846   -8.5727   13.8171 C   0  0  0  0  0  0  0  0  0  0  0  0
   15.7520   -9.4475   14.8047 C   0  0  0  0  0  0  0  0  0  0  0  0
   17.6736   -9.2572   10.9922 N   0  0  0  0  0  0  0  0  0  0  0  0
   19.1135   -9.0115   10.9016 C   0  0  0  0  0  0  0  0  0  0  0  0
   19.4599   -8.0754    9.7280 C   0  0  0  0  0  0  0  0  0  0  0  0
   18.4717   -8.0869    8.6309 N   0  0  0  0  0  0  0  0  0  0  0  0
   17.8033   -9.3892    8.5426 C   0  0  0  0  0  0  0  0  0  0  0  0
   16.9190   -9.5713    9.7751 C   0  0  0  0  0  0  0  0  0  0  0  0
   19.2106   -7.9038    7.3861 C   0  0  0  0  0  0  0  0  0  0  0  0
 23 24  2  0  0  0
 24 25  1  0  0  0
 25 26  2  0  0  0
 26 27  1  0  0  0
 27 28  2  0  0  0
 28 21  1  0  0  0
 21  1  1  0  0  0
  1  2  2  0  0  0
  2  3  1  0  0  0
  3  4  2  0  0  0
  4  5  1  0  0  0
  5  6  2  0  0  0
  4  7  1  0  0  0
  7  8  1  0  0  0
  8  9  1  0  0  0
  9 10  2  0  0  0
  9 11  1  0  0  0
 11 16  1  0  0  0
 16 17  1  0  0  0
 17 18  1  0  0  0
 18 19  1  0  0  0
 19 20  1  0  0  0
  8 12  2  0  0  0
 12 13  1  0  0  0
 13 14  2  0  0  0
 14 15  1  0  0  0
 25 29  1  0  0  0
 29 30  1  0  0  0
 30 31  1  0  0  0
 31 32  1  0  0  0
 32 33  1  0  0  0
 33 34  1  0  0  0
 32 35  1  0  0  0
 28 23  1  0  0  0
  6  1  1  0  0  0
 14  7  1  0  0  0
 34 29  1  0  0  0
 11  3  1  0  0  0
 20 16  1  0  0  0
 21 22  1  0  0  0
M  END
>  <minimizedAffinity>
-2.97193

>  <minimizedRMSD>
1.97500

$$$$
CHEMBL4066620 PubChem-137632072


 30 32  0  0  0  0  0  0  0  0999 V2000
   16.3618   -9.3516   15.0080 C   0  0  0  0  0  0  0  0  0  0  0  0
   16.8184  -10.2844   14.1634 C   0  0  0  0  0  0  0  0  0  0  0  0
   15.9214   -7.9918   14.5256 C   0  0  0  0  0  0  0  0  0  0  0  0
   16.0730   -6.9930   15.5853 N   0  0  0  0  0  0  0  0  0  0  0  0
   15.1744   -7.3395   16.6858 C   0  0  0  0  0  0  0  0  0  0  0  0
   15.6059   -8.6357   17.3191 C   0  0  0  0  0  0  0  0  0  0  0  0
   15.5721   -8.8212   18.6438 C   0  0  0  0  0  0  0  0  0  0  0  0
   16.1489   -9.6814   16.4316 C   0  0  0  0  0  0  0  0  0  0  0  0
   16.4453  -10.8224   16.8833 O   0  0  0  0  0  0  0  0  0  0  0  0
   15.8335   -6.0696   15.2240 H   0  0  0  0  0  0  0  0  0  0  0  0
   17.0752  -10.0741   12.7260 C   0  0  0  0  0  0  0  0  0  0  0  0
   16.0294  -10.1799   11.8640 N   0  0  0  0  0  0  0  0  0  0  0  0
   16.1833  -10.0159   10.5244 C   0  0  0  0  0  0  0  0  0  0  0  0
   17.4598   -9.7427   10.0112 C   0  0  0  0  0  0  0  0  0  0  0  0
   18.5139   -9.6675   10.8644 N   0  0  0  0  0  0  0  0  0  0  0  0
   18.3626   -9.8296   12.2050 C   0  0  0  0  0  0  0  0  0  0  0  0
   19.5784   -9.8095   13.0696 C   0  0  0  0  0  0  0  0  0  0  0  0
   17.6918   -9.5512    8.5505 C   0  0  0  0  0  0  0  0  0  0  0  0
   14.9910  -10.1323    9.6362 C   0  0  0  0  0  0  0  0  0  0  0  0
   15.0345   -7.8472   19.6083 C   0  0  0  0  0  0  0  0  0  0  0  0
   13.6679   -7.5066   19.6616 C   0  0  0  0  0  0  0  0  0  0  0  0
   13.2233   -6.5827   20.6103 C   0  0  0  0  0  0  0  0  0  0  0  0
   14.1178   -5.9952   21.5180 C   0  0  0  0  0  0  0  0  0  0  0  0
   15.4728   -6.3531   21.4834 C   0  0  0  0  0  0  0  0  0  0  0  0
   15.9191   -7.2823   20.5308 C   0  0  0  0  0  0  0  0  0  0  0  0
   12.3554   -8.3271   18.5326 Br  0  0  0  0  0  0  0  0  0  0  0  0
   16.3562   -5.7754   22.4018 O   0  0  0  0  0  0  0  0  0  0  0  0
   17.6534   -6.2981   22.6546 C   0  0  0  0  0  0  0  0  0  0  0  0
   13.6810   -5.0627   22.4654 O   0  0  0  0  0  0  0  0  0  0  0  0
   12.3104   -4.7325   22.6447 C   0  0  0  0  0  0  0  0  0  0  0  0
  1  2  2  0  0  0
  2 11  1  0  0  0
 11 12  2  0  0  0
 12 13  1  0  0  0
 13 14  2  0  0  0
 14 15  1  0  0  0
 15 16  2  0  0  0
 16 17  1  0  0  0
 14 18  1  0  0  0
 13 19  1  0  0  0
  1  3  1  0  0  0
  3  4  1  0  0  0
  4  5  1  0  0  0
  5  6  1  0  0  0
  6  7  2  0  0  0
  7 20  1  0  0  0
 20 21  2  0  0  0
 21 22  1  0  0  0
 22 23  2  0  0  0
 23 24  1  0  0  0
 24 25  2  0  0  0
 24 27  1  0  0  0
 27 28  1  0  0  0
 23 29  1  0  0  0
 29 30  1  0  0  0
 21 26  1  0  0  0
  6  8  1  0  0  0
  8  9  2  0  0  0
  8  1  1  0  0  0
 16 11  1  0  0  0
 25 20  1  0  0  0
  4 10  1  0  0  0
M  END
>  <minimizedAffinity>
-2.95296

>  <minimizedRMSD>
1.87443

$$$$
CHEMBL4446053 PubChem-153534137


 34 39  0  0  0  0  0  0  0  0999 V2000
   15.3106   -8.8782   17.1306 C   0  0  0  0  0  0  0  0  0  0  0  0
   14.3172   -8.3439   17.8909 N   0  0  0  0  0  0  0  0  0  0  0  0
   14.5868   -7.6642   19.0396 C   0  0  0  0  0  0  0  0  0  0  0  0
   15.9319   -7.5170   19.4412 C   0  0  0  0  0  0  0  0  0  0  0  0
   16.9397   -8.0693   18.6528 C   0  0  0  0  0  0  0  0  0  0  0  0
   16.6094   -8.7365   17.5172 N   0  0  0  0  0  0  0  0  0  0  0  0
   16.1834   -6.8390   20.5853 N   0  0  0  0  0  0  0  0  0  0  0  0
   15.2178   -6.3119   21.3371 C   0  0  0  0  0  0  0  0  0  0  0  0
   13.8792   -6.4390   20.9694 C   0  0  0  0  0  0  0  0  0  0  0  0
   12.9734   -5.9354   21.6895 O   0  0  0  0  0  0  0  0  0  0  0  0
   13.5738   -7.1209   19.8126 N   0  0  0  0  0  0  0  0  0  0  0  0
   15.7148   -5.6897   22.4187 N   0  0  0  0  0  0  0  0  0  0  0  0
   17.0354   -5.8313   22.3426 N   0  0  0  0  0  0  0  0  0  0  0  0
   17.3270   -6.5344   21.2215 C   0  0  0  0  0  0  0  0  0  0  0  0
   12.1567   -7.2456   19.4375 C   0  0  0  0  0  0  0  0  0  0  0  0
   11.7241   -8.6923   19.3017 C   0  0  0  0  0  0  0  0  0  0  0  0
   10.6755   -8.6812   18.2140 C   0  0  0  0  0  0  0  0  0  0  0  0
   11.0623   -7.5475   17.2855 C   0  0  0  0  0  0  0  0  0  0  0  0
   11.8443   -6.5503   18.1217 C   0  0  0  0  0  0  0  0  0  0  0  0
   14.9643   -9.5832   15.9309 N   0  0  0  0  0  0  0  0  0  0  0  0
   14.1784  -10.1738   15.9842 H   0  0  0  0  0  0  0  0  0  0  0  0
   14.8603   -9.3795   13.5054 C   0  0  0  0  0  0  0  0  0  0  0  0
   15.4709   -9.3205   12.2498 C   0  0  0  0  0  0  0  0  0  0  0  0
   16.8669   -9.4101   12.1291 C   0  0  0  0  0  0  0  0  0  0  0  0
   17.6379   -9.5546   13.2934 C   0  0  0  0  0  0  0  0  0  0  0  0
   17.0257   -9.6134   14.5479 C   0  0  0  0  0  0  0  0  0  0  0  0
   15.6312   -9.5270   14.6621 C   0  0  0  0  0  0  0  0  0  0  0  0
   17.4972   -9.3411   10.8360 N   0  0  0  0  0  0  0  0  0  0  0  0
   16.8011   -9.8138    9.6388 C   0  0  0  0  0  0  0  0  0  0  0  0
   17.1262   -8.8954    8.4634 C   0  0  0  0  0  0  0  0  0  0  0  0
   18.5746   -8.7917    8.2991 N   0  0  0  0  0  0  0  0  0  0  0  0
   19.1251   -8.1273    9.4787 C   0  0  0  0  0  0  0  0  0  0  0  0
   18.9152   -9.0014   10.7127 C   0  0  0  0  0  0  0  0  0  0  0  0
   18.8044   -7.9034    7.1748 C   0  0  0  0  0  0  0  0  0  0  0  0
 22 23  2  0  0  0
 23 24  1  0  0  0
 24 25  2  0  0  0
 25 26  1  0  0  0
 26 27  2  0  0  0
 27 20  1  0  0  0
 20  1  1  0  0  0
  1  2  2  0  0  0
  2  3  1  0  0  0
  3  4  2  0  0  0
  4  5  1  0  0  0
  5  6  2  0  0  0
  4  7  1  0  0  0
  7  8  1  0  0  0
  8  9  1  0  0  0
  9 10  2  0  0  0
  9 11  1  0  0  0
 11 15  1  0  0  0
 15 16  1  0  0  0
 16 17  1  0  0  0
 17 18  1  0  0  0
 18 19  1  0  0  0
  8 12  2  0  0  0
 12 13  1  0  0  0
 13 14  2  0  0  0
 24 28  1  0  0  0
 28 29  1  0  0  0
 29 30  1  0  0  0
 30 31  1  0  0  0
 31 32  1  0  0  0
 32 33  1  0  0  0
 31 34  1  0  0  0
 27 22  1  0  0  0
  6  1  1  0  0  0
 14  7  1  0  0  0
 33 28  1  0  0  0
 11  3  1  0  0  0
 19 15  1  0  0  0
 20 21  1  0  0  0
M  END
>  <minimizedAffinity>
-2.94738

>  <minimizedRMSD>
1.90091

$$$$
CHEMBL290946 PubChem-5270519


 32 34  0  0  0  0  0  0  0  0999 V2000
   16.9662   -9.5441   12.6478 C   0  0  0  0  0  0  0  0  0  0  0  0
   17.2561  -10.1420   13.8777 C   0  0  0  0  0  0  0  0  0  0  0  0
   16.7473   -9.5759   15.0464 C   0  0  0  0  0  0  0  0  0  0  0  0
   15.9495   -8.4333   14.9812 C   0  0  0  0  0  0  0  0  0  0  0  0
   15.6728   -7.8628   13.7336 C   0  0  0  0  0  0  0  0  0  0  0  0
   14.8530   -6.7029   13.6331 N   0  0  0  0  0  0  0  0  0  0  0  0
   16.1865   -8.4257   12.6062 N   0  0  0  0  0  0  0  0  0  0  0  0
   15.3854   -7.9064   16.1870 N   0  0  0  0  0  0  0  0  0  0  0  0
   15.6876   -8.3780   17.3644 C   0  0  0  0  0  0  0  0  0  0  0  0
   16.7519   -9.4484   17.5124 C   0  0  0  0  0  0  0  0  0  0  0  0
   17.0049  -10.1502   16.2910 O   0  0  0  0  0  0  0  0  0  0  0  0
   14.4792   -6.2924   14.4461 H   0  0  0  0  0  0  0  0  0  0  0  0
   14.6600   -6.3114   12.7506 H   0  0  0  0  0  0  0  0  0  0  0  0
   15.0608   -7.7933   18.5687 C   0  0  0  0  0  0  0  0  0  0  0  0
   15.7757   -7.6902   19.7650 C   0  0  0  0  0  0  0  0  0  0  0  0
   15.1882   -7.1394   20.9127 C   0  0  0  0  0  0  0  0  0  0  0  0
   13.8605   -6.6810   20.8729 C   0  0  0  0  0  0  0  0  0  0  0  0
   13.1256   -6.7820   19.6645 C   0  0  0  0  0  0  0  0  0  0  0  0
   13.7392   -7.3378   18.5309 C   0  0  0  0  0  0  0  0  0  0  0  0
   15.9075   -7.0371   22.1090 O   0  0  0  0  0  0  0  0  0  0  0  0
   17.1744   -6.3986   22.1947 C   0  0  0  0  0  0  0  0  0  0  0  0
   13.3301   -6.1395   22.0562 O   0  0  0  0  0  0  0  0  0  0  0  0
   13.3092   -4.7576   22.3839 C   0  0  0  0  0  0  0  0  0  0  0  0
   11.8011   -6.3345   19.5940 O   0  0  0  0  0  0  0  0  0  0  0  0
   10.8241   -6.9334   18.7526 C   0  0  0  0  0  0  0  0  0  0  0  0
   17.8650   -9.4091   10.2657 C   0  0  0  0  0  0  0  0  0  0  0  0
   17.7406   -8.1550   10.2038 O   0  0  0  0  0  0  0  0  0  0  0  0
   17.4947  -10.1243   11.4498 N   0  0  0  0  0  0  0  0  0  0  0  0
   17.6140  -11.1015   11.4394 H   0  0  0  0  0  0  0  0  0  0  0  0
   18.3679  -10.1217    9.1770 O   0  0  0  0  0  0  0  0  0  0  0  0
   18.0524   -8.9676    7.0995 C   0  0  0  0  0  0  0  0  0  0  0  0
   17.6836  -10.1763    7.9340 C   0  0  0  0  0  0  0  0  0  0  0  0
 31 32  1  0  0  0
 32 30  1  0  0  0
 30 26  1  0  0  0
 26 27  2  0  0  0
 26 28  1  0  0  0
 28  1  1  0  0  0
  1  2  2  0  0  0
  2  3  1  0  0  0
  3  4  2  0  0  0
  4  5  1  0  0  0
  4  8  1  0  0  0
  5  6  1  0  0  0
  5  7  2  0  0  0
  7  1  1  0  0  0
  8  9  2  0  0  0
  9 14  1  0  0  0
  9 10  1  0  0  0
 14 15  2  0  0  0
 15 16  1  0  0  0
 16 20  1  0  0  0
 16 17  2  0  0  0
 20 21  1  0  0  0
 17 22  1  0  0  0
 17 18  1  0  0  0
 22 23  1  0  0  0
 18 24  1  0  0  0
 18 19  2  0  0  0
 24 25  1  0  0  0
 19 14  1  0  0  0
 10 11  1  0  0  0
 11  3  1  0  0  0
 28 29  1  0  0  0
  6 12  1  0  0  0
  6 13  1  0  0  0
M  END
>  <minimizedAffinity>
-2.94433

>  <minimizedRMSD>
1.31037

$$$$
CHEMBL2018261 PubChem-60150765


 31 33  0  0  0  0  0  0  0  0999 V2000
   16.0245   -8.6333   15.5723 N   0  0  0  0  0  0  0  0  0  0  0  0
   14.9866   -7.6598   15.7887 C   0  0  0  0  0  0  0  0  0  0  0  0
   14.1769   -6.8592   14.6119 S   0  0  0  0  0  0  0  0  0  0  0  0
   14.6973   -7.4792   17.1400 O   0  0  0  0  0  0  0  0  0  0  0  0
   15.5307   -8.3316   17.8526 C   0  0  0  0  0  0  0  0  0  0  0  0
   15.5693   -8.4651   19.1805 C   0  0  0  0  0  0  0  0  0  0  0  0
   16.3538   -9.0513   16.8973 C   0  0  0  0  0  0  0  0  0  0  0  0
   17.2382   -9.9020   17.1845 O   0  0  0  0  0  0  0  0  0  0  0  0
   14.7272   -7.7270   20.1382 C   0  0  0  0  0  0  0  0  0  0  0  0
   13.5248   -7.1116   19.7630 C   0  0  0  0  0  0  0  0  0  0  0  0
   12.7568   -6.4195   20.7022 C   0  0  0  0  0  0  0  0  0  0  0  0
   13.1910   -6.3301   22.0349 C   0  0  0  0  0  0  0  0  0  0  0  0
   14.3863   -6.9614   22.4172 C   0  0  0  0  0  0  0  0  0  0  0  0
   15.1466   -7.6512   21.4689 C   0  0  0  0  0  0  0  0  0  0  0  0
   14.9418   -6.9197   24.0810 Cl  0  0  0  0  0  0  0  0  0  0  0  0
   11.2459   -5.6898   20.1895 Cl  0  0  0  0  0  0  0  0  0  0  0  0
   12.4306   -5.6363   22.9754 O   0  0  0  0  0  0  0  0  0  0  0  0
   12.6858   -3.9605   23.2559 P   0  0  0  0  0  0  0  0  0  0  0  0
   13.4641   -3.7685   24.5372 O   0  0  0  0  0  0  0  0  0  0  0  0
   13.5532   -3.2895   21.9685 O   0  0  0  0  0  0  0  0  0  0  0  0
   11.1903   -3.1832   23.3880 O   0  0  0  0  0  0  0  0  0  0  0  0
   14.4118   -3.7340   21.8907 H   0  0  0  0  0  0  0  0  0  0  0  0
   10.6908   -3.5664   24.1259 H   0  0  0  0  0  0  0  0  0  0  0  0
   16.6225   -9.0906   14.3404 C   0  0  0  0  0  0  0  0  0  0  0  0
   17.9322   -9.5951   14.3339 C   0  0  0  0  0  0  0  0  0  0  0  0
   18.5237  -10.0337   13.1461 C   0  0  0  0  0  0  0  0  0  0  0  0
   17.8167   -9.9738   11.9425 C   0  0  0  0  0  0  0  0  0  0  0  0
   16.5081   -9.4679   11.9390 C   0  0  0  0  0  0  0  0  0  0  0  0
   15.9200   -9.0302   13.1283 C   0  0  0  0  0  0  0  0  0  0  0  0
   18.4343  -10.4202   10.7710 O   0  0  0  0  0  0  0  0  0  0  0  0
   18.3865   -9.6913    9.5522 C   0  0  0  0  0  0  0  0  0  0  0  0
  1  2  1  0  0  0
  2  3  2  0  0  0
  2  4  1  0  0  0
  4  5  1  0  0  0
  5  6  2  0  0  0
  6  9  1  0  0  0
  9 10  2  0  0  0
 10 11  1  0  0  0
 11 12  2  0  0  0
 12 13  1  0  0  0
 13 14  2  0  0  0
 13 15  1  0  0  0
 12 17  1  0  0  0
 17 18  1  0  0  0
 18 19  2  0  0  0
 18 20  1  0  0  0
 18 21  1  0  0  0
 11 16  1  0  0  0
  5  7  1  0  0  0
  7  8  2  0  0  0
  1 24  1  0  0  0
 24 25  2  0  0  0
 25 26  1  0  0  0
 26 27  2  0  0  0
 27 28  1  0  0  0
 28 29  2  0  0  0
 27 30  1  0  0  0
 30 31  1  0  0  0
  7  1  1  0  0  0
 29 24  1  0  0  0
 14  9  1  0  0  0
 20 22  1  0  0  0
 21 23  1  0  0  0
M  END
>  <minimizedAffinity>
-2.93090

>  <minimizedRMSD>
1.53169

$$$$
CHEMBL3593513 PubChem-122181965


 31 33  0  0  0  0  0  0  0  0999 V2000
   16.5073   -9.0922   15.0034 C   0  0  0  0  0  0  0  0  0  0  0  0
   17.1534   -7.8999   14.9188 N   0  0  0  0  0  0  0  0  0  0  0  0
   16.8698   -6.8926   15.7840 C   0  0  0  0  0  0  0  0  0  0  0  0
   15.9081   -7.0763   16.7755 C   0  0  0  0  0  0  0  0  0  0  0  0
   15.2562   -8.3138   16.8569 C   0  0  0  0  0  0  0  0  0  0  0  0
   15.5678   -9.2908   15.9652 N   0  0  0  0  0  0  0  0  0  0  0  0
   16.8956  -10.4013   13.8519 S   0  0  0  0  0  0  0  0  0  0  0  0
   15.5337   -9.9331   12.7455 C   0  0  0  0  0  0  0  0  0  0  0  0
   17.0027   -8.9388   10.9560 N   0  0  0  0  0  0  0  0  0  0  0  0
   16.0160   -9.9052   11.3397 C   0  0  0  0  0  0  0  0  0  0  0  0
   15.5717  -10.7493   10.5174 O   0  0  0  0  0  0  0  0  0  0  0  0
   17.3108   -8.3204   11.6573 H   0  0  0  0  0  0  0  0  0  0  0  0
   18.7847   -8.4204    7.1361 C   0  0  0  0  0  0  0  0  0  0  0  0
   17.6707   -9.2538    7.2742 C   0  0  0  0  0  0  0  0  0  0  0  0
   17.0748   -9.4331    8.5257 C   0  0  0  0  0  0  0  0  0  0  0  0
   17.5874   -8.7796    9.6564 C   0  0  0  0  0  0  0  0  0  0  0  0
   18.7019   -7.9462    9.5175 C   0  0  0  0  0  0  0  0  0  0  0  0
   19.2988   -7.7658    8.2667 C   0  0  0  0  0  0  0  0  0  0  0  0
   20.3623   -7.2924    5.6009 C   0  0  0  0  0  0  0  0  0  0  0  0
   19.3583   -8.2608    5.8718 O   0  0  0  0  0  0  0  0  0  0  0  0
   14.2680   -8.5612   17.8186 O   0  0  0  0  0  0  0  0  0  0  0  0
   13.6704   -7.5696   18.6110 C   0  0  0  0  0  0  0  0  0  0  0  0
   12.4267   -7.0397   18.2254 C   0  0  0  0  0  0  0  0  0  0  0  0
   11.7493   -7.5071   16.9838 C   0  0  0  0  0  0  0  0  0  0  0  0
   11.8151   -6.0487   18.9980 C   0  0  0  0  0  0  0  0  0  0  0  0
   12.4274   -5.5892   20.1651 C   0  0  0  0  0  0  0  0  0  0  0  0
   13.6489   -6.1294   20.5711 C   0  0  0  0  0  0  0  0  0  0  0  0
   14.2737   -7.1175   19.8048 C   0  0  0  0  0  0  0  0  0  0  0  0
   15.5428   -7.7118   20.3118 C   0  0  0  0  0  0  0  0  0  0  0  0
   11.7944   -4.5717   20.9552 C   0  0  0  0  0  0  0  0  0  0  0  0
   11.2841   -3.7510   21.5921 N   0  0  0  0  0  0  0  0  0  0  0  0
 19 20  1  0  0  0
 20 13  1  0  0  0
 13 14  2  0  0  0
 14 15  1  0  0  0
 15 16  2  0  0  0
 16  9  1  0  0  0
  9 10  1  0  0  0
 10 11  2  0  0  0
 10  8  1  0  0  0
  8  7  1  0  0  0
  7  1  1  0  0  0
  1  2  2  0  0  0
  2  3  1  0  0  0
  3  4  2  0  0  0
  4  5  1  0  0  0
  5 21  1  0  0  0
 21 22  1  0  0  0
 22 23  2  0  0  0
 23 24  1  0  0  0
 23 25  1  0  0  0
 25 26  2  0  0  0
 26 30  1  0  0  0
 30 31  3  0  0  0
 26 27  1  0  0  0
 27 28  2  0  0  0
 28 29  1  0  0  0
  5  6  2  0  0  0
 16 17  1  0  0  0
 17 18  2  0  0  0
 18 13  1  0  0  0
  6  1  1  0  0  0
 28 22  1  0  0  0
  9 12  1  0  0  0
M  END
>  <minimizedAffinity>
-2.92434

>  <minimizedRMSD>
1.59965

$$$$
CHEMBL3691654 PubChem-161285777 PubChem-67356402


 36 41  0  0  0  0  0  0  0  0999 V2000
   14.5208   -6.7712   20.4634 C   0  0  0  0  0  0  0  0  0  0  0  0
   15.8894   -7.0096   20.2676 C   0  0  0  0  0  0  0  0  0  0  0  0
   15.9371   -7.6815   19.0644 C   0  0  0  0  0  0  0  0  0  0  0  0
   17.0061   -8.1890   18.3432 C   0  0  0  0  0  0  0  0  0  0  0  0
   16.7321   -8.8179   17.1628 N   0  0  0  0  0  0  0  0  0  0  0  0
   15.4476   -8.9504   16.6962 C   0  0  0  0  0  0  0  0  0  0  0  0
   14.4047   -8.4431   17.4190 N   0  0  0  0  0  0  0  0  0  0  0  0
   14.6723   -7.8166   18.5914 C   0  0  0  0  0  0  0  0  0  0  0  0
   13.7817   -7.2606   19.4297 N   0  0  0  0  0  0  0  0  0  0  0  0
   14.9263   -7.6035   23.3567 C   0  0  0  0  0  0  0  0  0  0  0  0
   14.3579   -6.3207   22.9754 N   0  0  0  0  0  0  0  0  0  0  0  0
   14.0432   -5.3835   24.0410 C   0  0  0  0  0  0  0  0  0  0  0  0
   13.9575   -6.0346   21.6226 C   0  0  0  0  0  0  0  0  0  0  0  0
   13.1186   -5.1168   21.4129 O   0  0  0  0  0  0  0  0  0  0  0  0
   12.3251   -7.2250   19.2873 C   0  0  0  0  0  0  0  0  0  0  0  0
   11.9120   -6.5173   18.0059 C   0  0  0  0  0  0  0  0  0  0  0  0
   11.0498   -7.4955   17.2312 C   0  0  0  0  0  0  0  0  0  0  0  0
   10.6279   -8.5578   18.2218 C   0  0  0  0  0  0  0  0  0  0  0  0
   11.7473   -8.6265   19.2338 C   0  0  0  0  0  0  0  0  0  0  0  0
   15.1738   -9.6096   15.4524 N   0  0  0  0  0  0  0  0  0  0  0  0
   14.3551  -10.1554   15.4202 H   0  0  0  0  0  0  0  0  0  0  0  0
   15.9545   -9.5659   14.2495 C   0  0  0  0  0  0  0  0  0  0  0  0
   15.3181   -9.3864   13.0606 N   0  0  0  0  0  0  0  0  0  0  0  0
   15.9928   -9.3359   11.8809 C   0  0  0  0  0  0  0  0  0  0  0  0
   17.3883   -9.4718   11.8526 C   0  0  0  0  0  0  0  0  0  0  0  0
   18.0599   -9.6580   13.0682 C   0  0  0  0  0  0  0  0  0  0  0  0
   17.3477   -9.7067   14.2662 C   0  0  0  0  0  0  0  0  0  0  0  0
   18.1120   -9.4138   10.6091 N   0  0  0  0  0  0  0  0  0  0  0  0
   19.1113   -8.3689   10.3785 C   0  0  0  0  0  0  0  0  0  0  0  0
   19.8127   -8.5652    9.0300 C   0  0  0  0  0  0  0  0  0  0  0  0
   18.8632   -8.7589    7.9220 N   0  0  0  0  0  0  0  0  0  0  0  0
   18.2243   -7.4816    7.6227 C   0  0  0  0  0  0  0  0  0  0  0  0
   16.7778   -7.7611    7.2898 C   0  0  0  0  0  0  0  0  0  0  0  0
   16.4538   -9.0138    8.0567 C   0  0  0  0  0  0  0  0  0  0  0  0
   17.7815   -9.7298    8.1987 C   0  0  0  0  0  0  0  0  0  0  0  0
   17.8787  -10.4127    9.5672 C   0  0  0  0  0  0  0  0  0  0  0  0
 10 11  1  0  0  0
 11 12  1  0  0  0
 11 13  1  0  0  0
 13 14  2  0  0  0
 13  1  1  0  0  0
  1  2  2  0  0  0
  2  3  1  0  0  0
  3  4  2  0  0  0
  4  5  1  0  0  0
  5  6  2  0  0  0
  6  7  1  0  0  0
  6 20  1  0  0  0
  7  8  2  0  0  0
  8  9  1  0  0  0
  8  3  1  0  0  0
  9 15  1  0  0  0
  9  1  1  0  0  0
 15 16  1  0  0  0
 16 17  1  0  0  0
 17 18  1  0  0  0
 18 19  1  0  0  0
 19 15  1  0  0  0
 20 22  1  0  0  0
 22 23  2  0  0  0
 23 24  1  0  0  0
 24 25  2  0  0  0
 25 26  1  0  0  0
 25 28  1  0  0  0
 26 27  2  0  0  0
 27 22  1  0  0  0
 28 29  1  0  0  0
 29 30  1  0  0  0
 31 30  1  0  0  0
 31 32  1  0  0  0
 32 33  1  0  0  0
 33 34  1  0  0  0
 35 34  1  0  0  0
 35 36  1  0  0  0
 35 31  1  0  0  0
 36 28  1  0  0  0
 20 21  1  0  0  0
M  END
>  <minimizedAffinity>
-2.85251

>  <minimizedRMSD>
1.88610

$$$$
CHEMBL2036333 PubChem-60165426


 33 35  0  0  0  0  0  0  0  0999 V2000
   17.0184  -10.0455   13.9180 C   0  0  0  0  0  0  0  0  0  0  0  0
   16.4995   -9.1593   14.7816 C   0  0  0  0  0  0  0  0  0  0  0  0
   16.0873   -7.7590   14.3941 C   0  0  0  0  0  0  0  0  0  0  0  0
   16.2378   -6.8767   15.4850 O   0  0  0  0  0  0  0  0  0  0  0  0
   15.2666   -7.2333   16.4417 C   0  0  0  0  0  0  0  0  0  0  0  0
   15.6267   -8.5551   17.0696 C   0  0  0  0  0  0  0  0  0  0  0  0
   15.5230   -8.7831   18.3844 C   0  0  0  0  0  0  0  0  0  0  0  0
   16.2172   -9.5639   16.1727 C   0  0  0  0  0  0  0  0  0  0  0  0
   16.4898  -10.7253   16.5855 O   0  0  0  0  0  0  0  0  0  0  0  0
   18.0604   -9.6988    9.7600 C   0  0  0  0  0  0  0  0  0  0  0  0
   19.0470   -9.6796   10.7487 C   0  0  0  0  0  0  0  0  0  0  0  0
   18.6991   -9.7672   12.0899 C   0  0  0  0  0  0  0  0  0  0  0  0
   17.3605   -9.8579   12.4865 C   0  0  0  0  0  0  0  0  0  0  0  0
   16.3418   -9.8542   11.4932 C   0  0  0  0  0  0  0  0  0  0  0  0
   16.7074   -9.7972   10.1193 C   0  0  0  0  0  0  0  0  0  0  0  0
   18.7754   -8.4070    7.7697 C   0  0  0  0  0  0  0  0  0  0  0  0
   18.4006   -9.6225    8.4042 O   0  0  0  0  0  0  0  0  0  0  0  0
   14.9789   -9.9207   11.8264 O   0  0  0  0  0  0  0  0  0  0  0  0
   13.9483  -10.3132   10.9298 C   0  0  0  0  0  0  0  0  0  0  0  0
   15.7739   -9.8211    9.0675 O   0  0  0  0  0  0  0  0  0  0  0  0
   15.5653   -8.7781    8.1261 C   0  0  0  0  0  0  0  0  0  0  0  0
   14.9363   -7.8517   19.3662 C   0  0  0  0  0  0  0  0  0  0  0  0
   15.7511   -7.4339   20.4138 C   0  0  0  0  0  0  0  0  0  0  0  0
   15.2641   -6.5675   21.3828 C   0  0  0  0  0  0  0  0  0  0  0  0
   13.9449   -6.1008   21.3321 C   0  0  0  0  0  0  0  0  0  0  0  0
   13.0866   -6.5352   20.2870 C   0  0  0  0  0  0  0  0  0  0  0  0
   13.5853   -7.4437   19.3108 C   0  0  0  0  0  0  0  0  0  0  0  0
   13.4847   -5.2169   22.3159 O   0  0  0  0  0  0  0  0  0  0  0  0
   14.0596   -5.1293   23.6134 C   0  0  0  0  0  0  0  0  0  0  0  0
   11.7547   -6.0969   20.1828 O   0  0  0  0  0  0  0  0  0  0  0  0
   11.3171   -4.9322   19.4969 C   0  0  0  0  0  0  0  0  0  0  0  0
   12.7835   -7.9855   18.2886 O   0  0  0  0  0  0  0  0  0  0  0  0
   11.5004   -8.5688   18.4637 C   0  0  0  0  0  0  0  0  0  0  0  0
 16 17  1  0  0  0
 17 10  1  0  0  0
 10 11  2  0  0  0
 11 12  1  0  0  0
 12 13  2  0  0  0
 13  1  1  0  0  0
 13 14  1  0  0  0
  1  2  2  0  0  0
  2  3  1  0  0  0
  3  4  1  0  0  0
  4  5  1  0  0  0
  5  6  1  0  0  0
  6  7  2  0  0  0
  6  8  1  0  0  0
  7 22  1  0  0  0
 22 23  2  0  0  0
 23 24  1  0  0  0
 24 25  2  0  0  0
 25 28  1  0  0  0
 25 26  1  0  0  0
 28 29  1  0  0  0
 26 30  1  0  0  0
 26 27  2  0  0  0
 30 31  1  0  0  0
 27 32  1  0  0  0
 27 22  1  0  0  0
 32 33  1  0  0  0
  8  9  2  0  0  0
  8  2  1  0  0  0
 14 18  1  0  0  0
 14 15  2  0  0  0
 18 19  1  0  0  0
 15 20  1  0  0  0
 15 10  1  0  0  0
 20 21  1  0  0  0
M  END
>  <minimizedAffinity>
-2.84827

>  <minimizedRMSD>
1.83706

$$$$
CHEMBL569554 PubChem-45485406


 32 35  0  0  0  0  0  0  0  0999 V2000
   16.0438   -7.8913   15.8050 C   0  0  0  0  0  0  0  0  0  0  0  0
   16.3178   -6.6715   15.9716 O   0  0  0  0  0  0  0  0  0  0  0  0
   16.3717   -8.5309   14.5601 N   0  0  0  0  0  0  0  0  0  0  0  0
   17.1095   -7.7957   13.5309 C   0  0  0  0  0  0  0  0  0  0  0  0
   16.4235   -7.9784   12.1825 C   0  0  0  0  0  0  0  0  0  0  0  0
   16.1888   -9.3987   11.9459 N   0  0  0  0  0  0  0  0  0  0  0  0
   16.7350  -10.1166   10.8181 C   0  0  0  0  0  0  0  0  0  0  0  0
   16.7023  -11.3793   10.8335 O   0  0  0  0  0  0  0  0  0  0  0  0
   15.4159  -10.1218   12.9563 C   0  0  0  0  0  0  0  0  0  0  0  0
   16.0510   -9.9432   14.3349 C   0  0  0  0  0  0  0  0  0  0  0  0
   17.3017  -10.7964   14.4564 C   0  0  0  0  0  0  0  0  0  0  0  0
   17.3298   -9.4453    9.6323 C   0  0  0  0  0  0  0  0  0  0  0  0
   16.8149   -9.7237    8.3550 C   0  0  0  0  0  0  0  0  0  0  0  0
   17.3262   -9.0839    7.2224 C   0  0  0  0  0  0  0  0  0  0  0  0
   18.3604   -8.1540    7.3522 C   0  0  0  0  0  0  0  0  0  0  0  0
   18.8788   -7.8615    8.6155 C   0  0  0  0  0  0  0  0  0  0  0  0
   18.3620   -8.5003    9.7478 C   0  0  0  0  0  0  0  0  0  0  0  0
   15.3887   -8.6652   16.9168 C   0  0  0  0  0  0  0  0  0  0  0  0
   16.3997   -9.2869   17.8651 C   0  0  0  0  0  0  0  0  0  0  0  0
   14.3706   -7.9219   17.5982 O   0  0  0  0  0  0  0  0  0  0  0  0
   12.2487   -6.3190   18.5042 C   0  0  0  0  0  0  0  0  0  0  0  0
   13.3979   -6.6276   19.4087 C   0  0  0  0  0  0  0  0  0  0  0  0
   14.4446   -7.4306   18.9157 C   0  0  0  0  0  0  0  0  0  0  0  0
   15.5357   -7.7278   19.7466 C   0  0  0  0  0  0  0  0  0  0  0  0
   15.5958   -7.2313   21.0460 C   0  0  0  0  0  0  0  0  0  0  0  0
   14.5694   -6.4219   21.5261 C   0  0  0  0  0  0  0  0  0  0  0  0
   13.4633   -6.1073   20.7248 C   0  0  0  0  0  0  0  0  0  0  0  0
   12.4135   -5.2360   21.3033 C   0  0  0  0  0  0  0  0  0  0  0  0
   11.5987   -5.6100   22.3088 N   0  0  0  0  0  0  0  0  0  0  0  0
   10.8264   -4.5161   22.4795 C   0  0  0  0  0  0  0  0  0  0  0  0
   11.1638   -3.5383   21.6166 N   0  0  0  0  0  0  0  0  0  0  0  0
   12.1436   -4.0169   20.9138 O   0  0  0  0  0  0  0  0  0  0  0  0
 21 22  1  0  0  0
 22 23  2  0  0  0
 23 20  1  0  0  0
 23 24  1  0  0  0
 18 20  1  0  0  0
 18 19  1  0  0  0
 18  1  1  0  0  0
  1  2  2  0  0  0
  1  3  1  0  0  0
  3  4  1  0  0  0
  4  5  1  0  0  0
  5  6  1  0  0  0
  6  7  1  0  0  0
  6  9  1  0  0  0
  7  8  2  0  0  0
  7 12  1  0  0  0
 12 13  2  0  0  0
 13 14  1  0  0  0
 14 15  2  0  0  0
 15 16  1  0  0  0
 16 17  2  0  0  0
 17 12  1  0  0  0
  9 10  1  0  0  0
 10 11  1  0  0  0
 10  3  1  0  0  0
 24 25  2  0  0  0
 25 26  1  0  0  0
 26 27  2  0  0  0
 27 28  1  0  0  0
 27 22  1  0  0  0
 28 29  2  0  0  0
 29 30  1  0  0  0
 30 31  2  0  0  0
 31 32  1  0  0  0
 32 28  1  0  0  0
M  END
>  <minimizedAffinity>
-2.79790

>  <minimizedRMSD>
1.58683

$$$$
CHEMBL1287997 PubChem-11697131


 31 34  0  0  0  0  0  0  0  0999 V2000
   17.2449   -8.6904   15.6691 C   0  0  0  0  0  0  0  0  0  0  0  0
   17.6392   -8.5132   17.0090 C   0  0  0  0  0  0  0  0  0  0  0  0
   16.7350   -8.1145   17.9504 N   0  0  0  0  0  0  0  0  0  0  0  0
   15.4527   -7.8932   17.5693 C   0  0  0  0  0  0  0  0  0  0  0  0
   15.0576   -8.0538   16.3008 N   0  0  0  0  0  0  0  0  0  0  0  0
   15.9055   -8.4479   15.3182 C   0  0  0  0  0  0  0  0  0  0  0  0
   13.7658   -7.7931   16.1869 N   0  0  0  0  0  0  0  0  0  0  0  0
   13.3328   -7.4447   17.4227 C   0  0  0  0  0  0  0  0  0  0  0  0
   14.3867   -7.4876   18.3401 C   0  0  0  0  0  0  0  0  0  0  0  0
   11.9021   -7.1747   17.7342 C   0  0  0  0  0  0  0  0  0  0  0  0
   19.0507   -8.7631   17.4002 C   0  0  0  0  0  0  0  0  0  0  0  0
   14.3635   -7.2621   19.8003 C   0  0  0  0  0  0  0  0  0  0  0  0
   15.0166   -8.1855   20.6278 C   0  0  0  0  0  0  0  0  0  0  0  0
   15.0202   -8.0223   22.0145 C   0  0  0  0  0  0  0  0  0  0  0  0
   14.3763   -6.9288   22.5969 C   0  0  0  0  0  0  0  0  0  0  0  0
   13.7370   -5.9891   21.7747 C   0  0  0  0  0  0  0  0  0  0  0  0
   13.7269   -6.1452   20.3852 C   0  0  0  0  0  0  0  0  0  0  0  0
   13.0956   -5.0717   19.5648 C   0  0  0  0  0  0  0  0  0  0  0  0
   14.3925   -6.7958   23.9880 O   0  0  0  0  0  0  0  0  0  0  0  0
   13.9950   -5.6027   24.6497 C   0  0  0  0  0  0  0  0  0  0  0  0
   15.4351   -8.6148   13.9758 N   0  0  0  0  0  0  0  0  0  0  0  0
   14.8792   -7.9031   13.5837 H   0  0  0  0  0  0  0  0  0  0  0  0
   15.7370   -9.7832   13.1617 C   0  0  0  0  0  0  0  0  0  0  0  0
   14.6129  -10.0003   12.1672 C   0  0  0  0  0  0  0  0  0  0  0  0
   17.0496   -9.5681   12.4168 C   0  0  0  0  0  0  0  0  0  0  0  0
   16.8899   -9.6502   10.9297 C   0  0  0  0  0  0  0  0  0  0  0  0
   16.0275  -10.4617   10.2841 N   0  0  0  0  0  0  0  0  0  0  0  0
   16.2001  -10.2352    8.9911 N   0  0  0  0  0  0  0  0  0  0  0  0
   17.1598   -9.2968    8.9010 C   0  0  0  0  0  0  0  0  0  0  0  0
   17.5890   -8.9325   10.0843 O   0  0  0  0  0  0  0  0  0  0  0  0
   17.6675   -8.7449    7.6173 C   0  0  0  0  0  0  0  0  0  0  0  0
  1  2  1  0  0  0
  2  3  2  0  0  0
  3  4  1  0  0  0
  4  5  1  0  0  0
  5  6  1  0  0  0
  6 21  1  0  0  0
 21 23  1  0  0  0
 23 25  1  0  0  0
 25 26  1  0  0  0
 26 27  2  0  0  0
 27 28  1  0  0  0
 28 29  2  0  0  0
 29 30  1  0  0  0
 29 31  1  0  0  0
 23 24  1  0  0  0
  5  7  1  0  0  0
  7  8  2  0  0  0
  8  9  1  0  0  0
  9 12  1  0  0  0
 12 13  2  0  0  0
 13 14  1  0  0  0
 14 15  2  0  0  0
 15 16  1  0  0  0
 16 17  2  0  0  0
 17 18  1  0  0  0
 15 19  1  0  0  0
 19 20  1  0  0  0
  8 10  1  0  0  0
  2 11  1  0  0  0
  6  1  2  0  0  0
 30 26  1  0  0  0
 17 12  1  0  0  0
  9  4  2  0  0  0
 21 22  1  0  0  0
M  END
>  <minimizedAffinity>
-2.75702

>  <minimizedRMSD>
1.70041

$$$$
CHEMBL1288058 PubChem-11531898


 32 35  0  0  0  0  0  0  0  0999 V2000
   17.6717   -8.7007   15.7362 C   0  0  0  0  0  0  0  0  0  0  0  0
   17.9406   -8.3136   17.0620 C   0  0  0  0  0  0  0  0  0  0  0  0
   16.9239   -7.9579   17.8985 N   0  0  0  0  0  0  0  0  0  0  0  0
   15.6522   -7.9857   17.4294 C   0  0  0  0  0  0  0  0  0  0  0  0
   15.3719   -8.3490   16.1704 N   0  0  0  0  0  0  0  0  0  0  0  0
   16.3438   -8.7208   15.2898 C   0  0  0  0  0  0  0  0  0  0  0  0
   14.0670   -8.2778   15.9628 N   0  0  0  0  0  0  0  0  0  0  0  0
   13.5077   -7.8532   17.1205 C   0  0  0  0  0  0  0  0  0  0  0  0
   14.4920   -7.6463   18.0896 C   0  0  0  0  0  0  0  0  0  0  0  0
   12.0355   -7.7466   17.3164 C   0  0  0  0  0  0  0  0  0  0  0  0
   19.3430   -8.2895   17.5524 C   0  0  0  0  0  0  0  0  0  0  0  0
   14.3440   -7.2394   19.5024 C   0  0  0  0  0  0  0  0  0  0  0  0
   14.9568   -8.0173   20.4937 C   0  0  0  0  0  0  0  0  0  0  0  0
   14.8376   -7.6758   21.8414 C   0  0  0  0  0  0  0  0  0  0  0  0
   14.1049   -6.5428   22.2198 C   0  0  0  0  0  0  0  0  0  0  0  0
   13.5085   -5.7530   21.2343 C   0  0  0  0  0  0  0  0  0  0  0  0
   13.6263   -6.0831   19.8736 C   0  0  0  0  0  0  0  0  0  0  0  0
   13.0655   -5.2609   18.8892 O   0  0  0  0  0  0  0  0  0  0  0  0
   11.8010   -4.6294   19.0389 C   0  0  0  0  0  0  0  0  0  0  0  0
   13.9592   -6.1769   23.5607 O   0  0  0  0  0  0  0  0  0  0  0  0
   14.9304   -6.4864   24.5509 C   0  0  0  0  0  0  0  0  0  0  0  0
   16.0633   -9.1127   13.9396 N   0  0  0  0  0  0  0  0  0  0  0  0
   15.3750   -8.6041   13.4529 H   0  0  0  0  0  0  0  0  0  0  0  0
   16.7182  -10.2059   13.2313 C   0  0  0  0  0  0  0  0  0  0  0  0
   16.6569   -9.9817   11.7545 C   0  0  0  0  0  0  0  0  0  0  0  0
   17.6149   -9.3640   11.0346 N   0  0  0  0  0  0  0  0  0  0  0  0
   17.0816   -9.4164    9.7976 C   0  0  0  0  0  0  0  0  0  0  0  0
   15.8806  -10.0233    9.7698 N   0  0  0  0  0  0  0  0  0  0  0  0
   15.6528  -10.3585   11.0029 O   0  0  0  0  0  0  0  0  0  0  0  0
   17.7494   -8.8609    8.5913 C   0  0  0  0  0  0  0  0  0  0  0  0
   18.1540  -10.4087   13.7227 C   0  0  0  0  0  0  0  0  0  0  0  0
   18.6030  -11.8600   13.6415 C   0  0  0  0  0  0  0  0  0  0  0  0
  1  2  1  0  0  0
  2  3  2  0  0  0
  3  4  1  0  0  0
  4  5  1  0  0  0
  5  6  1  0  0  0
  6 22  1  0  0  0
 22 24  1  0  0  0
 24 31  1  0  0  0
 31 32  1  0  0  0
 24 25  1  0  0  0
 25 26  2  0  0  0
 26 27  1  0  0  0
 27 28  2  0  0  0
 28 29  1  0  0  0
 27 30  1  0  0  0
  5  7  1  0  0  0
  7  8  2  0  0  0
  8  9  1  0  0  0
  9 12  1  0  0  0
 12 13  2  0  0  0
 13 14  1  0  0  0
 14 15  2  0  0  0
 15 16  1  0  0  0
 16 17  2  0  0  0
 17 18  1  0  0  0
 18 19  1  0  0  0
 15 20  1  0  0  0
 20 21  1  0  0  0
  8 10  1  0  0  0
  2 11  1  0  0  0
  6  1  2  0  0  0
 29 25  1  0  0  0
 17 12  1  0  0  0
  9  4  2  0  0  0
 22 23  1  0  0  0
M  END
>  <minimizedAffinity>
-2.75682

>  <minimizedRMSD>
1.83228

$$$$
CHEMBL3702224 PubChem-58300005


 34 38  0  0  0  0  0  0  0  0999 V2000
   13.4174   -7.5753   18.5761 N   0  0  0  0  0  0  0  0  0  0  0  0
   14.0547   -7.0680   19.6622 C   0  0  0  0  0  0  0  0  0  0  0  0
   15.4031   -7.3588   19.6360 C   0  0  0  0  0  0  0  0  0  0  0  0
   16.2685   -6.9427   20.6408 C   0  0  0  0  0  0  0  0  0  0  0  0
   15.7002   -6.2054   21.6947 C   0  0  0  0  0  0  0  0  0  0  0  0
   14.3586   -5.9225   21.7093 N   0  0  0  0  0  0  0  0  0  0  0  0
   13.5154   -6.3355   20.7165 C   0  0  0  0  0  0  0  0  0  0  0  0
   15.6130   -8.0777   18.4832 C   0  0  0  0  0  0  0  0  0  0  0  0
   16.7393   -8.6411   17.9070 C   0  0  0  0  0  0  0  0  0  0  0  0
   16.5756   -9.2989   16.7218 N   0  0  0  0  0  0  0  0  0  0  0  0
   15.3482   -9.4049   16.1127 C   0  0  0  0  0  0  0  0  0  0  0  0
   14.2443   -8.8434   16.6924 N   0  0  0  0  0  0  0  0  0  0  0  0
   14.3922   -8.1884   17.8696 C   0  0  0  0  0  0  0  0  0  0  0  0
   12.0027   -7.4905   18.2130 C   0  0  0  0  0  0  0  0  0  0  0  0
   11.2939   -8.7947   18.5292 C   0  0  0  0  0  0  0  0  0  0  0  0
   11.5296   -5.0425   18.1729 C   0  0  0  0  0  0  0  0  0  0  0  0
   11.3193   -6.3379   18.9332 C   0  0  0  0  0  0  0  0  0  0  0  0
   15.2004  -10.0994   14.8684 N   0  0  0  0  0  0  0  0  0  0  0  0
   14.5326  -10.8223   14.8395 H   0  0  0  0  0  0  0  0  0  0  0  0
   15.9298   -9.8442   13.6622 C   0  0  0  0  0  0  0  0  0  0  0  0
   17.2902   -9.8310   13.6437 N   0  0  0  0  0  0  0  0  0  0  0  0
   17.9715   -9.5935   12.5210 N   0  0  0  0  0  0  0  0  0  0  0  0
   17.3400   -9.3545   11.3383 C   0  0  0  0  0  0  0  0  0  0  0  0
   15.9413   -9.3550   11.3092 C   0  0  0  0  0  0  0  0  0  0  0  0
   15.2321   -9.6028   12.4812 C   0  0  0  0  0  0  0  0  0  0  0  0
   18.1038   -9.0943   10.1494 N   0  0  0  0  0  0  0  0  0  0  0  0
   19.3776   -8.3892   10.2317 C   0  0  0  0  0  0  0  0  0  0  0  0
   19.4707   -7.3950    9.0826 C   0  0  0  0  0  0  0  0  0  0  0  0
   19.2721   -8.0791    7.8010 N   0  0  0  0  0  0  0  0  0  0  0  0
   17.9405   -8.6988    7.7249 C   0  0  0  0  0  0  0  0  0  0  0  0
   17.7381   -9.6974    8.8686 C   0  0  0  0  0  0  0  0  0  0  0  0
   17.8344   -9.4540    6.4171 C   0  0  0  0  0  0  0  0  0  0  0  0
   16.8466   -7.6395    7.7467 C   0  0  0  0  0  0  0  0  0  0  0  0
   19.9820   -8.8042    7.6983 H   0  0  0  0  0  0  0  0  0  0  0  0
 16 17  1  0  0  0
 14 17  1  0  0  0
 14 15  1  0  0  0
 14  1  1  0  0  0
  1  2  1  0  0  0
  2  3  2  0  0  0
  3  4  1  0  0  0
  3  8  1  0  0  0
  4  5  2  0  0  0
  5  6  1  0  0  0
  6  7  2  0  0  0
  7  2  1  0  0  0
  8  9  2  0  0  0
  9 10  1  0  0  0
 10 11  2  0  0  0
 11 12  1  0  0  0
 11 18  1  0  0  0
 12 13  2  0  0  0
 13  1  1  0  0  0
 13  8  1  0  0  0
 18 20  1  0  0  0
 20 21  2  0  0  0
 21 22  1  0  0  0
 22 23  2  0  0  0
 23 24  1  0  0  0
 23 26  1  0  0  0
 24 25  2  0  0  0
 25 20  1  0  0  0
 26 27  1  0  0  0
 27 28  1  0  0  0
 28 29  1  0  0  0
 29 30  1  0  0  0
 30 31  1  0  0  0
 30 32  1  0  0  0
 30 33  1  0  0  0
 31 26  1  0  0  0
 18 19  1  0  0  0
 29 34  1  0  0  0
M  END
>  <minimizedAffinity>
-2.74211

>  <minimizedRMSD>
1.60946

$$$$
CHEMBL3621386 PubChem-122191130


 32 34  0  0  0  0  0  0  0  0999 V2000
   15.4199   -8.5739   17.2830 C   0  0  0  0  0  0  0  0  0  0  0  0
   16.4637   -7.9053   17.9358 C   0  0  0  0  0  0  0  0  0  0  0  0
   17.7429   -7.9689   17.3875 C   0  0  0  0  0  0  0  0  0  0  0  0
   17.9559   -8.6651   16.2413 N   0  0  0  0  0  0  0  0  0  0  0  0
   16.9339   -9.3055   15.6152 C   0  0  0  0  0  0  0  0  0  0  0  0
   15.6787   -9.2521   16.1342 N   0  0  0  0  0  0  0  0  0  0  0  0
   17.2297  -10.1860   14.1302 S   0  0  0  0  0  0  0  0  0  0  0  0
   18.5555   -9.7682   13.5582 O   0  0  0  0  0  0  0  0  0  0  0  0
   17.2663  -11.6595   14.4249 O   0  0  0  0  0  0  0  0  0  0  0  0
   15.9272   -9.8271   12.9667 C   0  0  0  0  0  0  0  0  0  0  0  0
   16.4579   -9.7723   11.5755 C   0  0  0  0  0  0  0  0  0  0  0  0
   16.0722  -10.6195   10.7262 O   0  0  0  0  0  0  0  0  0  0  0  0
   17.3877   -8.7394   11.2255 N   0  0  0  0  0  0  0  0  0  0  0  0
   17.6212   -8.0970   11.9340 H   0  0  0  0  0  0  0  0  0  0  0  0
   18.0131   -8.5452    9.9498 C   0  0  0  0  0  0  0  0  0  0  0  0
   19.2854   -7.9639    9.9050 C   0  0  0  0  0  0  0  0  0  0  0  0
   19.9282   -7.7608    8.6800 C   0  0  0  0  0  0  0  0  0  0  0  0
   19.3008   -8.1397    7.4903 C   0  0  0  0  0  0  0  0  0  0  0  0
   18.0309   -8.7217    7.5259 C   0  0  0  0  0  0  0  0  0  0  0  0
   17.2435   -9.1974    6.0373 Cl  0  0  0  0  0  0  0  0  0  0  0  0
   17.3894   -8.9241    8.7510 C   0  0  0  0  0  0  0  0  0  0  0  0
   14.1067   -8.5376   17.7697 O   0  0  0  0  0  0  0  0  0  0  0  0
   15.1817   -8.1054   20.4569 C   0  0  0  0  0  0  0  0  0  0  0  0
   14.1061   -7.2597   19.8665 C   0  0  0  0  0  0  0  0  0  0  0  0
   13.5661   -6.2312   20.6440 C   0  0  0  0  0  0  0  0  0  0  0  0
   12.5152   -5.4539   20.1541 C   0  0  0  0  0  0  0  0  0  0  0  0
   11.9865   -5.7140   18.8887 C   0  0  0  0  0  0  0  0  0  0  0  0
   12.5138   -6.7425   18.1032 C   0  0  0  0  0  0  0  0  0  0  0  0
   11.9297   -6.9932   16.7559 C   0  0  0  0  0  0  0  0  0  0  0  0
   13.5908   -7.5123   18.5764 C   0  0  0  0  0  0  0  0  0  0  0  0
   11.9690   -4.3970   20.9572 C   0  0  0  0  0  0  0  0  0  0  0  0
   11.5286   -3.5449   21.6047 N   0  0  0  0  0  0  0  0  0  0  0  0
 23 24  1  0  0  0
 24 25  2  0  0  0
 25 26  1  0  0  0
 26 31  1  0  0  0
 31 32  3  0  0  0
 26 27  2  0  0  0
 27 28  1  0  0  0
 28 29  1  0  0  0
 28 30  2  0  0  0
 30 22  1  0  0  0
 22  1  1  0  0  0
  1  2  2  0  0  0
  2  3  1  0  0  0
  3  4  2  0  0  0
  4  5  1  0  0  0
  5  7  1  0  0  0
  7  8  2  0  0  0
  7  9  2  0  0  0
  7 10  1  0  0  0
 10 11  1  0  0  0
 11 12  2  0  0  0
 11 13  1  0  0  0
 13 15  1  0  0  0
 15 16  2  0  0  0
 16 17  1  0  0  0
 17 18  2  0  0  0
 18 19  1  0  0  0
 19 20  1  0  0  0
 19 21  2  0  0  0
  5  6  2  0  0  0
 30 24  1  0  0  0
  6  1  1  0  0  0
 21 15  1  0  0  0
 13 14  1  0  0  0
M  END
>  <minimizedAffinity>
-2.69993

>  <minimizedRMSD>
1.81394

$$$$
CHEMBL4534069 PubChem-135335491


 31 34  0  0  0  0  0  0  0  0999 V2000
   15.9277   -8.9702   14.5360 C   0  0  0  0  0  0  0  0  0  0  0  0
   15.1498   -8.0700   15.2950 C   0  0  0  0  0  0  0  0  0  0  0  0
   15.2797   -8.1013   16.6804 C   0  0  0  0  0  0  0  0  0  0  0  0
   14.6190   -7.3193   17.5508 N   0  0  0  0  0  0  0  0  0  0  0  0
   15.0891   -7.7326   18.7550 C   0  0  0  0  0  0  0  0  0  0  0  0
   16.0242   -8.7550   18.5980 C   0  0  0  0  0  0  0  0  0  0  0  0
   16.1177   -8.9596   17.2771 N   0  0  0  0  0  0  0  0  0  0  0  0
   16.8886   -9.8454   16.6025 C   0  0  0  0  0  0  0  0  0  0  0  0
   16.8014   -9.8613   15.2036 C   0  0  0  0  0  0  0  0  0  0  0  0
   18.6628   -9.8083   11.7765 C   0  0  0  0  0  0  0  0  0  0  0  0
   17.4109   -9.1627   11.2124 C   0  0  0  0  0  0  0  0  0  0  0  0
   16.7959   -8.2448   12.2809 C   0  0  0  0  0  0  0  0  0  0  0  0
   15.8328   -8.9829   13.0991 N   0  0  0  0  0  0  0  0  0  0  0  0
   14.7998   -9.7738   12.4251 C   0  0  0  0  0  0  0  0  0  0  0  0
   15.0875   -9.8587   10.9296 C   0  0  0  0  0  0  0  0  0  0  0  0
   16.4940  -10.2130   10.7221 N   0  0  0  0  0  0  0  0  0  0  0  0
   16.7386  -10.3826    9.0105 S   0  0  0  0  0  0  0  0  0  0  0  0
   15.8518   -9.4148    8.2781 O   0  0  0  0  0  0  0  0  0  0  0  0
   16.3881  -11.7813    8.5866 O   0  0  0  0  0  0  0  0  0  0  0  0
   18.4358  -10.0538    8.5827 C   0  0  0  0  0  0  0  0  0  0  0  0
   14.6609   -7.1680   20.0571 C   0  0  0  0  0  0  0  0  0  0  0  0
   15.5123   -7.3062   21.1633 C   0  0  0  0  0  0  0  0  0  0  0  0
   15.1618   -6.7948   22.4135 C   0  0  0  0  0  0  0  0  0  0  0  0
   13.9417   -6.1296   22.5822 C   0  0  0  0  0  0  0  0  0  0  0  0
   13.0838   -5.9864   21.4828 C   0  0  0  0  0  0  0  0  0  0  0  0
   13.4275   -6.4974   20.2204 C   0  0  0  0  0  0  0  0  0  0  0  0
   16.2698   -6.9998   23.7583 Cl  0  0  0  0  0  0  0  0  0  0  0  0
   12.5567   -6.3440   19.1347 O   0  0  0  0  0  0  0  0  0  0  0  0
   11.9868   -5.0939   18.7707 C   0  0  0  0  0  0  0  0  0  0  0  0
   13.5998   -5.6207   23.8401 O   0  0  0  0  0  0  0  0  0  0  0  0
   12.4129   -4.8738   24.0713 C   0  0  0  0  0  0  0  0  0  0  0  0
 10 11  1  0  0  0
 11 12  1  0  0  0
 12 13  1  0  0  0
 13 14  1  0  0  0
 14 15  1  0  0  0
 15 16  1  0  0  0
 16 17  1  0  0  0
 17 18  2  0  0  0
 17 19  2  0  0  0
 17 20  1  0  0  0
 13  1  1  0  0  0
  1  2  2  0  0  0
  2  3  1  0  0  0
  3  4  2  0  0  0
  4  5  1  0  0  0
  5  6  2  0  0  0
  6  7  1  0  0  0
  7  8  1  0  0  0
  8  9  2  0  0  0
  5 21  1  0  0  0
 21 22  2  0  0  0
 22 23  1  0  0  0
 23 24  2  0  0  0
 24 25  1  0  0  0
 25 26  2  0  0  0
 26 28  1  0  0  0
 28 29  1  0  0  0
 24 30  1  0  0  0
 30 31  1  0  0  0
 23 27  1  0  0  0
 16 11  1  0  0  0
  9  1  1  0  0  0
  7  3  1  0  0  0
 26 21  1  0  0  0
M  END
>  <minimizedAffinity>
-2.60268

>  <minimizedRMSD>
1.50452

$$$$
CHEMBL3900198 PubChem-118022999


 35 39  0  0  0  0  0  0  0  0999 V2000
   14.6553   -7.4953   18.3050 C   0  0  0  0  0  0  0  0  0  0  0  0
   14.6619   -7.5944   16.9478 N   0  0  0  0  0  0  0  0  0  0  0  0
   15.5968   -8.3348   16.2957 C   0  0  0  0  0  0  0  0  0  0  0  0
   16.5486   -8.9949   17.0096 N   0  0  0  0  0  0  0  0  0  0  0  0
   16.5818   -8.9255   18.3653 C   0  0  0  0  0  0  0  0  0  0  0  0
   15.6307   -8.1702   19.0468 C   0  0  0  0  0  0  0  0  0  0  0  0
   10.8361   -4.4902   18.9015 C   0  0  0  0  0  0  0  0  0  0  0  0
   11.9767   -5.3892   19.2280 C   0  0  0  0  0  0  0  0  0  0  0  0
   12.7362   -6.0042   18.3064 N   0  0  0  0  0  0  0  0  0  0  0  0
   13.6534   -6.7045   18.9584 N   0  0  0  0  0  0  0  0  0  0  0  0
   13.5091   -6.5556   20.2941 C   0  0  0  0  0  0  0  0  0  0  0  0
   12.4278   -5.7204   20.4875 C   0  0  0  0  0  0  0  0  0  0  0  0
   11.9165   -5.2203   21.7966 C   0  0  0  0  0  0  0  0  0  0  0  0
   13.0280   -4.8104   22.6401 N   0  0  0  0  0  0  0  0  0  0  0  0
   12.5401   -3.7552   23.5130 C   0  0  0  0  0  0  0  0  0  0  0  0
   13.1808   -4.0023   24.8392 C   0  0  0  0  0  0  0  0  0  0  0  0
   13.8575   -5.3246   24.6161 C   0  0  0  0  0  0  0  0  0  0  0  0
   13.3350   -5.8737   23.4353 O   0  0  0  0  0  0  0  0  0  0  0  0
   14.1442   -3.0247   25.0836 O   0  0  0  0  0  0  0  0  0  0  0  0
   14.7817   -3.0090   24.3526 H   0  0  0  0  0  0  0  0  0  0  0  0
   15.5553   -8.4063   14.8641 N   0  0  0  0  0  0  0  0  0  0  0  0
   14.8049   -7.9431   14.4264 H   0  0  0  0  0  0  0  0  0  0  0  0
   16.4813   -9.0749   13.9963 C   0  0  0  0  0  0  0  0  0  0  0  0
   16.1924   -9.1247   12.6196 C   0  0  0  0  0  0  0  0  0  0  0  0
   17.0978   -9.7733   11.7809 C   0  0  0  0  0  0  0  0  0  0  0  0
   18.2415  -10.3506   12.2620 C   0  0  0  0  0  0  0  0  0  0  0  0
   18.5643  -10.3222   13.6181 C   0  0  0  0  0  0  0  0  0  0  0  0
   17.6679   -9.6749   14.4860 C   0  0  0  0  0  0  0  0  0  0  0  0
   18.9415  -10.9068   11.2588 N   0  0  0  0  0  0  0  0  0  0  0  0
   18.2520  -10.6924   10.1149 C   0  0  0  0  0  0  0  0  0  0  0  0
   17.0880   -9.9819   10.4129 C   0  0  0  0  0  0  0  0  0  0  0  0
   20.2071  -11.6124   11.3625 C   0  0  0  0  0  0  0  0  0  0  0  0
   16.0630   -9.5506    9.4474 C   0  0  0  0  0  0  0  0  0  0  0  0
   14.8560   -9.8673    9.6156 O   0  0  0  0  0  0  0  0  0  0  0  0
   16.4389   -8.7357    8.2589 C   0  0  0  0  0  0  0  0  0  0  0  0
  7  8  1  0  0  0
  8  9  2  0  0  0
  9 10  1  0  0  0
 10 11  1  0  0  0
 11 12  2  0  0  0
 12 13  1  0  0  0
 13 14  1  0  0  0
 14 15  1  0  0  0
 15 16  1  0  0  0
 16 17  1  0  0  0
 17 18  1  0  0  0
 16 19  1  0  0  0
 10  1  1  0  0  0
  1  2  2  0  0  0
  2  3  1  0  0  0
  3  4  2  0  0  0
  4  5  1  0  0  0
  5  6  2  0  0  0
  3 21  1  0  0  0
 21 23  1  0  0  0
 23 24  2  0  0  0
 24 25  1  0  0  0
 25 26  2  0  0  0
 26 27  1  0  0  0
 27 28  2  0  0  0
 26 29  1  0  0  0
 29 30  1  0  0  0
 30 31  2  0  0  0
 31 33  1  0  0  0
 33 34  2  0  0  0
 33 35  1  0  0  0
 29 32  1  0  0  0
 12  8  1  0  0  0
 18 14  1  0  0  0
  6  1  1  0  0  0
 28 23  1  0  0  0
 31 25  1  0  0  0
 19 20  1  0  0  0
 21 22  1  0  0  0
M  END
>  <minimizedAffinity>
-2.58279

>  <minimizedRMSD>
1.69559

$$$$
CHEMBL1287848 PubChem-11538121 PubChem-143433974


 29 32  0  0  0  0  0  0  0  0999 V2000
   17.2201  -10.2890   15.9226 C   0  0  0  0  0  0  0  0  0  0  0  0
   17.3917  -10.3862   17.3157 C   0  0  0  0  0  0  0  0  0  0  0  0
   16.6389   -9.6244   18.1602 N   0  0  0  0  0  0  0  0  0  0  0  0
   15.7245   -8.7741   17.6323 C   0  0  0  0  0  0  0  0  0  0  0  0
   15.5421   -8.6652   16.3091 N   0  0  0  0  0  0  0  0  0  0  0  0
   16.2647   -9.3984   15.4151 C   0  0  0  0  0  0  0  0  0  0  0  0
   14.6092   -7.7606   16.0577 N   0  0  0  0  0  0  0  0  0  0  0  0
   14.1821   -7.2945   17.2553 C   0  0  0  0  0  0  0  0  0  0  0  0
   14.8672   -7.9253   18.2954 C   0  0  0  0  0  0  0  0  0  0  0  0
   13.2013   -6.1822   17.3899 C   0  0  0  0  0  0  0  0  0  0  0  0
   18.4006  -11.3256   17.8702 C   0  0  0  0  0  0  0  0  0  0  0  0
   14.7856   -7.6809   19.7504 C   0  0  0  0  0  0  0  0  0  0  0  0
   15.9330   -7.2283   20.4159 C   0  0  0  0  0  0  0  0  0  0  0  0
   15.9080   -6.9764   21.7890 C   0  0  0  0  0  0  0  0  0  0  0  0
   14.7368   -7.1796   22.5215 C   0  0  0  0  0  0  0  0  0  0  0  0
   13.5893   -7.6513   21.8669 C   0  0  0  0  0  0  0  0  0  0  0  0
   13.6044   -7.9046   20.4919 C   0  0  0  0  0  0  0  0  0  0  0  0
   12.3744   -8.4757   19.8718 C   0  0  0  0  0  0  0  0  0  0  0  0
   14.7416   -6.9134   23.8934 O   0  0  0  0  0  0  0  0  0  0  0  0
   14.1652   -5.7397   24.4496 C   0  0  0  0  0  0  0  0  0  0  0  0
   16.0875   -9.2933   13.9972 N   0  0  0  0  0  0  0  0  0  0  0  0
   15.1688   -9.1954   13.6571 H   0  0  0  0  0  0  0  0  0  0  0  0
   17.1682   -9.3211   13.0253 C   0  0  0  0  0  0  0  0  0  0  0  0
   16.6238   -9.6644   11.6850 C   0  0  0  0  0  0  0  0  0  0  0  0
   17.2789   -9.4450   10.5293 N   0  0  0  0  0  0  0  0  0  0  0  0
   16.3965   -9.9387    9.6372 C   0  0  0  0  0  0  0  0  0  0  0  0
   15.2839  -10.4286   10.2156 N   0  0  0  0  0  0  0  0  0  0  0  0
   15.4650  -10.2415   11.4871 O   0  0  0  0  0  0  0  0  0  0  0  0
   16.6296   -9.9452    8.1689 C   0  0  0  0  0  0  0  0  0  0  0  0
  1  2  1  0  0  0
  2  3  2  0  0  0
  3  4  1  0  0  0
  4  5  1  0  0  0
  5  6  1  0  0  0
  6 21  1  0  0  0
 21 23  1  0  0  0
 23 24  1  0  0  0
 24 25  2  0  0  0
 25 26  1  0  0  0
 26 27  2  0  0  0
 27 28  1  0  0  0
 26 29  1  0  0  0
  5  7  1  0  0  0
  7  8  2  0  0  0
  8  9  1  0  0  0
  9 12  1  0  0  0
 12 13  2  0  0  0
 13 14  1  0  0  0
 14 15  2  0  0  0
 15 16  1  0  0  0
 16 17  2  0  0  0
 17 18  1  0  0  0
 15 19  1  0  0  0
 19 20  1  0  0  0
  8 10  1  0  0  0
  2 11  1  0  0  0
  6  1  2  0  0  0
 28 24  1  0  0  0
 17 12  1  0  0  0
  9  4  2  0  0  0
 21 22  1  0  0  0
M  END
>  <minimizedAffinity>
-2.53672

>  <minimizedRMSD>
1.73401

$$$$
CHEMBL189848 PubChem-158660685 PubChem-5330290


 33 37  0  0  0  0  0  0  0  0999 V2000
   17.4195   -6.5675   21.1006 C   0  0  0  0  0  0  0  0  0  0  0  0
   16.0066   -6.7583   20.6417 C   0  0  0  0  0  0  0  0  0  0  0  0
   14.9460   -6.2214   21.3841 C   0  0  0  0  0  0  0  0  0  0  0  0
   15.2766   -5.2321   23.0016 Br  0  0  0  0  0  0  0  0  0  0  0  0
   13.6264   -6.4074   20.9431 C   0  0  0  0  0  0  0  0  0  0  0  0
   12.6784   -5.9196   21.6197 O   0  0  0  0  0  0  0  0  0  0  0  0
   13.3624   -7.1082   19.7941 N   0  0  0  0  0  0  0  0  0  0  0  0
   14.3915   -7.6417   19.0533 C   0  0  0  0  0  0  0  0  0  0  0  0
   14.1397   -8.3394   17.9100 N   0  0  0  0  0  0  0  0  0  0  0  0
   15.1386   -8.8753   17.1624 C   0  0  0  0  0  0  0  0  0  0  0  0
   16.4305   -8.7178   17.5554 N   0  0  0  0  0  0  0  0  0  0  0  0
   16.7406   -8.0327   18.6845 C   0  0  0  0  0  0  0  0  0  0  0  0
   15.7273   -7.4728   19.4690 C   0  0  0  0  0  0  0  0  0  0  0  0
   11.9540   -7.2647   19.3921 C   0  0  0  0  0  0  0  0  0  0  0  0
   11.4546   -8.6900   19.5686 C   0  0  0  0  0  0  0  0  0  0  0  0
   10.7553   -9.0610   18.2728 C   0  0  0  0  0  0  0  0  0  0  0  0
   10.6015   -7.7780   17.4802 C   0  0  0  0  0  0  0  0  0  0  0  0
   11.7191   -6.8743   17.9462 C   0  0  0  0  0  0  0  0  0  0  0  0
   14.8048   -9.5984   15.9700 N   0  0  0  0  0  0  0  0  0  0  0  0
   14.0287  -10.2012   16.0296 H   0  0  0  0  0  0  0  0  0  0  0  0
   15.4705   -9.5455   14.7001 C   0  0  0  0  0  0  0  0  0  0  0  0
   16.8293   -9.2250   14.5898 C   0  0  0  0  0  0  0  0  0  0  0  0
   17.4286   -9.1873   13.3311 C   0  0  0  0  0  0  0  0  0  0  0  0
   16.6787   -9.4700   12.1817 C   0  0  0  0  0  0  0  0  0  0  0  0
   15.3208   -9.7829   12.3367 C   0  0  0  0  0  0  0  0  0  0  0  0
   14.7565   -9.8139   13.5738 N   0  0  0  0  0  0  0  0  0  0  0  0
   17.2830   -9.4264   10.8757 N   0  0  0  0  0  0  0  0  0  0  0  0
   18.6877   -9.0496   10.7146 C   0  0  0  0  0  0  0  0  0  0  0  0
   18.8501   -8.2155    9.4463 C   0  0  0  0  0  0  0  0  0  0  0  0
   18.2995   -8.9383    8.3017 N   0  0  0  0  0  0  0  0  0  0  0  0
   18.4837   -8.0857    7.1420 C   0  0  0  0  0  0  0  0  0  0  0  0
   16.8579   -9.0778    8.4959 C   0  0  0  0  0  0  0  0  0  0  0  0
   16.5801   -9.9619    9.7092 C   0  0  0  0  0  0  0  0  0  0  0  0
  1  2  1  0  0  0
  2  3  2  0  0  0
  3  4  1  0  0  0
  3  5  1  0  0  0
  5  6  2  0  0  0
  5  7  1  0  0  0
  7 14  1  0  0  0
  7  8  1  0  0  0
 14 15  1  0  0  0
 15 16  1  0  0  0
 16 17  1  0  0  0
 17 18  1  0  0  0
 18 14  1  0  0  0
  8  9  2  0  0  0
  9 10  1  0  0  0
 10 19  1  0  0  0
 10 11  2  0  0  0
 19 21  1  0  0  0
 21 22  2  0  0  0
 22 23  1  0  0  0
 23 24  2  0  0  0
 24 27  1  0  0  0
 24 25  1  0  0  0
 27 28  1  0  0  0
 28 29  1  0  0  0
 29 30  1  0  0  0
 30 31  1  0  0  0
 30 32  1  0  0  0
 32 33  1  0  0  0
 33 27  1  0  0  0
 25 26  2  0  0  0
 26 21  1  0  0  0
 11 12  1  0  0  0
 12 13  2  0  0  0
 13  2  1  0  0  0
 13  8  1  0  0  0
 19 20  1  0  0  0
M  END
>  <minimizedAffinity>
-2.51444

>  <minimizedRMSD>
1.91200

$$$$
CHEMBL2297364 PubChem-23658891


 34 36  0  0  0  0  0  0  0  0999 V2000
   15.1496   -8.6632   18.8702 C   0  0  0  0  0  0  0  0  0  0  0  0
   15.4178   -8.4489   17.5760 C   0  0  0  0  0  0  0  0  0  0  0  0
   15.1362   -7.1217   16.9167 C   0  0  0  0  0  0  0  0  0  0  0  0
   14.9058   -7.2960   15.4816 N   0  0  0  0  0  0  0  0  0  0  0  0
   16.1359   -7.7974   14.8698 C   0  0  0  0  0  0  0  0  0  0  0  0
   16.4390   -9.1828   15.3749 C   0  0  0  0  0  0  0  0  0  0  0  0
   16.8838  -10.1531   14.5668 C   0  0  0  0  0  0  0  0  0  0  0  0
   16.1278   -9.4753   16.7869 C   0  0  0  0  0  0  0  0  0  0  0  0
   16.4405  -10.5852   17.3010 O   0  0  0  0  0  0  0  0  0  0  0  0
   14.6536   -6.4009   15.0627 H   0  0  0  0  0  0  0  0  0  0  0  0
   13.0443   -6.0280   21.5353 C   0  0  0  0  0  0  0  0  0  0  0  0
   12.3531   -6.7861   20.5952 C   0  0  0  0  0  0  0  0  0  0  0  0
   13.0331   -7.6406   19.7163 C   0  0  0  0  0  0  0  0  0  0  0  0
   14.4449   -7.7179   19.7627 C   0  0  0  0  0  0  0  0  0  0  0  0
   15.1526   -6.9587   20.7369 C   0  0  0  0  0  0  0  0  0  0  0  0
   14.4374   -6.1281   21.6043 C   0  0  0  0  0  0  0  0  0  0  0  0
   11.7444   -3.9668   21.9602 C   0  0  0  0  0  0  0  0  0  0  0  0
   12.3249   -5.1901   22.3916 O   0  0  0  0  0  0  0  0  0  0  0  0
   12.3193   -8.4386   18.8122 O   0  0  0  0  0  0  0  0  0  0  0  0
   11.0490   -8.0711   18.2909 C   0  0  0  0  0  0  0  0  0  0  0  0
   16.5482   -6.9709   20.9026 O   0  0  0  0  0  0  0  0  0  0  0  0
   17.2576   -6.4157   22.0008 C   0  0  0  0  0  0  0  0  0  0  0  0
   17.2481   -9.9813   13.1440 C   0  0  0  0  0  0  0  0  0  0  0  0
   18.5973   -9.9478   12.7284 C   0  0  0  0  0  0  0  0  0  0  0  0
   18.8967   -9.7923   11.3661 C   0  0  0  0  0  0  0  0  0  0  0  0
   17.8816   -9.6947   10.4153 C   0  0  0  0  0  0  0  0  0  0  0  0
   16.5459   -9.7664   10.8286 C   0  0  0  0  0  0  0  0  0  0  0  0
   16.2201   -9.9178   12.1848 C   0  0  0  0  0  0  0  0  0  0  0  0
   19.6229  -10.0962   13.6707 O   0  0  0  0  0  0  0  0  0  0  0  0
   19.5016   -9.6637   15.0191 C   0  0  0  0  0  0  0  0  0  0  0  0
   18.2262   -9.5354    9.0703 O   0  0  0  0  0  0  0  0  0  0  0  0
   17.2565   -9.4188    8.0379 C   0  0  0  0  0  0  0  0  0  0  0  0
   14.8835   -9.9945   12.5967 O   0  0  0  0  0  0  0  0  0  0  0  0
   13.8157  -10.2752   11.7019 C   0  0  0  0  0  0  0  0  0  0  0  0
 17 18  1  0  0  0
 18 11  1  0  0  0
 11 12  2  0  0  0
 12 13  1  0  0  0
 13 19  1  0  0  0
 13 14  2  0  0  0
 19 20  1  0  0  0
 14  1  1  0  0  0
 14 15  1  0  0  0
  1  2  2  0  0  0
  2  3  1  0  0  0
  3  4  1  0  0  0
  4  5  1  0  0  0
  5  6  1  0  0  0
  6  7  2  0  0  0
  6  8  1  0  0  0
  7 23  1  0  0  0
 23 24  2  0  0  0
 24 29  1  0  0  0
 24 25  1  0  0  0
 29 30  1  0  0  0
 25 26  2  0  0  0
 26 31  1  0  0  0
 26 27  1  0  0  0
 31 32  1  0  0  0
 27 28  2  0  0  0
 28 33  1  0  0  0
 28 23  1  0  0  0
 33 34  1  0  0  0
  8  9  2  0  0  0
  8  2  1  0  0  0
 15 21  1  0  0  0
 15 16  2  0  0  0
 21 22  1  0  0  0
 16 11  1  0  0  0
  4 10  1  0  0  0
M  END
>  <minimizedAffinity>
-2.46425

>  <minimizedRMSD>
1.49641

$$$$
CHEMBL417496 PubChem-44281035


 32 34  0  0  0  0  0  0  0  0999 V2000
   16.4811   -8.2215   15.5647 C   0  0  0  0  0  0  0  0  0  0  0  0
   16.7488   -7.0287   15.2515 O   0  0  0  0  0  0  0  0  0  0  0  0
   16.8285   -9.3428   14.6366 C   0  0  0  0  0  0  0  0  0  0  0  0
   15.9081  -10.5553   14.8348 C   0  0  0  0  0  0  0  0  0  0  0  0
   14.5537  -10.3304   14.1825 C   0  0  0  0  0  0  0  0  0  0  0  0
   14.7584  -10.0294   12.7106 C   0  0  0  0  0  0  0  0  0  0  0  0
   15.6160   -8.7742   12.5607 C   0  0  0  0  0  0  0  0  0  0  0  0
   16.9202   -8.8844   13.2376 N   0  0  0  0  0  0  0  0  0  0  0  0
   18.0013   -9.9097   12.3355 S   0  0  0  0  0  0  0  0  0  0  0  0
   17.5217  -11.3349   12.3741 O   0  0  0  0  0  0  0  0  0  0  0  0
   19.3779   -9.8429   12.9349 O   0  0  0  0  0  0  0  0  0  0  0  0
   18.0814   -9.3604   10.6704 C   0  0  0  0  0  0  0  0  0  0  0  0
   19.0785   -8.4584   10.2834 C   0  0  0  0  0  0  0  0  0  0  0  0
   19.1467   -8.0146    8.9594 C   0  0  0  0  0  0  0  0  0  0  0  0
   18.2179   -8.4723    8.0199 C   0  0  0  0  0  0  0  0  0  0  0  0
   18.2902   -8.0002    6.6128 C   0  0  0  0  0  0  0  0  0  0  0  0
   17.2214   -9.3745    8.4040 C   0  0  0  0  0  0  0  0  0  0  0  0
   17.1530   -9.8182    9.7280 C   0  0  0  0  0  0  0  0  0  0  0  0
   15.8211   -8.5107   16.7588 O   0  0  0  0  0  0  0  0  0  0  0  0
   15.5815   -7.5093   17.7380 C   0  0  0  0  0  0  0  0  0  0  0  0
   14.9879   -8.1296   18.9963 C   0  0  0  0  0  0  0  0  0  0  0  0
   13.4620   -8.0817   19.0024 C   0  0  0  0  0  0  0  0  0  0  0  0
   12.6965   -5.5877   21.7675 C   0  0  0  0  0  0  0  0  0  0  0  0
   13.1856   -6.7180   21.0934 C   0  0  0  0  0  0  0  0  0  0  0  0
   12.9425   -6.8838   19.7258 C   0  0  0  0  0  0  0  0  0  0  0  0
   12.2044   -5.9234   19.0289 C   0  0  0  0  0  0  0  0  0  0  0  0
   11.7129   -4.7926   19.6866 C   0  0  0  0  0  0  0  0  0  0  0  0
   11.9628   -4.6305   21.0592 C   0  0  0  0  0  0  0  0  0  0  0  0
   14.0808   -5.8838   23.7954 C   0  0  0  0  0  0  0  0  0  0  0  0
   12.9242   -5.3922   23.1322 O   0  0  0  0  0  0  0  0  0  0  0  0
   10.9837   -3.8503   18.9565 O   0  0  0  0  0  0  0  0  0  0  0  0
    9.8283   -3.2052   19.4741 C   0  0  0  0  0  0  0  0  0  0  0  0
 29 30  1  0  0  0
 30 23  1  0  0  0
 23 24  2  0  0  0
 24 25  1  0  0  0
 25 22  1  0  0  0
 25 26  2  0  0  0
 22 21  1  0  0  0
 21 20  1  0  0  0
 20 19  1  0  0  0
 19  1  1  0  0  0
  1  2  2  0  0  0
  3  1  1  0  0  0
  3  4  1  0  0  0
  4  5  1  0  0  0
  5  6  1  0  0  0
  6  7  1  0  0  0
  7  8  1  0  0  0
  8  9  1  0  0  0
  8  3  1  0  0  0
  9 10  2  0  0  0
  9 11  2  0  0  0
  9 12  1  0  0  0
 12 13  2  0  0  0
 13 14  1  0  0  0
 14 15  2  0  0  0
 15 16  1  0  0  0
 15 17  1  0  0  0
 17 18  2  0  0  0
 18 12  1  0  0  0
 26 27  1  0  0  0
 27 31  1  0  0  0
 27 28  2  0  0  0
 31 32  1  0  0  0
 28 23  1  0  0  0
M  END
>  <minimizedAffinity>
-2.44104

>  <minimizedRMSD>
1.99243

$$$$
CHEMBL1814586 PubChem-20416739


 34 36  0  0  0  0  0  0  0  0999 V2000
   16.9860  -10.0309   13.9098 C   0  0  0  0  0  0  0  0  0  0  0  0
   16.4657   -9.1299   14.7582 C   0  0  0  0  0  0  0  0  0  0  0  0
   16.0623   -7.7406   14.3327 C   0  0  0  0  0  0  0  0  0  0  0  0
   16.1781   -6.8008   15.4487 N   0  0  0  0  0  0  0  0  0  0  0  0
   15.2214   -7.1892   16.4837 C   0  0  0  0  0  0  0  0  0  0  0  0
   15.6051   -8.5218   17.0686 C   0  0  0  0  0  0  0  0  0  0  0  0
   15.5220   -8.7728   18.3814 C   0  0  0  0  0  0  0  0  0  0  0  0
   16.1830   -9.5257   16.1542 C   0  0  0  0  0  0  0  0  0  0  0  0
   16.4497  -10.6904   16.5625 O   0  0  0  0  0  0  0  0  0  0  0  0
   15.9706   -5.8558   15.1256 H   0  0  0  0  0  0  0  0  0  0  0  0
   18.0476   -9.7673    9.7505 C   0  0  0  0  0  0  0  0  0  0  0  0
   19.0316   -9.7547   10.7420 C   0  0  0  0  0  0  0  0  0  0  0  0
   18.6781   -9.8147   12.0831 C   0  0  0  0  0  0  0  0  0  0  0  0
   17.3367   -9.8700   12.4769 C   0  0  0  0  0  0  0  0  0  0  0  0
   16.3213   -9.8598   11.4805 C   0  0  0  0  0  0  0  0  0  0  0  0
   16.6918   -9.8308   10.1069 C   0  0  0  0  0  0  0  0  0  0  0  0
   18.7361   -8.5107    7.7286 C   0  0  0  0  0  0  0  0  0  0  0  0
   18.3933   -9.7185    8.3947 O   0  0  0  0  0  0  0  0  0  0  0  0
   14.9563   -9.8931   11.8104 O   0  0  0  0  0  0  0  0  0  0  0  0
   13.9282  -10.3475   10.9407 C   0  0  0  0  0  0  0  0  0  0  0  0
   15.7609   -9.8500    9.0528 O   0  0  0  0  0  0  0  0  0  0  0  0
   15.5285   -8.7885    8.1381 C   0  0  0  0  0  0  0  0  0  0  0  0
   14.9468   -7.8624   19.3895 C   0  0  0  0  0  0  0  0  0  0  0  0
   15.7861   -7.4322   20.4126 C   0  0  0  0  0  0  0  0  0  0  0  0
   15.3110   -6.5847   21.4040 C   0  0  0  0  0  0  0  0  0  0  0  0
   13.9798   -6.1500   21.4009 C   0  0  0  0  0  0  0  0  0  0  0  0
   13.0979   -6.5981   20.3817 C   0  0  0  0  0  0  0  0  0  0  0  0
   13.5855   -7.4869   19.3822 C   0  0  0  0  0  0  0  0  0  0  0  0
   13.5316   -5.2845   22.4063 O   0  0  0  0  0  0  0  0  0  0  0  0
   13.7441   -5.5250   23.7914 C   0  0  0  0  0  0  0  0  0  0  0  0
   11.7528   -6.1922   20.3257 O   0  0  0  0  0  0  0  0  0  0  0  0
   11.2704   -5.0059   19.7105 C   0  0  0  0  0  0  0  0  0  0  0  0
   12.7636   -8.0404   18.3822 O   0  0  0  0  0  0  0  0  0  0  0  0
   11.4783   -8.6088   18.5872 C   0  0  0  0  0  0  0  0  0  0  0  0
 17 18  1  0  0  0
 18 11  1  0  0  0
 11 12  2  0  0  0
 12 13  1  0  0  0
 13 14  2  0  0  0
 14  1  1  0  0  0
 14 15  1  0  0  0
  1  2  2  0  0  0
  2  3  1  0  0  0
  3  4  1  0  0  0
  4  5  1  0  0  0
  5  6  1  0  0  0
  6  7  2  0  0  0
  6  8  1  0  0  0
  7 23  1  0  0  0
 23 24  2  0  0  0
 24 25  1  0  0  0
 25 26  2  0  0  0
 26 29  1  0  0  0
 26 27  1  0  0  0
 29 30  1  0  0  0
 27 31  1  0  0  0
 27 28  2  0  0  0
 31 32  1  0  0  0
 28 33  1  0  0  0
 28 23  1  0  0  0
 33 34  1  0  0  0
  8  9  2  0  0  0
  8  2  1  0  0  0
 15 19  1  0  0  0
 15 16  2  0  0  0
 19 20  1  0  0  0
 16 21  1  0  0  0
 16 11  1  0  0  0
 21 22  1  0  0  0
  4 10  1  0  0  0
M  END
>  <minimizedAffinity>
-2.39075

>  <minimizedRMSD>
1.82011

$$$$
CHEMBL3702217 PubChem-58299702


 33 37  0  0  0  0  0  0  0  0999 V2000
   13.5292   -7.4023   18.9817 N   0  0  0  0  0  0  0  0  0  0  0  0
   14.1956   -6.8865   20.0413 C   0  0  0  0  0  0  0  0  0  0  0  0
   15.5420   -7.1813   19.9846 C   0  0  0  0  0  0  0  0  0  0  0  0
   16.4317   -6.7599   20.9656 C   0  0  0  0  0  0  0  0  0  0  0  0
   15.8899   -6.0129   22.0269 C   0  0  0  0  0  0  0  0  0  0  0  0
   14.5494   -5.7272   22.0715 N   0  0  0  0  0  0  0  0  0  0  0  0
   13.6818   -6.1463   21.1023 C   0  0  0  0  0  0  0  0  0  0  0  0
   15.7208   -7.9150   18.8357 C   0  0  0  0  0  0  0  0  0  0  0  0
   16.8298   -8.4945   18.2418 C   0  0  0  0  0  0  0  0  0  0  0  0
   16.6335   -9.1716   17.0724 N   0  0  0  0  0  0  0  0  0  0  0  0
   15.3907   -9.2824   16.4965 C   0  0  0  0  0  0  0  0  0  0  0  0
   14.3043   -8.7057   17.0941 N   0  0  0  0  0  0  0  0  0  0  0  0
   14.4847   -8.0296   18.2548 C   0  0  0  0  0  0  0  0  0  0  0  0
   12.0950   -7.2992   18.7118 C   0  0  0  0  0  0  0  0  0  0  0  0
   11.8059   -6.0919   17.8390 C   0  0  0  0  0  0  0  0  0  0  0  0
   10.8481   -9.4322   19.0498 C   0  0  0  0  0  0  0  0  0  0  0  0
   11.5725   -8.5610   18.0417 C   0  0  0  0  0  0  0  0  0  0  0  0
   15.2080   -9.9985   15.2693 N   0  0  0  0  0  0  0  0  0  0  0  0
   14.5300  -10.7123   15.2680 H   0  0  0  0  0  0  0  0  0  0  0  0
   15.9160   -9.7771   14.0437 C   0  0  0  0  0  0  0  0  0  0  0  0
   17.2752   -9.8101   13.9923 N   0  0  0  0  0  0  0  0  0  0  0  0
   17.9365   -9.6043   12.8515 N   0  0  0  0  0  0  0  0  0  0  0  0
   17.2848   -9.3531   11.6823 C   0  0  0  0  0  0  0  0  0  0  0  0
   15.8866   -9.3062   11.6873 C   0  0  0  0  0  0  0  0  0  0  0  0
   15.1982   -9.5209   12.8780 C   0  0  0  0  0  0  0  0  0  0  0  0
   18.0282   -9.1289   10.4728 N   0  0  0  0  0  0  0  0  0  0  0  0
   19.4198   -8.6865   10.5394 C   0  0  0  0  0  0  0  0  0  0  0  0
   19.7029   -7.7162    9.3951 C   0  0  0  0  0  0  0  0  0  0  0  0
   19.3362   -8.3286    8.1197 N   0  0  0  0  0  0  0  0  0  0  0  0
   17.8900   -8.5380    8.1072 C   0  0  0  0  0  0  0  0  0  0  0  0
   17.5010   -9.5556    9.1765 C   0  0  0  0  0  0  0  0  0  0  0  0
   17.4634   -9.0483    6.7471 C   0  0  0  0  0  0  0  0  0  0  0  0
   19.8148   -9.2235    8.0171 H   0  0  0  0  0  0  0  0  0  0  0  0
 16 17  1  0  0  0
 14 17  1  0  0  0
 14 15  1  0  0  0
 14  1  1  0  0  0
  1  2  1  0  0  0
  2  3  2  0  0  0
  3  4  1  0  0  0
  3  8  1  0  0  0
  4  5  2  0  0  0
  5  6  1  0  0  0
  6  7  2  0  0  0
  7  2  1  0  0  0
  8  9  2  0  0  0
  9 10  1  0  0  0
 10 11  2  0  0  0
 11 12  1  0  0  0
 11 18  1  0  0  0
 12 13  2  0  0  0
 13  1  1  0  0  0
 13  8  1  0  0  0
 18 20  1  0  0  0
 20 21  2  0  0  0
 21 22  1  0  0  0
 22 23  2  0  0  0
 23 24  1  0  0  0
 23 26  1  0  0  0
 24 25  2  0  0  0
 25 20  1  0  0  0
 26 27  1  0  0  0
 27 28  1  0  0  0
 28 29  1  0  0  0
 29 30  1  0  0  0
 30 31  1  0  0  0
 30 32  1  0  0  0
 31 26  1  0  0  0
 18 19  1  0  0  0
 29 33  1  0  0  0
M  END
>  <minimizedAffinity>
-2.35634

>  <minimizedRMSD>
1.78894

$$$$
CHEMBL4520292 PubChem-155542095


 37 40  0  0  0  0  0  0  0  0999 V2000
   15.3042   -8.9004   17.2919 C   0  0  0  0  0  0  0  0  0  0  0  0
   16.5617   -8.6309   17.7733 N   0  0  0  0  0  0  0  0  0  0  0  0
   16.7558   -7.8566   18.8808 C   0  0  0  0  0  0  0  0  0  0  0  0
   15.6333   -7.3443   19.5119 C   0  0  0  0  0  0  0  0  0  0  0  0
   14.3962   -7.6159   19.0249 C   0  0  0  0  0  0  0  0  0  0  0  0
   14.2080   -8.3866   17.9253 N   0  0  0  0  0  0  0  0  0  0  0  0
   13.4445   -7.0317   19.7719 N   0  0  0  0  0  0  0  0  0  0  0  0
   14.1162   -6.3824   20.7625 C   0  0  0  0  0  0  0  0  0  0  0  0
   15.5030   -6.5480   20.6301 C   0  0  0  0  0  0  0  0  0  0  0  0
   13.4685   -5.5629   21.8172 C   0  0  0  0  0  0  0  0  0  0  0  0
   12.5546   -4.7584   21.4892 O   0  0  0  0  0  0  0  0  0  0  0  0
   13.8682   -5.6428   23.1977 N   0  0  0  0  0  0  0  0  0  0  0  0
   13.4473   -4.6169   24.1375 C   0  0  0  0  0  0  0  0  0  0  0  0
   14.5461   -6.8103   23.7380 C   0  0  0  0  0  0  0  0  0  0  0  0
   11.9943   -7.1096   19.5886 C   0  0  0  0  0  0  0  0  0  0  0  0
   11.5444   -8.5456   19.3960 C   0  0  0  0  0  0  0  0  0  0  0  0
   10.4491   -8.4850   18.3573 C   0  0  0  0  0  0  0  0  0  0  0  0
   10.7990   -7.3060   17.4766 C   0  0  0  0  0  0  0  0  0  0  0  0
   11.5505   -6.3296   18.3608 C   0  0  0  0  0  0  0  0  0  0  0  0
   15.1138   -9.7161   16.1280 N   0  0  0  0  0  0  0  0  0  0  0  0
   14.5609  -10.5220   16.2465 H   0  0  0  0  0  0  0  0  0  0  0  0
   16.5952   -9.1020   12.1934 C   0  0  0  0  0  0  0  0  0  0  0  0
   17.3087   -8.6004   13.2916 C   0  0  0  0  0  0  0  0  0  0  0  0
   16.8326   -8.7949   14.5908 C   0  0  0  0  0  0  0  0  0  0  0  0
   15.6364   -9.4927   14.8108 C   0  0  0  0  0  0  0  0  0  0  0  0
   14.9269   -9.9925   13.7141 C   0  0  0  0  0  0  0  0  0  0  0  0
   15.4030   -9.7985   12.4140 C   0  0  0  0  0  0  0  0  0  0  0  0
   17.0509   -8.9234   10.8455 N   0  0  0  0  0  0  0  0  0  0  0  0
   18.2794   -9.4042   10.2847 C   0  0  0  0  0  0  0  0  0  0  0  0
   19.1055  -10.0542   10.9790 O   0  0  0  0  0  0  0  0  0  0  0  0
   16.4587   -8.4181   10.2428 H   0  0  0  0  0  0  0  0  0  0  0  0
   18.5976   -9.1034    8.8599 C   0  0  0  0  0  0  0  0  0  0  0  0
   19.0652   -7.6630    8.7003 C   0  0  0  0  0  0  0  0  0  0  0  0
   18.5419   -7.0479    7.4056 C   0  0  0  0  0  0  0  0  0  0  0  0
   18.8093   -7.9151    6.2669 N   0  0  0  0  0  0  0  0  0  0  0  0
   19.7336   -7.6435    5.4368 C   0  0  0  0  0  0  0  0  0  0  0  0
   20.9056   -7.2995    4.3859 S   0  0  0  0  0  0  0  0  0  0  0  0
 28 22  1  0  0  0
 22 23  2  0  0  0
 23 24  1  0  0  0
 24 25  2  0  0  0
 25 20  1  0  0  0
 20  1  1  0  0  0
  1  2  2  0  0  0
  2  3  1  0  0  0
  3  4  2  0  0  0
  4  5  1  0  0  0
  5  6  2  0  0  0
  5  7  1  0  0  0
  7  8  1  0  0  0
  8  9  2  0  0  0
  8 10  1  0  0  0
 10 11  2  0  0  0
 10 12  1  0  0  0
 12 13  1  0  0  0
 12 14  1  0  0  0
  7 15  1  0  0  0
 15 16  1  0  0  0
 16 17  1  0  0  0
 17 18  1  0  0  0
 18 19  1  0  0  0
 25 26  1  0  0  0
 26 27  2  0  0  0
 28 29  1  0  0  0
 29 30  2  0  0  0
 29 32  1  0  0  0
 32 33  1  0  0  0
 33 34  1  0  0  0
 34 35  1  0  0  0
 35 36  2  0  0  0
 36 37  2  0  0  0
 27 22  1  0  0  0
  6  1  1  0  0  0
 19 15  1  0  0  0
  9  4  1  0  0  0
 28 31  1  0  0  0
 20 21  1  0  0  0
M  END
>  <minimizedAffinity>
-2.28878

>  <minimizedRMSD>
1.87698

$$$$
CHEMBL3883551 PubChem-134131499


 36 39  0  0  0  0  0  0  0  0999 V2000
   16.4216   -9.6241   12.3134 N   0  0  0  0  0  0  0  0  0  0  0  0
   15.3935   -9.0102   12.9774 C   0  0  0  0  0  0  0  0  0  0  0  0
   15.5123   -8.6964   14.3104 N   0  0  0  0  0  0  0  0  0  0  0  0
   16.6505   -8.9867   15.0129 C   0  0  0  0  0  0  0  0  0  0  0  0
   17.6794   -9.6121   14.3281 C   0  0  0  0  0  0  0  0  0  0  0  0
   17.5383   -9.9114   13.0223 C   0  0  0  0  0  0  0  0  0  0  0  0
   18.6699  -10.4869   12.6065 N   0  0  0  0  0  0  0  0  0  0  0  0
   19.4885  -10.5216   13.6548 N   0  0  0  0  0  0  0  0  0  0  0  0
   18.9054   -9.9937   14.7343 N   0  0  0  0  0  0  0  0  0  0  0  0
   16.7739   -8.6538   16.3946 N   0  0  0  0  0  0  0  0  0  0  0  0
   17.6184   -8.8396   16.8654 H   0  0  0  0  0  0  0  0  0  0  0  0
   15.7109   -8.0670   17.0896 N   0  0  0  0  0  0  0  0  0  0  0  0
   15.6927   -8.0856   18.3817 C   0  0  0  0  0  0  0  0  0  0  0  0
   14.5926   -7.4795   19.1384 C   0  0  0  0  0  0  0  0  0  0  0  0
   14.8412   -6.9768   20.4131 C   0  0  0  0  0  0  0  0  0  0  0  0
   13.8127   -6.3905   21.1654 C   0  0  0  0  0  0  0  0  0  0  0  0
   12.5132   -6.3047   20.6354 C   0  0  0  0  0  0  0  0  0  0  0  0
   12.2551   -6.8154   19.3372 C   0  0  0  0  0  0  0  0  0  0  0  0
   13.3034   -7.3969   18.6066 C   0  0  0  0  0  0  0  0  0  0  0  0
   10.9716   -6.7443   18.7830 O   0  0  0  0  0  0  0  0  0  0  0  0
   10.4441   -7.7419   17.9184 C   0  0  0  0  0  0  0  0  0  0  0  0
   11.5280   -5.7062   21.4391 O   0  0  0  0  0  0  0  0  0  0  0  0
   11.1573   -4.3359   21.3914 C   0  0  0  0  0  0  0  0  0  0  0  0
   14.0589   -5.8843   22.4469 O   0  0  0  0  0  0  0  0  0  0  0  0
   15.3495   -5.8872   23.0421 C   0  0  0  0  0  0  0  0  0  0  0  0
   19.0108  -10.9229   11.2610 C   0  0  0  0  0  0  0  0  0  0  0  0
   18.9838   -9.7645   10.3238 C   0  0  0  0  0  0  0  0  0  0  0  0
   19.8529   -8.6853   10.5181 C   0  0  0  0  0  0  0  0  0  0  0  0
   19.8077   -7.5865    9.6545 C   0  0  0  0  0  0  0  0  0  0  0  0
   18.8901   -7.5633    8.5997 C   0  0  0  0  0  0  0  0  0  0  0  0
   18.0159   -8.6381    8.4092 C   0  0  0  0  0  0  0  0  0  0  0  0
   18.0608   -9.7370    9.2725 C   0  0  0  0  0  0  0  0  0  0  0  0
   13.8874   -8.6073   12.1016 S   0  0  0  0  0  0  0  0  0  0  0  0
   13.7906  -10.2421   11.3123 C   0  0  0  0  0  0  0  0  0  0  0  0
   14.6692  -10.2863   10.1408 C   0  0  0  0  0  0  0  0  0  0  0  0
   15.3937  -10.3233    9.1780 C   0  0  0  0  0  0  0  0  0  0  0  0
  1  2  2  0  0  0
  2  3  1  0  0  0
  3  4  2  0  0  0
  4  5  1  0  0  0
  5  6  2  0  0  0
  6  7  1  0  0  0
  7  8  1  0  0  0
  8  9  2  0  0  0
  7 26  1  0  0  0
 26 27  1  0  0  0
 27 28  2  0  0  0
 28 29  1  0  0  0
 29 30  2  0  0  0
 30 31  1  0  0  0
 31 32  2  0  0  0
  4 10  1  0  0  0
 10 12  1  0  0  0
 12 13  2  0  0  0
 13 14  1  0  0  0
 14 15  2  0  0  0
 15 16  1  0  0  0
 16 17  2  0  0  0
 17 18  1  0  0  0
 18 19  2  0  0  0
 18 20  1  0  0  0
 20 21  1  0  0  0
 17 22  1  0  0  0
 22 23  1  0  0  0
 16 24  1  0  0  0
 24 25  1  0  0  0
  2 33  1  0  0  0
 33 34  1  0  0  0
 34 35  1  0  0  0
 35 36  3  0  0  0
  6  1  1  0  0  0
 32 27  1  0  0  0
 19 14  1  0  0  0
  9  5  1  0  0  0
 10 11  1  0  0  0
M  END
>  <minimizedAffinity>
-2.27956

>  <minimizedRMSD>
1.87205

$$$$
CHEMBL3344405 PubChem-118717764


 36 39  0  0  0  0  0  0  0  0999 V2000
   16.1640   -8.5971   16.2840 C   0  0  0  0  0  0  0  0  0  0  0  0
   16.8402   -9.4510   17.0757 N   0  0  0  0  0  0  0  0  0  0  0  0
   16.4267   -9.1800   18.2757 O   0  0  0  0  0  0  0  0  0  0  0  0
   15.5416   -8.2122   18.2382 C   0  0  0  0  0  0  0  0  0  0  0  0
   15.3289   -7.7927   16.9735 N   0  0  0  0  0  0  0  0  0  0  0  0
   15.7324   -9.8364   10.9406 C   0  0  0  0  0  0  0  0  0  0  0  0
   14.5477   -9.8714   10.5048 O   0  0  0  0  0  0  0  0  0  0  0  0
   16.0199   -9.1311   12.1595 N   0  0  0  0  0  0  0  0  0  0  0  0
   17.3796   -9.1169   12.7030 C   0  0  0  0  0  0  0  0  0  0  0  0
   17.3457   -9.3619   14.2103 C   0  0  0  0  0  0  0  0  0  0  0  0
   16.3121   -8.5507   14.8601 N   0  0  0  0  0  0  0  0  0  0  0  0
   15.4640   -7.6577   14.0719 C   0  0  0  0  0  0  0  0  0  0  0  0
   14.9488   -8.3866   12.8321 C   0  0  0  0  0  0  0  0  0  0  0  0
   17.6263   -9.7637    8.3625 C   0  0  0  0  0  0  0  0  0  0  0  0
   17.1119   -8.4986    7.7037 C   0  0  0  0  0  0  0  0  0  0  0  0
   18.7616  -10.4188    7.6002 C   0  0  0  0  0  0  0  0  0  0  0  0
   16.5182  -10.7345    8.7102 C   0  0  0  0  0  0  0  0  0  0  0  0
   16.8314  -10.5493   10.1920 C   0  0  0  0  0  0  0  0  0  0  0  0
   17.9415   -9.5721    9.8309 C   0  0  0  0  0  0  0  0  0  0  0  0
   14.8539   -7.6405   19.4172 C   0  0  0  0  0  0  0  0  0  0  0  0
   13.4544   -7.7184   19.4664 C   0  0  0  0  0  0  0  0  0  0  0  0
   12.7414   -7.1992   20.5483 C   0  0  0  0  0  0  0  0  0  0  0  0
   13.4187   -6.5870   21.6066 C   0  0  0  0  0  0  0  0  0  0  0  0
   14.8178   -6.5064   21.5696 C   0  0  0  0  0  0  0  0  0  0  0  0
   15.5400   -7.0236   20.4901 C   0  0  0  0  0  0  0  0  0  0  0  0
   17.2896   -6.8632   20.5499 Cl  0  0  0  0  0  0  0  0  0  0  0  0
   11.3890   -7.2908   20.5639 F   0  0  0  0  0  0  0  0  0  0  0  0
   12.6859   -6.0743   22.6830 O   0  0  0  0  0  0  0  0  0  0  0  0
   13.1427   -4.9934   23.4926 C   0  0  0  0  0  0  0  0  0  0  0  0
   12.6876   -3.6480   22.9313 C   0  0  0  0  0  0  0  0  0  0  0  0
   13.6295   -3.1681   21.9355 N   0  0  0  0  0  0  0  0  0  0  0  0
   13.6676   -3.8272   21.1580 H   0  0  0  0  0  0  0  0  0  0  0  0
   14.5552   -3.0841   22.3557 H   0  0  0  0  0  0  0  0  0  0  0  0
   11.2991   -3.7439   22.3207 C   0  0  0  0  0  0  0  0  0  0  0  0
   10.4108   -4.3030   23.2398 O   0  0  0  0  0  0  0  0  0  0  0  0
   10.7121   -5.1931   23.4803 H   0  0  0  0  0  0  0  0  0  0  0  0
 14 15  1  0  0  0
 14 16  1  0  0  0
 14 17  1  0  0  0
 17 18  1  0  0  0
 18  6  1  0  0  0
  6  7  2  0  0  0
  6  8  1  0  0  0
  8  9  1  0  0  0
  9 10  1  0  0  0
 10 11  1  0  0  0
 11  1  1  0  0  0
  1  2  2  0  0  0
  2  3  1  0  0  0
  3  4  1  0  0  0
  4  5  2  0  0  0
  4 20  1  0  0  0
 20 21  2  0  0  0
 21 22  1  0  0  0
 22 23  2  0  0  0
 23 24  1  0  0  0
 24 25  2  0  0  0
 25 26  1  0  0  0
 23 28  1  0  0  0
 28 29  1  0  0  0
 30 29  1  0  0  0
 30 34  1  0  0  0
 34 35  1  0  0  0
 30 31  1  0  0  0
 22 27  1  0  0  0
 11 12  1  0  0  0
 12 13  1  0  0  0
 18 19  1  0  0  0
 19 14  1  0  0  0
 13  8  1  0  0  0
  5  1  1  0  0  0
 25 20  1  0  0  0
 35 36  1  0  0  0
 31 32  1  0  0  0
 31 33  1  0  0  0
M  END
>  <minimizedAffinity>
-2.26626

>  <minimizedRMSD>
1.73773

$$$$
CHEMBL3891108 PubChem-89633380


 34 39  0  0  0  0  0  0  0  0999 V2000
   13.9399   -7.3962   18.2554 C   0  0  0  0  0  0  0  0  0  0  0  0
   15.1432   -6.7481   17.5419 C   0  0  0  0  0  0  0  0  0  0  0  0
   15.8114   -7.6513   16.5925 N   0  0  0  0  0  0  0  0  0  0  0  0
   16.7969   -8.4441   17.3238 C   0  0  0  0  0  0  0  0  0  0  0  0
   17.7326   -9.1077   16.3222 C   0  0  0  0  0  0  0  0  0  0  0  0
   16.9768   -9.6837   15.2072 N   0  0  0  0  0  0  0  0  0  0  0  0
   15.5203   -9.8047   15.2957 C   0  0  0  0  0  0  0  0  0  0  0  0
   14.8715   -8.5172   15.8305 C   0  0  0  0  0  0  0  0  0  0  0  0
   13.6117   -8.8812   16.6256 C   0  0  0  0  0  0  0  0  0  0  0  0
   13.8605   -8.7741   17.9996 O   0  0  0  0  0  0  0  0  0  0  0  0
   17.6810  -10.2565   14.0943 C   0  0  0  0  0  0  0  0  0  0  0  0
   18.9410  -10.2276   14.0581 O   0  0  0  0  0  0  0  0  0  0  0  0
   12.0078   -5.5526   19.5672 C   0  0  0  0  0  0  0  0  0  0  0  0
   13.0654   -6.2640   20.3458 C   0  0  0  0  0  0  0  0  0  0  0  0
   13.9930   -7.1421   19.7309 C   0  0  0  0  0  0  0  0  0  0  0  0
   14.9821   -7.7899   20.5179 C   0  0  0  0  0  0  0  0  0  0  0  0
   15.0547   -7.5794   21.9076 C   0  0  0  0  0  0  0  0  0  0  0  0
   14.1211   -6.7135   22.4641 C   0  0  0  0  0  0  0  0  0  0  0  0
   13.9748   -6.3463   23.7432 N   0  0  0  0  0  0  0  0  0  0  0  0
   12.9583   -5.5199   23.7294 O   0  0  0  0  0  0  0  0  0  0  0  0
   12.4385   -5.3223   22.5430 N   0  0  0  0  0  0  0  0  0  0  0  0
   13.1787   -6.0825   21.7231 C   0  0  0  0  0  0  0  0  0  0  0  0
   16.9402  -10.8611   12.9431 C   0  0  0  0  0  0  0  0  0  0  0  0
   17.3283  -10.1989   11.6643 C   0  0  0  0  0  0  0  0  0  0  0  0
   18.5945   -9.6294   11.5225 C   0  0  0  0  0  0  0  0  0  0  0  0
   18.9451   -9.0036   10.3256 C   0  0  0  0  0  0  0  0  0  0  0  0
   18.0171   -8.9509    9.2780 C   0  0  0  0  0  0  0  0  0  0  0  0
   16.7834   -9.5067    9.4432 N   0  0  0  0  0  0  0  0  0  0  0  0
   16.4237  -10.1215   10.6019 C   0  0  0  0  0  0  0  0  0  0  0  0
   18.3618   -8.3217    8.0387 N   0  0  0  0  0  0  0  0  0  0  0  0
   18.0923   -8.7652    6.7992 C   0  0  0  0  0  0  0  0  0  0  0  0
   18.6059   -7.8892    5.9119 N   0  0  0  0  0  0  0  0  0  0  0  0
   19.1792   -6.9323    6.6281 N   0  0  0  0  0  0  0  0  0  0  0  0
   19.0345   -7.1920    7.9160 N   0  0  0  0  0  0  0  0  0  0  0  0
 13 14  1  0  0  0
 14 15  2  0  0  0
 15 16  1  0  0  0
 16 17  2  0  0  0
 17 18  1  0  0  0
 18 19  2  0  0  0
 19 20  1  0  0  0
 20 21  1  0  0  0
 21 22  2  0  0  0
  1 15  1  0  0  0
  1  2  1  0  0  0
  2  3  1  0  0  0
  3  4  1  0  0  0
  4  5  1  0  0  0
  5  6  1  0  0  0
  6  7  1  0  0  0
  8  7  1  0  0  0
  8  9  1  0  0  0
  9 10  1  0  0  0
  6 11  1  0  0  0
 11 12  2  0  0  0
 11 23  1  0  0  0
 23 24  1  0  0  0
 24 25  2  0  0  0
 25 26  1  0  0  0
 26 27  2  0  0  0
 27 28  1  0  0  0
 28 29  2  0  0  0
 27 30  1  0  0  0
 30 31  1  0  0  0
 31 32  2  0  0  0
 32 33  1  0  0  0
 33 34  2  0  0  0
 22 14  1  0  0  0
 10  1  1  0  0  0
 29 24  1  0  0  0
 34 30  1  0  0  0
 22 18  1  0  0  0
  8  3  1  0  0  0
M  END
>  <minimizedAffinity>
-2.21942

>  <minimizedRMSD>
1.29988

$$$$
CHEMBL3641935 PubChem-58300081


 34 38  0  0  0  0  0  0  0  0999 V2000
   13.4015   -7.5392   18.9237 N   0  0  0  0  0  0  0  0  0  0  0  0
   14.0453   -6.9967   19.9838 C   0  0  0  0  0  0  0  0  0  0  0  0
   13.5009   -6.2791   21.0448 C   0  0  0  0  0  0  0  0  0  0  0  0
   14.3499   -5.8239   22.0140 N   0  0  0  0  0  0  0  0  0  0  0  0
   15.7014   -6.0523   21.9693 C   0  0  0  0  0  0  0  0  0  0  0  0
   16.2744   -6.7752   20.9078 C   0  0  0  0  0  0  0  0  0  0  0  0
   15.4032   -7.2338   19.9267 C   0  0  0  0  0  0  0  0  0  0  0  0
   15.6132   -7.9581   18.7772 C   0  0  0  0  0  0  0  0  0  0  0  0
   16.7457   -8.4889   18.1824 C   0  0  0  0  0  0  0  0  0  0  0  0
   16.5785   -9.1720   17.0123 N   0  0  0  0  0  0  0  0  0  0  0  0
   15.3416   -9.3351   16.4361 C   0  0  0  0  0  0  0  0  0  0  0  0
   14.2317   -8.8062   17.0344 N   0  0  0  0  0  0  0  0  0  0  0  0
   14.3828   -8.1247   18.1962 C   0  0  0  0  0  0  0  0  0  0  0  0
   11.6672   -6.5314   17.5192 C   0  0  0  0  0  0  0  0  0  0  0  0
   11.9650   -7.4952   18.6530 C   0  0  0  0  0  0  0  0  0  0  0  0
   11.4331   -8.8782   18.3132 C   0  0  0  0  0  0  0  0  0  0  0  0
   10.9724   -9.5071   19.4698 O   0  0  0  0  0  0  0  0  0  0  0  0
   11.7022   -9.5944   20.1029 H   0  0  0  0  0  0  0  0  0  0  0  0
   15.1899  -10.0564   15.2078 N   0  0  0  0  0  0  0  0  0  0  0  0
   14.5293  -10.7864   15.1997 H   0  0  0  0  0  0  0  0  0  0  0  0
   15.9059   -9.8188   13.9900 C   0  0  0  0  0  0  0  0  0  0  0  0
   15.1959   -9.5441   12.8237 C   0  0  0  0  0  0  0  0  0  0  0  0
   15.8921   -9.3134   11.6404 C   0  0  0  0  0  0  0  0  0  0  0  0
   17.2904   -9.3633   11.6434 C   0  0  0  0  0  0  0  0  0  0  0  0
   17.9341   -9.6332   12.8130 N   0  0  0  0  0  0  0  0  0  0  0  0
   17.2652   -9.8541   13.9465 N   0  0  0  0  0  0  0  0  0  0  0  0
   18.0417   -9.1225   10.4422 N   0  0  0  0  0  0  0  0  0  0  0  0
   19.4295   -8.6706   10.5240 C   0  0  0  0  0  0  0  0  0  0  0  0
   19.7126   -7.6842    9.3938 C   0  0  0  0  0  0  0  0  0  0  0  0
   19.3600   -8.2839    8.1085 N   0  0  0  0  0  0  0  0  0  0  0  0
   17.9155   -8.5052    8.0829 C   0  0  0  0  0  0  0  0  0  0  0  0
   17.5030   -9.0025    6.7138 C   0  0  0  0  0  0  0  0  0  0  0  0
   17.5273   -9.5383    9.1373 C   0  0  0  0  0  0  0  0  0  0  0  0
   19.8467   -9.1735    7.9984 H   0  0  0  0  0  0  0  0  0  0  0  0
 15 14  1  0  0  0
 15 16  1  0  0  0
 16 17  1  0  0  0
 15  1  1  0  0  0
  1  2  1  0  0  0
  2  3  2  0  0  0
  3  4  1  0  0  0
  4  5  2  0  0  0
  5  6  1  0  0  0
  6  7  2  0  0  0
  7  8  1  0  0  0
  8  9  2  0  0  0
  9 10  1  0  0  0
 10 11  2  0  0  0
 11 19  1  0  0  0
 19 21  1  0  0  0
 21 22  2  0  0  0
 22 23  1  0  0  0
 23 24  2  0  0  0
 24 25  1  0  0  0
 25 26  2  0  0  0
 24 27  1  0  0  0
 27 28  1  0  0  0
 28 29  1  0  0  0
 29 30  1  0  0  0
 30 31  1  0  0  0
 31 32  1  0  0  0
 31 33  1  0  0  0
 11 12  1  0  0  0
 12 13  2  0  0  0
 13  1  1  0  0  0
  7  2  1  0  0  0
 13  8  1  0  0  0
 26 21  1  0  0  0
 33 27  1  0  0  0
 17 18  1  0  0  0
 19 20  1  0  0  0
 30 34  1  0  0  0
M  END
>  <minimizedAffinity>
-2.21328

>  <minimizedRMSD>
1.79087

$$$$
CHEMBL1575105 MCULE-5160825690 MolPort-005-036-746 PubChem-16188791


 33 37  0  0  0  0  0  0  0  0999 V2000
   16.7920   -7.3038   15.2957 C   0  0  0  0  0  0  0  0  0  0  0  0
   16.8933   -8.1278   14.0855 N   0  0  0  0  0  0  0  0  0  0  0  0
   15.5773   -8.6834   13.7434 C   0  0  0  0  0  0  0  0  0  0  0  0
   15.6707   -9.6842   12.5826 C   0  0  0  0  0  0  0  0  0  0  0  0
   17.0229   -9.7107   12.0144 N   0  0  0  0  0  0  0  0  0  0  0  0
   17.9262  -10.1522   13.0838 C   0  0  0  0  0  0  0  0  0  0  0  0
   17.8797   -9.1968   14.2855 C   0  0  0  0  0  0  0  0  0  0  0  0
   17.0578  -10.7012   10.9263 C   0  0  0  0  0  0  0  0  0  0  0  0
   15.8675  -10.5421    9.9697 C   0  0  0  0  0  0  0  0  0  0  0  0
   15.8475   -9.1639    9.3015 C   0  0  0  0  0  0  0  0  0  0  0  0
   17.2051   -8.7034    8.8472 C   0  0  0  0  0  0  0  0  0  0  0  0
   17.2883   -7.5602    8.0458 C   0  0  0  0  0  0  0  0  0  0  0  0
   18.5325   -7.0769    7.6322 C   0  0  0  0  0  0  0  0  0  0  0  0
   19.7025   -7.7322    8.0232 C   0  0  0  0  0  0  0  0  0  0  0  0
   19.6302   -8.8688    8.8328 C   0  0  0  0  0  0  0  0  0  0  0  0
   18.3896   -9.3526    9.2592 C   0  0  0  0  0  0  0  0  0  0  0  0
   18.3488  -10.5955   10.1003 C   0  0  0  0  0  0  0  0  0  0  0  0
   14.5002   -8.2784   17.8197 C   0  0  0  0  0  0  0  0  0  0  0  0
   15.2706   -9.3820   17.7760 N   0  0  0  0  0  0  0  0  0  0  0  0
   16.1603   -9.1262   16.8665 O   0  0  0  0  0  0  0  0  0  0  0  0
   15.9588   -7.9269   16.3800 C   0  0  0  0  0  0  0  0  0  0  0  0
   14.9021   -7.3235   16.9562 N   0  0  0  0  0  0  0  0  0  0  0  0
   13.3621   -8.1058   18.7672 C   0  0  0  0  0  0  0  0  0  0  0  0
   14.6044   -5.7433   22.1356 C   0  0  0  0  0  0  0  0  0  0  0  0
   15.3107   -6.9049   21.7812 C   0  0  0  0  0  0  0  0  0  0  0  0
   14.9038   -7.6760   20.6905 C   0  0  0  0  0  0  0  0  0  0  0  0
   13.7847   -7.2966   19.9455 C   0  0  0  0  0  0  0  0  0  0  0  0
   13.0806   -6.1389   20.2882 C   0  0  0  0  0  0  0  0  0  0  0  0
   13.4831   -5.3573   21.3839 C   0  0  0  0  0  0  0  0  0  0  0  0
   16.1154   -5.2836   24.0423 C   0  0  0  0  0  0  0  0  0  0  0  0
   14.9982   -4.9599   23.2259 O   0  0  0  0  0  0  0  0  0  0  0  0
   12.7870   -4.1975   21.7411 O   0  0  0  0  0  0  0  0  0  0  0  0
   11.3873   -4.0493   21.5450 C   0  0  0  0  0  0  0  0  0  0  0  0
 30 31  1  0  0  0
 31 24  1  0  0  0
 24 25  2  0  0  0
 25 26  1  0  0  0
 26 27  2  0  0  0
 27 23  1  0  0  0
 27 28  1  0  0  0
 23 18  1  0  0  0
 18 19  2  0  0  0
 19 20  1  0  0  0
 20 21  1  0  0  0
 21  1  1  0  0  0
 21 22  2  0  0  0
  1  2  1  0  0  0
  2  3  1  0  0  0
  3  4  1  0  0  0
  4  5  1  0  0  0
  5  6  1  0  0  0
  6  7  1  0  0  0
  7  2  1  0  0  0
  8  5  1  0  0  0
  8  9  1  0  0  0
  9 10  1  0  0  0
 10 11  1  0  0  0
 11 12  2  0  0  0
 12 13  1  0  0  0
 13 14  2  0  0  0
 14 15  1  0  0  0
 15 16  2  0  0  0
 16 17  1  0  0  0
 16 11  1  0  0  0
 17  8  1  0  0  0
 22 18  1  0  0  0
 28 29  2  0  0  0
 29 32  1  0  0  0
 29 24  1  0  0  0
 32 33  1  0  0  0
M  END
>  <minimizedAffinity>
-2.21084

>  <minimizedRMSD>
1.19492

$$$$
CHEMBL3661141 PubChem-67500373


 40 44  0  0  0  0  0  0  0  0999 V2000
   15.6944   -8.2876   17.1042 N   0  0  0  0  0  0  0  0  0  0  0  0
   15.4097   -7.7064   15.9443 N   0  0  0  0  0  0  0  0  0  0  0  0
   16.0642   -8.3673   14.9568 C   0  0  0  0  0  0  0  0  0  0  0  0
   16.7927   -9.4089   15.5179 C   0  0  0  0  0  0  0  0  0  0  0  0
   17.5902  -10.4514   15.0142 C   0  0  0  0  0  0  0  0  0  0  0  0
   18.0630  -11.3969   15.9469 C   0  0  0  0  0  0  0  0  0  0  0  0
   17.7463  -11.2683   17.3150 C   0  0  0  0  0  0  0  0  0  0  0  0
   16.9781  -10.2296   17.7552 N   0  0  0  0  0  0  0  0  0  0  0  0
   16.5253   -9.3182   16.8574 C   0  0  0  0  0  0  0  0  0  0  0  0
   13.4044   -7.1016   19.8936 C   0  0  0  0  0  0  0  0  0  0  0  0
   13.8402   -7.5136   18.6010 C   0  0  0  0  0  0  0  0  0  0  0  0
   15.2012   -7.8513   18.3885 C   0  0  0  0  0  0  0  0  0  0  0  0
   16.1010   -7.7512   19.4519 C   0  0  0  0  0  0  0  0  0  0  0  0
   15.6853   -7.3162   20.7022 C   0  0  0  0  0  0  0  0  0  0  0  0
   14.3517   -6.9767   20.9424 C   0  0  0  0  0  0  0  0  0  0  0  0
   13.9951   -6.5206   22.3117 C   0  0  0  0  0  0  0  0  0  0  0  0
   13.0811   -5.6761   22.5038 O   0  0  0  0  0  0  0  0  0  0  0  0
   14.6963   -7.0357   23.4412 N   0  0  0  0  0  0  0  0  0  0  0  0
   15.4147   -7.6969   23.3150 H   0  0  0  0  0  0  0  0  0  0  0  0
   14.4620   -6.7302   24.3473 H   0  0  0  0  0  0  0  0  0  0  0  0
   12.0239   -6.7929   20.1663 N   0  0  0  0  0  0  0  0  0  0  0  0
   11.8399   -5.9323   20.6076 H   0  0  0  0  0  0  0  0  0  0  0  0
   11.2740   -9.0926   19.8757 C   0  0  0  0  0  0  0  0  0  0  0  0
   10.8738   -7.6299   19.8525 C   0  0  0  0  0  0  0  0  0  0  0  0
   12.8785   -7.5601   17.4507 C   0  0  0  0  0  0  0  0  0  0  0  0
   12.0481   -6.2900   17.4070 C   0  0  0  0  0  0  0  0  0  0  0  0
   17.9565  -10.5661   13.6314 N   0  0  0  0  0  0  0  0  0  0  0  0
   18.8193  -11.4648   13.1161 C   0  0  0  0  0  0  0  0  0  0  0  0
   19.0242  -11.2591   11.7995 N   0  0  0  0  0  0  0  0  0  0  0  0
   18.2694  -10.1807   11.5100 C   0  0  0  0  0  0  0  0  0  0  0  0
   17.6151   -9.7300   12.6360 C   0  0  0  0  0  0  0  0  0  0  0  0
   18.1784   -9.5808   10.1746 C   0  0  0  0  0  0  0  0  0  0  0  0
   17.3103   -9.9571    9.1653 C   0  0  0  0  0  0  0  0  0  0  0  0
   17.5457   -9.1571    8.1072 N   0  0  0  0  0  0  0  0  0  0  0  0
   18.5139   -8.3180    8.4344 N   0  0  0  0  0  0  0  0  0  0  0  0
   19.0371   -7.3026    7.5403 C   0  0  0  0  0  0  0  0  0  0  0  0
   18.9374   -8.5341    9.6903 C   0  0  0  0  0  0  0  0  0  0  0  0
   15.8625   -8.0815   13.5042 C   0  0  0  0  0  0  0  0  0  0  0  0
   15.1803   -6.7411   13.3115 C   0  0  0  0  0  0  0  0  0  0  0  0
   15.0360   -9.1781   12.8622 C   0  0  0  0  0  0  0  0  0  0  0  0
 23 24  1  0  0  0
 24 21  1  0  0  0
 21 10  1  0  0  0
 10 11  2  0  0  0
 11 25  1  0  0  0
 25 26  1  0  0  0
 11 12  1  0  0  0
 12 13  2  0  0  0
 13 14  1  0  0  0
 14 15  2  0  0  0
 15 16  1  0  0  0
 16 17  2  0  0  0
 16 18  1  0  0  0
 12  1  1  0  0  0
  1  2  1  0  0  0
  2  3  2  0  0  0
  3 38  1  0  0  0
 38 39  1  0  0  0
 38 40  1  0  0  0
  3  4  1  0  0  0
  4  5  2  0  0  0
  5  6  1  0  0  0
  6  7  2  0  0  0
  7  8  1  0  0  0
  8  9  2  0  0  0
  5 27  1  0  0  0
 27 28  1  0  0  0
 28 29  2  0  0  0
 29 30  1  0  0  0
 30 31  2  0  0  0
 30 32  1  0  0  0
 32 33  1  0  0  0
 33 34  2  0  0  0
 34 35  1  0  0  0
 35 36  1  0  0  0
 35 37  1  0  0  0
 15 10  1  0  0  0
  9  1  1  0  0  0
 31 27  1  0  0  0
 37 32  2  0  0  0
  9  4  1  0  0  0
 21 22  1  0  0  0
 18 19  1  0  0  0
 18 20  1  0  0  0
M  END
>  <minimizedAffinity>
-2.20533

>  <minimizedRMSD>
1.68317

$$$$
CHEMBL176964 PubChem-135573395


 38 40  0  0  0  0  0  0  0  0999 V2000
   15.7873   -9.1112   15.8062 C   0  0  0  0  0  0  0  0  0  0  0  0
   14.6343   -9.8220   15.3976 C   0  0  0  0  0  0  0  0  0  0  0  0
   13.5815  -10.2666   16.3572 C   0  0  0  0  0  0  0  0  0  0  0  0
   14.4684  -10.1763   14.0606 C   0  0  0  0  0  0  0  0  0  0  0  0
   15.4244   -9.8383   13.1075 C   0  0  0  0  0  0  0  0  0  0  0  0
   15.2162  -10.2105   11.7836 O   0  0  0  0  0  0  0  0  0  0  0  0
   16.5795   -9.1355   13.4808 C   0  0  0  0  0  0  0  0  0  0  0  0
   16.7590   -8.7680   14.8353 C   0  0  0  0  0  0  0  0  0  0  0  0
   17.8880   -8.0466   15.2161 O   0  0  0  0  0  0  0  0  0  0  0  0
   14.4410  -10.6799   11.5452 H   0  0  0  0  0  0  0  0  0  0  0  0
   18.5344   -7.8167   14.5778 H   0  0  0  0  0  0  0  0  0  0  0  0
   15.9821   -8.7212   17.2272 C   0  0  0  0  0  0  0  0  0  0  0  0
   16.9011   -9.2602   17.9022 O   0  0  0  0  0  0  0  0  0  0  0  0
   15.1466   -7.7483   17.8003 O   0  0  0  0  0  0  0  0  0  0  0  0
   14.7169   -6.8451   21.9198 C   0  0  0  0  0  0  0  0  0  0  0  0
   15.9914   -6.7955   21.3069 C   0  0  0  0  0  0  0  0  0  0  0  0
   17.2370   -6.4770   22.0638 C   0  0  0  0  0  0  0  0  0  0  0  0
   16.1287   -7.0949   19.9521 C   0  0  0  0  0  0  0  0  0  0  0  0
   15.0240   -7.4455   19.1683 C   0  0  0  0  0  0  0  0  0  0  0  0
   13.7570   -7.5005   19.7659 C   0  0  0  0  0  0  0  0  0  0  0  0
   12.5655   -7.8735   18.9444 C   0  0  0  0  0  0  0  0  0  0  0  0
   13.5993   -7.2015   21.1295 C   0  0  0  0  0  0  0  0  0  0  0  0
   12.3241   -7.2430   21.6890 O   0  0  0  0  0  0  0  0  0  0  0  0
   11.5879   -7.4799   21.1600 H   0  0  0  0  0  0  0  0  0  0  0  0
   14.5414   -6.5280   23.3623 C   0  0  0  0  0  0  0  0  0  0  0  0
   15.0532   -7.2759   24.2408 O   0  0  0  0  0  0  0  0  0  0  0  0
   13.3775   -5.2159   25.0924 C   0  0  0  0  0  0  0  0  0  0  0  0
   13.8022   -5.4082   23.7515 O   0  0  0  0  0  0  0  0  0  0  0  0
   17.5597   -8.8058   12.4242 C   0  0  0  0  0  0  0  0  0  0  0  0
   17.9618   -9.6646   11.5424 N   0  0  0  0  0  0  0  0  0  0  0  0
   18.8947   -9.3720   10.5273 N   0  0  0  0  0  0  0  0  0  0  0  0
   19.8422   -9.5286   10.7442 H   0  0  0  0  0  0  0  0  0  0  0  0
   18.6141   -8.8698    9.2094 C   0  0  0  0  0  0  0  0  0  0  0  0
   19.2693   -7.7078    8.7853 C   0  0  0  0  0  0  0  0  0  0  0  0
   19.0295   -7.1814    7.5124 C   0  0  0  0  0  0  0  0  0  0  0  0
   18.1297   -7.8159    6.6521 C   0  0  0  0  0  0  0  0  0  0  0  0
   17.4706   -8.9764    7.0653 C   0  0  0  0  0  0  0  0  0  0  0  0
   17.7121   -9.5006    8.3384 C   0  0  0  0  0  0  0  0  0  0  0  0
 27 28  1  0  0  0
 28 25  1  0  0  0
 25 26  2  0  0  0
 25 15  1  0  0  0
 15 16  2  0  0  0
 16 17  1  0  0  0
 16 18  1  0  0  0
 18 19  2  0  0  0
 19 14  1  0  0  0
 19 20  1  0  0  0
 14 12  1  0  0  0
 12 13  2  0  0  0
 12  1  1  0  0  0
  1  2  2  0  0  0
  2  3  1  0  0  0
  2  4  1  0  0  0
  4  5  2  0  0  0
  5  6  1  0  0  0
  5  7  1  0  0  0
  7 29  1  0  0  0
  7  8  2  0  0  0
 29 30  2  0  0  0
 30 31  1  0  0  0
 31 33  1  0  0  0
 33 34  2  0  0  0
 34 35  1  0  0  0
 35 36  2  0  0  0
 36 37  1  0  0  0
 37 38  2  0  0  0
 38 33  1  0  0  0
  8  9  1  0  0  0
  8  1  1  0  0  0
 20 21  1  0  0  0
 20 22  2  0  0  0
 22 23  1  0  0  0
 22 15  1  0  0  0
  6 10  1  0  0  0
 31 32  1  0  0  0
  9 11  1  0  0  0
 23 24  1  0  0  0
M  END
>  <minimizedAffinity>
-2.11618

>  <minimizedRMSD>
1.94846

$$$$
CHEMBL1288026 PubChem-52947738


 31 34  0  0  0  0  0  0  0  0999 V2000
   17.3917   -8.5080   16.3119 C   0  0  0  0  0  0  0  0  0  0  0  0
   17.7086   -8.1160   17.6264 C   0  0  0  0  0  0  0  0  0  0  0  0
   16.7236   -7.7449   18.4950 N   0  0  0  0  0  0  0  0  0  0  0  0
   15.4374   -7.7615   18.0662 C   0  0  0  0  0  0  0  0  0  0  0  0
   15.1154   -8.1292   16.8204 N   0  0  0  0  0  0  0  0  0  0  0  0
   16.0449   -8.5108   15.9089 C   0  0  0  0  0  0  0  0  0  0  0  0
   13.8045   -8.0759   16.6520 N   0  0  0  0  0  0  0  0  0  0  0  0
   13.2820   -7.6492   17.8271 C   0  0  0  0  0  0  0  0  0  0  0  0
   14.2974   -7.4270   18.7616 C   0  0  0  0  0  0  0  0  0  0  0  0
   11.8170   -7.5563   18.0768 C   0  0  0  0  0  0  0  0  0  0  0  0
   19.1265   -8.1068   18.0705 C   0  0  0  0  0  0  0  0  0  0  0  0
   14.1899   -7.0340   20.1819 C   0  0  0  0  0  0  0  0  0  0  0  0
   14.7864   -7.8556   21.1479 C   0  0  0  0  0  0  0  0  0  0  0  0
   14.7093   -7.5330   22.5042 C   0  0  0  0  0  0  0  0  0  0  0  0
   14.0402   -6.3792   22.9172 C   0  0  0  0  0  0  0  0  0  0  0  0
   13.4574   -5.5407   21.9553 C   0  0  0  0  0  0  0  0  0  0  0  0
   13.5280   -5.8566   20.5951 C   0  0  0  0  0  0  0  0  0  0  0  0
   12.9541   -4.8851   19.6200 C   0  0  0  0  0  0  0  0  0  0  0  0
   13.9754   -6.0859   24.2820 O   0  0  0  0  0  0  0  0  0  0  0  0
   13.6017   -4.8067   24.7753 C   0  0  0  0  0  0  0  0  0  0  0  0
   15.6457   -8.9008   14.5861 N   0  0  0  0  0  0  0  0  0  0  0  0
   14.8604   -8.4479   14.2020 H   0  0  0  0  0  0  0  0  0  0  0  0
   16.3027   -9.9111   13.7599 C   0  0  0  0  0  0  0  0  0  0  0  0
   17.0036  -10.9444   14.6287 C   0  0  0  0  0  0  0  0  0  0  0  0
   17.2671   -9.2619   12.7743 C   0  0  0  0  0  0  0  0  0  0  0  0
   16.8974   -9.5893   11.3666 C   0  0  0  0  0  0  0  0  0  0  0  0
   15.8091  -10.3067   11.0259 N   0  0  0  0  0  0  0  0  0  0  0  0
   15.8415  -10.3578    9.7294 O   0  0  0  0  0  0  0  0  0  0  0  0
   16.8894   -9.7067    9.2910 C   0  0  0  0  0  0  0  0  0  0  0  0
   17.6134   -9.1839   10.2980 N   0  0  0  0  0  0  0  0  0  0  0  0
   17.2404   -9.5598    7.8539 C   0  0  0  0  0  0  0  0  0  0  0  0
  1  2  1  0  0  0
  2  3  2  0  0  0
  3  4  1  0  0  0
  4  5  1  0  0  0
  5  6  1  0  0  0
  6 21  1  0  0  0
 21 23  1  0  0  0
 23 25  1  0  0  0
 25 26  1  0  0  0
 26 27  2  0  0  0
 27 28  1  0  0  0
 28 29  1  0  0  0
 29 30  2  0  0  0
 29 31  1  0  0  0
 23 24  1  0  0  0
  5  7  1  0  0  0
  7  8  2  0  0  0
  8  9  1  0  0  0
  9 12  1  0  0  0
 12 13  2  0  0  0
 13 14  1  0  0  0
 14 15  2  0  0  0
 15 16  1  0  0  0
 16 17  2  0  0  0
 17 18  1  0  0  0
 15 19  1  0  0  0
 19 20  1  0  0  0
  8 10  1  0  0  0
  2 11  1  0  0  0
  6  1  2  0  0  0
 30 26  1  0  0  0
 17 12  1  0  0  0
  9  4  2  0  0  0
 21 22  1  0  0  0
M  END
>  <minimizedAffinity>
-2.11169

>  <minimizedRMSD>
1.83480

$$$$
CHEMBL4876455 PubChem-164627447


 33 36  0  0  0  0  0  0  0  0999 V2000
   16.8655   -9.6728   12.6587 C   0  0  0  0  0  0  0  0  0  0  0  0
   16.7491   -8.5163   13.4522 C   0  0  0  0  0  0  0  0  0  0  0  0
   16.5058   -8.6569   14.8181 C   0  0  0  0  0  0  0  0  0  0  0  0
   16.3787   -9.8951   15.3942 C   0  0  0  0  0  0  0  0  0  0  0  0
   16.1213   -9.8148   16.8474 C   0  0  0  0  0  0  0  0  0  0  0  0
   16.1139   -8.3034   17.1239 C   0  0  0  0  0  0  0  0  0  0  0  0
   16.3525   -7.5624   15.7994 C   0  0  0  0  0  0  0  0  0  0  0  0
   14.8448   -7.8655   17.7815 C   0  0  0  0  0  0  0  0  0  0  0  0
   13.6995   -7.9995   17.2718 O   0  0  0  0  0  0  0  0  0  0  0  0
   15.0761   -7.2975   19.0681 N   0  0  0  0  0  0  0  0  0  0  0  0
   16.4918   -7.3834   19.2296 C   0  0  0  0  0  0  0  0  0  0  0  0
   17.3379   -6.6121   20.4004 S   0  0  0  0  0  0  0  0  0  0  0  0
   17.1422   -7.9551   18.0988 N   0  0  0  0  0  0  0  0  0  0  0  0
   16.4881  -11.0599   14.6358 C   0  0  0  0  0  0  0  0  0  0  0  0
   16.7334  -10.9425   13.2595 C   0  0  0  0  0  0  0  0  0  0  0  0
   18.1116   -8.0909   17.9938 H   0  0  0  0  0  0  0  0  0  0  0  0
   14.0803   -6.8345   20.0025 C   0  0  0  0  0  0  0  0  0  0  0  0
   13.0271   -6.0195   19.5747 C   0  0  0  0  0  0  0  0  0  0  0  0
   12.0470   -5.5727   20.4695 C   0  0  0  0  0  0  0  0  0  0  0  0
   12.1462   -5.9695   21.8206 C   0  0  0  0  0  0  0  0  0  0  0  0
   13.1743   -6.7664   22.2173 N   0  0  0  0  0  0  0  0  0  0  0  0
   14.1261   -7.2010   21.3510 C   0  0  0  0  0  0  0  0  0  0  0  0
   10.9260   -4.6928   19.9718 C   0  0  0  0  0  0  0  0  0  0  0  0
   10.9044   -3.5128   20.6930 F   0  0  0  0  0  0  0  0  0  0  0  0
   11.0906   -4.3864   18.6310 F   0  0  0  0  0  0  0  0  0  0  0  0
    9.7166   -5.3453   20.1286 F   0  0  0  0  0  0  0  0  0  0  0  0
   11.1795   -5.5533   22.8047 C   0  0  0  0  0  0  0  0  0  0  0  0
   10.4032   -5.2192   23.5952 N   0  0  0  0  0  0  0  0  0  0  0  0
   18.6030   -8.7676    9.3294 C   0  0  0  0  0  0  0  0  0  0  0  0
   18.3064   -8.9053   10.7453 N   0  0  0  0  0  0  0  0  0  0  0  0
   17.1228   -9.5578   11.2125 C   0  0  0  0  0  0  0  0  0  0  0  0
   16.2985  -10.0353   10.3851 O   0  0  0  0  0  0  0  0  0  0  0  0
   18.9399   -8.5379   11.4032 H   0  0  0  0  0  0  0  0  0  0  0  0
 29 30  1  0  0  0
 30 31  1  0  0  0
 31 32  2  0  0  0
 31  1  1  0  0  0
  1  2  2  0  0  0
  2  3  1  0  0  0
  3  4  2  0  0  0
  4  5  1  0  0  0
  5  6  1  0  0  0
  6  7  1  0  0  0
  6  8  1  0  0  0
  8  9  2  0  0  0
  8 10  1  0  0  0
 10 11  1  0  0  0
 11 12  2  0  0  0
 11 13  1  0  0  0
 10 17  1  0  0  0
 17 18  2  0  0  0
 18 19  1  0  0  0
 19 20  2  0  0  0
 20 21  1  0  0  0
 21 22  2  0  0  0
 20 27  1  0  0  0
 27 28  3  0  0  0
 19 23  1  0  0  0
 23 24  1  0  0  0
 23 25  1  0  0  0
 23 26  1  0  0  0
  4 14  1  0  0  0
 14 15  2  0  0  0
 15  1  1  0  0  0
  7  3  1  0  0  0
 13  6  1  0  0  0
 22 17  1  0  0  0
 30 33  1  0  0  0
 13 16  1  0  0  0
M  END
>  <minimizedAffinity>
-2.08369

>  <minimizedRMSD>
1.63419

$$$$
CHEMBL4637562 PubChem-156011499


 29 31  0  0  0  0  0  0  0  0999 V2000
   13.9854   -6.8406   20.1888 C   0  0  0  0  0  0  0  0  0  0  0  0
   13.1403   -6.4540   19.1365 C   0  0  0  0  0  0  0  0  0  0  0  0
   13.4100   -6.9299   17.8435 C   0  0  0  0  0  0  0  0  0  0  0  0
   14.4973   -7.7757   17.6000 C   0  0  0  0  0  0  0  0  0  0  0  0
   15.3418   -8.1474   18.6637 C   0  0  0  0  0  0  0  0  0  0  0  0
   15.0771   -7.6791   19.9532 C   0  0  0  0  0  0  0  0  0  0  0  0
   16.4798   -9.0067   18.4587 C   0  0  0  0  0  0  0  0  0  0  0  0
   17.3941   -9.6968   18.2934 N   0  0  0  0  0  0  0  0  0  0  0  0
   12.0161   -5.5837   19.3775 N   0  0  0  0  0  0  0  0  0  0  0  0
   11.3972   -4.8438   18.2874 C   0  0  0  0  0  0  0  0  0  0  0  0
   11.3922   -5.4838   20.6911 C   0  0  0  0  0  0  0  0  0  0  0  0
   11.2243   -4.0243   21.0837 C   0  0  0  0  0  0  0  0  0  0  0  0
   11.5646   -3.8466   22.4851 N   0  0  0  0  0  0  0  0  0  0  0  0
   10.9323   -4.9305   23.2183 C   0  0  0  0  0  0  0  0  0  0  0  0
   12.9962   -4.0562   22.5941 C   0  0  0  0  0  0  0  0  0  0  0  0
   14.7500   -8.2354   16.1995 C   0  0  0  0  0  0  0  0  0  0  0  0
   16.0564   -8.8724   16.1124 N   0  0  0  0  0  0  0  0  0  0  0  0
   16.9811   -7.9333   15.4532 C   0  0  0  0  0  0  0  0  0  0  0  0
   16.8085   -7.8950   13.9301 C   0  0  0  0  0  0  0  0  0  0  0  0
   16.8318   -9.2462   13.3666 N   0  0  0  0  0  0  0  0  0  0  0  0
   16.8758  -10.3859   14.2790 C   0  0  0  0  0  0  0  0  0  0  0  0
   15.8736  -10.1556   15.4088 C   0  0  0  0  0  0  0  0  0  0  0  0
   16.8068   -9.4472   11.9406 C   0  0  0  0  0  0  0  0  0  0  0  0
   17.9335   -9.1666   11.1541 C   0  0  0  0  0  0  0  0  0  0  0  0
   17.8983   -9.3670    9.7736 C   0  0  0  0  0  0  0  0  0  0  0  0
   16.7294   -9.8503    9.1854 C   0  0  0  0  0  0  0  0  0  0  0  0
   15.6413  -10.1197    9.9542 N   0  0  0  0  0  0  0  0  0  0  0  0
   15.6554   -9.9309   11.3013 C   0  0  0  0  0  0  0  0  0  0  0  0
   16.6635  -10.1082    7.4555 Cl  0  0  0  0  0  0  0  0  0  0  0  0
  1  2  2  0  0  0
  2  3  1  0  0  0
  3  4  2  0  0  0
  4  5  1  0  0  0
  5  6  2  0  0  0
  5  7  1  0  0  0
  7  8  3  0  0  0
  4 16  1  0  0  0
 16 17  1  0  0  0
 17 18  1  0  0  0
 18 19  1  0  0  0
 19 20  1  0  0  0
 20 21  1  0  0  0
 21 22  1  0  0  0
 20 23  1  0  0  0
 23 24  2  0  0  0
 24 25  1  0  0  0
 25 26  2  0  0  0
 26 27  1  0  0  0
 27 28  2  0  0  0
 26 29  1  0  0  0
  2  9  1  0  0  0
  9 11  1  0  0  0
 11 12  1  0  0  0
 12 13  1  0  0  0
 13 14  1  0  0  0
 13 15  1  0  0  0
  9 10  1  0  0  0
  6  1  1  0  0  0
 22 17  1  0  0  0
 28 23  1  0  0  0
M  END
>  <minimizedAffinity>
-2.08273

>  <minimizedRMSD>
1.85801

$$$$
CHEMBL5200404


 27 29  0  0  0  0  0  0  0  0999 V2000
   15.6379   -8.1982   16.6331 C   0  0  0  0  0  0  0  0  0  0  0  0
   16.3904   -8.6416   17.5902 N   0  0  0  0  0  0  0  0  0  0  0  0
   18.4767  -10.1999   13.1442 C   0  0  0  0  0  0  0  0  0  0  0  0
   18.7350  -10.4521   11.7936 C   0  0  0  0  0  0  0  0  0  0  0  0
   17.8619   -9.9766   10.7997 C   0  0  0  0  0  0  0  0  0  0  0  0
   16.7273   -9.2460   11.1703 C   0  0  0  0  0  0  0  0  0  0  0  0
   16.4625   -8.9899   12.5181 C   0  0  0  0  0  0  0  0  0  0  0  0
   17.3440   -9.4707   13.5125 C   0  0  0  0  0  0  0  0  0  0  0  0
   17.0786   -9.2143   14.8600 C   0  0  0  0  0  0  0  0  0  0  0  0
   15.9399   -8.4814   15.2267 C   0  0  0  0  0  0  0  0  0  0  0  0
   15.0704   -8.0078   14.2375 C   0  0  0  0  0  0  0  0  0  0  0  0
   15.3295   -8.2605   12.8868 C   0  0  0  0  0  0  0  0  0  0  0  0
   18.0976  -10.2153    9.4430 O   0  0  0  0  0  0  0  0  0  0  0  0
   19.3980  -10.4468    8.9188 C   0  0  0  0  0  0  0  0  0  0  0  0
   16.1371   -8.3933   18.9527 N   0  0  0  0  0  0  0  0  0  0  0  0
   16.7748   -8.7649   19.6043 H   0  0  0  0  0  0  0  0  0  0  0  0
   15.0292   -7.6450   19.4722 C   0  0  0  0  0  0  0  0  0  0  0  0
   14.0887   -7.0431   18.7115 N   0  0  0  0  0  0  0  0  0  0  0  0
   13.1582   -6.4055   19.4708 C   0  0  0  0  0  0  0  0  0  0  0  0
   13.3596   -6.5007   20.8521 C   0  0  0  0  0  0  0  0  0  0  0  0
   14.7517   -7.4155   21.1117 S   0  0  0  0  0  0  0  0  0  0  0  0
   12.0269   -5.6727   18.8367 C   0  0  0  0  0  0  0  0  0  0  0  0
   12.5307   -5.9209   21.9225 C   0  0  0  0  0  0  0  0  0  0  0  0
   12.9210   -5.9956   23.1196 O   0  0  0  0  0  0  0  0  0  0  0  0
   11.3182   -5.2963   21.6152 O   0  0  0  0  0  0  0  0  0  0  0  0
   10.4103   -4.8546   22.6168 C   0  0  0  0  0  0  0  0  0  0  0  0
   10.8894   -3.5464   23.2177 C   0  0  0  0  0  0  0  0  0  0  0  0
  3  4  2  0  0  0
  4  5  1  0  0  0
  5  6  2  0  0  0
  6  7  1  0  0  0
  7  8  2  0  0  0
  8  9  1  0  0  0
  9 10  2  0  0  0
 10 11  1  0  0  0
 11 12  2  0  0  0
 10  1  1  0  0  0
  1  2  2  0  0  0
  2 15  1  0  0  0
 15 17  1  0  0  0
 17 18  2  0  0  0
 18 19  1  0  0  0
 19 20  2  0  0  0
 20 21  1  0  0  0
 20 23  1  0  0  0
 23 24  2  0  0  0
 23 25  1  0  0  0
 25 26  1  0  0  0
 26 27  1  0  0  0
 19 22  1  0  0  0
  5 13  1  0  0  0
 13 14  1  0  0  0
  8  3  1  0  0  0
 21 17  1  0  0  0
 12  7  1  0  0  0
 15 16  1  0  0  0
M  END
>  <minimizedAffinity>
-2.03175

>  <minimizedRMSD>
1.66129

$$$$
CHEMBL3986691 PubChem-86304986


 34 38  0  0  0  0  0  0  0  0999 V2000
   12.7572   -7.9860   19.7133 C   0  0  0  0  0  0  0  0  0  0  0  0
   12.1705   -7.7080   21.1211 C   0  0  0  0  0  0  0  0  0  0  0  0
   12.7750   -6.5405   21.7735 N   0  0  0  0  0  0  0  0  0  0  0  0
   14.1535   -6.2163   21.5831 C   0  0  0  0  0  0  0  0  0  0  0  0
   14.7170   -5.3541   22.3068 O   0  0  0  0  0  0  0  0  0  0  0  0
   14.8626   -6.8854   20.5000 C   0  0  0  0  0  0  0  0  0  0  0  0
   16.2148   -6.7588   20.1608 C   0  0  0  0  0  0  0  0  0  0  0  0
   16.3206   -7.5659   19.0389 C   0  0  0  0  0  0  0  0  0  0  0  0
   17.4018   -7.8575   18.2230 C   0  0  0  0  0  0  0  0  0  0  0  0
   17.1886   -8.6891   17.1611 N   0  0  0  0  0  0  0  0  0  0  0  0
   15.9511   -9.2233   16.8956 C   0  0  0  0  0  0  0  0  0  0  0  0
   14.8919   -8.9263   17.7065 N   0  0  0  0  0  0  0  0  0  0  0  0
   15.1009   -8.1050   18.7632 C   0  0  0  0  0  0  0  0  0  0  0  0
   14.1926   -7.6960   19.6552 N   0  0  0  0  0  0  0  0  0  0  0  0
   12.2202   -5.9700   22.3533 H   0  0  0  0  0  0  0  0  0  0  0  0
   11.9952   -7.2827   18.5797 C   0  0  0  0  0  0  0  0  0  0  0  0
   11.0221   -8.2439   17.9242 C   0  0  0  0  0  0  0  0  0  0  0  0
   12.0466   -4.7888   18.6821 C   0  0  0  0  0  0  0  0  0  0  0  0
   11.2534   -6.0320   19.0345 C   0  0  0  0  0  0  0  0  0  0  0  0
   15.7433  -10.0928   15.7743 N   0  0  0  0  0  0  0  0  0  0  0  0
   15.2597  -10.9305   15.9573 H   0  0  0  0  0  0  0  0  0  0  0  0
   16.1580   -9.8839   14.4167 C   0  0  0  0  0  0  0  0  0  0  0  0
   15.2160   -9.5838   13.4823 N   0  0  0  0  0  0  0  0  0  0  0  0
   15.5352   -9.3725   12.1772 C   0  0  0  0  0  0  0  0  0  0  0  0
   16.8672   -9.4571   11.7483 C   0  0  0  0  0  0  0  0  0  0  0  0
   17.8505   -9.7685   12.6965 C   0  0  0  0  0  0  0  0  0  0  0  0
   17.5003   -9.9812   14.0295 C   0  0  0  0  0  0  0  0  0  0  0  0
   17.2139   -9.2427   10.3678 N   0  0  0  0  0  0  0  0  0  0  0  0
   18.4477   -8.5577    9.9988 C   0  0  0  0  0  0  0  0  0  0  0  0
   19.1052   -9.2843    8.8220 C   0  0  0  0  0  0  0  0  0  0  0  0
   18.1766   -9.5017    7.7038 N   0  0  0  0  0  0  0  0  0  0  0  0
   16.9696  -10.2173    8.1410 C   0  0  0  0  0  0  0  0  0  0  0  0
   16.2576   -9.5145    9.3004 C   0  0  0  0  0  0  0  0  0  0  0  0
   17.8117   -8.2254    7.0995 C   0  0  0  0  0  0  0  0  0  0  0  0
 18 19  1  0  0  0
 16 19  1  0  0  0
 16 17  1  0  0  0
  1 16  1  0  0  0
  1  2  1  0  0  0
  2  3  1  0  0  0
  3  4  1  0  0  0
  4  5  2  0  0  0
  4  6  1  0  0  0
  6  7  2  0  0  0
  7  8  1  0  0  0
  8  9  2  0  0  0
  9 10  1  0  0  0
 10 11  2  0  0  0
 11 12  1  0  0  0
 11 20  1  0  0  0
 12 13  2  0  0  0
 13 14  1  0  0  0
 13  8  1  0  0  0
 14  1  1  0  0  0
 14  6  1  0  0  0
 20 22  1  0  0  0
 22 23  2  0  0  0
 23 24  1  0  0  0
 24 25  2  0  0  0
 25 26  1  0  0  0
 25 28  1  0  0  0
 26 27  2  0  0  0
 27 22  1  0  0  0
 28 29  1  0  0  0
 29 30  1  0  0  0
 30 31  1  0  0  0
 31 32  1  0  0  0
 31 34  1  0  0  0
 32 33  1  0  0  0
 33 28  1  0  0  0
  3 15  1  0  0  0
 20 21  1  0  0  0
M  END
>  <minimizedAffinity>
-2.00444

>  <minimizedRMSD>
1.61895

$$$$
CHEMBL4582549 PubChem-155561962


 32 34  0  0  0  0  0  0  0  0999 V2000
   16.3249   -8.5458   15.2975 C   0  0  0  0  0  0  0  0  0  0  0  0
   17.0409   -9.7335   15.4968 C   0  0  0  0  0  0  0  0  0  0  0  0
   17.0849  -10.3101   16.7653 C   0  0  0  0  0  0  0  0  0  0  0  0
   16.4106   -9.7064   17.8252 C   0  0  0  0  0  0  0  0  0  0  0  0
   15.6911   -8.5241   17.6035 C   0  0  0  0  0  0  0  0  0  0  0  0
   15.6671   -7.9848   16.3514 N   0  0  0  0  0  0  0  0  0  0  0  0
   14.9613   -7.8625   18.7061 C   0  0  0  0  0  0  0  0  0  0  0  0
   15.5646   -7.6641   19.9521 C   0  0  0  0  0  0  0  0  0  0  0  0
   14.8728   -7.0367   20.9978 C   0  0  0  0  0  0  0  0  0  0  0  0
   13.5529   -6.5959   20.8037 C   0  0  0  0  0  0  0  0  0  0  0  0
   12.9319   -6.7922   19.5441 C   0  0  0  0  0  0  0  0  0  0  0  0
   13.6483   -7.4233   18.5151 C   0  0  0  0  0  0  0  0  0  0  0  0
   11.6181   -6.3640   19.3206 O   0  0  0  0  0  0  0  0  0  0  0  0
   10.6650   -7.1316   18.5969 C   0  0  0  0  0  0  0  0  0  0  0  0
   12.9145   -5.9748   21.8907 O   0  0  0  0  0  0  0  0  0  0  0  0
   12.8068   -4.5713   22.0809 C   0  0  0  0  0  0  0  0  0  0  0  0
   15.4794   -6.8396   22.2437 O   0  0  0  0  0  0  0  0  0  0  0  0
   16.8327   -6.4294   22.3860 C   0  0  0  0  0  0  0  0  0  0  0  0
   16.2245   -7.9071   13.9630 C   0  0  0  0  0  0  0  0  0  0  0  0
   16.0528   -6.6579   13.9178 O   0  0  0  0  0  0  0  0  0  0  0  0
   17.4928   -8.6761   11.9263 C   0  0  0  0  0  0  0  0  0  0  0  0
   16.3172   -8.6536   12.6825 C   0  0  0  0  0  0  0  0  0  0  0  0
   15.1917   -9.3200   12.1894 C   0  0  0  0  0  0  0  0  0  0  0  0
   15.2352  -10.0150   10.9723 C   0  0  0  0  0  0  0  0  0  0  0  0
   16.4221  -10.0449   10.2216 C   0  0  0  0  0  0  0  0  0  0  0  0
   17.5672   -9.3636   10.7051 C   0  0  0  0  0  0  0  0  0  0  0  0
   18.7634   -9.3700    9.9781 O   0  0  0  0  0  0  0  0  0  0  0  0
   19.4021   -8.1828    9.5266 C   0  0  0  0  0  0  0  0  0  0  0  0
   16.4025  -10.7604    9.0122 O   0  0  0  0  0  0  0  0  0  0  0  0
   16.7503  -10.2270    7.7427 C   0  0  0  0  0  0  0  0  0  0  0  0
   14.1063  -10.6850   10.4870 O   0  0  0  0  0  0  0  0  0  0  0  0
   12.8274  -10.5841   11.0989 C   0  0  0  0  0  0  0  0  0  0  0  0
 21 22  2  0  0  0
 22 23  1  0  0  0
 23 24  2  0  0  0
 24 25  1  0  0  0
 25 26  2  0  0  0
 26 27  1  0  0  0
 27 28  1  0  0  0
 25 29  1  0  0  0
 29 30  1  0  0  0
 24 31  1  0  0  0
 31 32  1  0  0  0
 22 19  1  0  0  0
 19 20  2  0  0  0
 19  1  1  0  0  0
  1  2  2  0  0  0
  2  3  1  0  0  0
  3  4  2  0  0  0
  4  5  1  0  0  0
  5  6  2  0  0  0
  5  7  1  0  0  0
  7  8  2  0  0  0
  8  9  1  0  0  0
  9 10  2  0  0  0
 10 11  1  0  0  0
 11 12  2  0  0  0
 11 13  1  0  0  0
 13 14  1  0  0  0
 10 15  1  0  0  0
 15 16  1  0  0  0
  9 17  1  0  0  0
 17 18  1  0  0  0
 26 21  1  0  0  0
  6  1  1  0  0  0
 12  7  1  0  0  0
M  END
>  <minimizedAffinity>
-1.99698

>  <minimizedRMSD>
1.64399

$$$$
CHEMBL3702242 PubChem-58300122


 34 38  0  0  0  0  0  0  0  0999 V2000
   13.6921   -7.4114   19.0775 N   0  0  0  0  0  0  0  0  0  0  0  0
   14.3882   -6.9063   20.1230 C   0  0  0  0  0  0  0  0  0  0  0  0
   15.7345   -7.1885   20.0183 C   0  0  0  0  0  0  0  0  0  0  0  0
   16.6525   -6.7729   20.9756 C   0  0  0  0  0  0  0  0  0  0  0  0
   16.1395   -6.0451   22.0643 C   0  0  0  0  0  0  0  0  0  0  0  0
   14.7990   -5.7713   22.1561 N   0  0  0  0  0  0  0  0  0  0  0  0
   13.9037   -6.1844   21.2098 C   0  0  0  0  0  0  0  0  0  0  0  0
   15.8822   -7.9028   18.8529 C   0  0  0  0  0  0  0  0  0  0  0  0
   16.9764   -8.4616   18.2134 C   0  0  0  0  0  0  0  0  0  0  0  0
   16.7481   -9.1205   17.0396 N   0  0  0  0  0  0  0  0  0  0  0  0
   15.4884   -9.2328   16.5019 C   0  0  0  0  0  0  0  0  0  0  0  0
   14.4169   -8.6767   17.1442 N   0  0  0  0  0  0  0  0  0  0  0  0
   14.6288   -8.0192   18.3104 C   0  0  0  0  0  0  0  0  0  0  0  0
   12.2516   -7.3121   18.8532 C   0  0  0  0  0  0  0  0  0  0  0  0
   11.9674   -6.5446   17.5712 C   0  0  0  0  0  0  0  0  0  0  0  0
   10.2810   -8.6473   18.1033 C   0  0  0  0  0  0  0  0  0  0  0  0
   11.6238   -8.6975   18.8069 C   0  0  0  0  0  0  0  0  0  0  0  0
   15.2722   -9.9309   15.2697 N   0  0  0  0  0  0  0  0  0  0  0  0
   14.5562  -10.6065   15.2617 H   0  0  0  0  0  0  0  0  0  0  0  0
   15.9962   -9.7419   14.0479 C   0  0  0  0  0  0  0  0  0  0  0  0
   17.1207  -10.4597   13.7735 N   0  0  0  0  0  0  0  0  0  0  0  0
   17.8171  -10.2886   12.6181 C   0  0  0  0  0  0  0  0  0  0  0  0
   17.3895   -9.3562   11.6619 C   0  0  0  0  0  0  0  0  0  0  0  0
   16.2354   -8.6085   11.9341 C   0  0  0  0  0  0  0  0  0  0  0  0
   15.5364   -8.8000   13.1260 C   0  0  0  0  0  0  0  0  0  0  0  0
   18.1246   -9.1609   10.4399 N   0  0  0  0  0  0  0  0  0  0  0  0
   19.4000   -8.4513   10.4356 C   0  0  0  0  0  0  0  0  0  0  0  0
   19.4390   -7.5068    9.2422 C   0  0  0  0  0  0  0  0  0  0  0  0
   19.1897   -8.2458    8.0007 N   0  0  0  0  0  0  0  0  0  0  0  0
   17.8610   -8.8757    8.0088 C   0  0  0  0  0  0  0  0  0  0  0  0
   17.7149   -9.8240    9.2027 C   0  0  0  0  0  0  0  0  0  0  0  0
   17.7051   -9.6884    6.7412 C   0  0  0  0  0  0  0  0  0  0  0  0
   16.7610   -7.8227    8.0312 C   0  0  0  0  0  0  0  0  0  0  0  0
   19.8999   -8.9706    7.8976 H   0  0  0  0  0  0  0  0  0  0  0  0
 16 17  1  0  0  0
 14 17  1  0  0  0
 14 15  1  0  0  0
 14  1  1  0  0  0
  1  2  1  0  0  0
  2  3  2  0  0  0
  3  4  1  0  0  0
  3  8  1  0  0  0
  4  5  2  0  0  0
  5  6  1  0  0  0
  6  7  2  0  0  0
  7  2  1  0  0  0
  8  9  2  0  0  0
  9 10  1  0  0  0
 10 11  2  0  0  0
 11 12  1  0  0  0
 11 18  1  0  0  0
 12 13  2  0  0  0
 13  1  1  0  0  0
 13  8  1  0  0  0
 18 20  1  0  0  0
 20 21  2  0  0  0
 21 22  1  0  0  0
 22 23  2  0  0  0
 23 24  1  0  0  0
 23 26  1  0  0  0
 24 25  2  0  0  0
 25 20  1  0  0  0
 26 27  1  0  0  0
 27 28  1  0  0  0
 28 29  1  0  0  0
 29 30  1  0  0  0
 30 31  1  0  0  0
 30 32  1  0  0  0
 30 33  1  0  0  0
 31 26  1  0  0  0
 18 19  1  0  0  0
 29 34  1  0  0  0
M  END
>  <minimizedAffinity>
-1.94513

>  <minimizedRMSD>
1.67714

$$$$
CHEMBL4646939 PubChem-156020124


 36 40  0  0  0  0  0  0  0  0999 V2000
   16.8869   -7.7584   15.5399 C   0  0  0  0  0  0  0  0  0  0  0  0
   16.5665   -9.7123   10.8551 C   0  0  0  0  0  0  0  0  0  0  0  0
   16.3193   -8.4577   11.4128 C   0  0  0  0  0  0  0  0  0  0  0  0
   16.5236   -8.2447   12.7769 C   0  0  0  0  0  0  0  0  0  0  0  0
   16.9743   -9.2843   13.6125 C   0  0  0  0  0  0  0  0  0  0  0  0
   17.1745   -9.0758   14.9564 N   0  0  0  0  0  0  0  0  0  0  0  0
   17.6281  -10.0928   15.7624 C   0  0  0  0  0  0  0  0  0  0  0  0
   17.8521   -9.8839   17.1369 C   0  0  0  0  0  0  0  0  0  0  0  0
   18.3104  -10.9182   17.9545 C   0  0  0  0  0  0  0  0  0  0  0  0
   18.5544  -12.1799   17.4130 C   0  0  0  0  0  0  0  0  0  0  0  0
   18.3421  -12.4085   16.0530 C   0  0  0  0  0  0  0  0  0  0  0  0
   17.8821  -11.3767   15.2196 C   0  0  0  0  0  0  0  0  0  0  0  0
   17.6730  -11.6038   13.8540 C   0  0  0  0  0  0  0  0  0  0  0  0
   17.8938  -12.7446   13.3576 O   0  0  0  0  0  0  0  0  0  0  0  0
   17.2205  -10.5573   13.0417 C   0  0  0  0  0  0  0  0  0  0  0  0
   17.0101  -10.7590   11.6690 C   0  0  0  0  0  0  0  0  0  0  0  0
   16.3264   -9.9327    9.4004 C   0  0  0  0  0  0  0  0  0  0  0  0
   17.5088   -9.4454    8.5830 C   0  0  0  0  0  0  0  0  0  0  0  0
   15.7018   -7.8358   16.4442 C   0  0  0  0  0  0  0  0  0  0  0  0
   14.4412   -7.5446   16.0698 N   0  0  0  0  0  0  0  0  0  0  0  0
   13.6785   -7.7772   17.1253 N   0  0  0  0  0  0  0  0  0  0  0  0
   14.4186   -8.2137   18.1302 N   0  0  0  0  0  0  0  0  0  0  0  0
   15.7083   -8.2685   17.7550 C   0  0  0  0  0  0  0  0  0  0  0  0
   13.9015   -8.5281   19.4518 C   0  0  0  0  0  0  0  0  0  0  0  0
   13.9309   -7.3147   20.3162 C   0  0  0  0  0  0  0  0  0  0  0  0
   15.0066   -7.0946   21.1739 C   0  0  0  0  0  0  0  0  0  0  0  0
   15.0654   -5.9426   21.9746 C   0  0  0  0  0  0  0  0  0  0  0  0
   14.0152   -4.9908   21.9013 C   0  0  0  0  0  0  0  0  0  0  0  0
   12.9378   -5.2169   21.0261 C   0  0  0  0  0  0  0  0  0  0  0  0
   12.9048   -6.3762   20.2375 C   0  0  0  0  0  0  0  0  0  0  0  0
   16.1535   -5.7417   22.8320 O   0  0  0  0  0  0  0  0  0  0  0  0
   17.4062   -6.3915   22.6603 C   0  0  0  0  0  0  0  0  0  0  0  0
   13.9881   -3.8114   22.6649 O   0  0  0  0  0  0  0  0  0  0  0  0
   13.6134   -3.7330   24.0326 C   0  0  0  0  0  0  0  0  0  0  0  0
   11.9085   -4.2710   20.9561 O   0  0  0  0  0  0  0  0  0  0  0  0
   10.8016   -4.4001   20.0741 C   0  0  0  0  0  0  0  0  0  0  0  0
 17  2  1  0  0  0
  2  3  2  0  0  0
  3  4  1  0  0  0
  4  5  2  0  0  0
  5  6  1  0  0  0
  6  1  1  0  0  0
  1 19  1  0  0  0
 19 20  1  0  0  0
 20 21  2  0  0  0
 21 22  1  0  0  0
 22 24  1  0  0  0
 24 25  1  0  0  0
 25 26  2  0  0  0
 26 27  1  0  0  0
 27 31  1  0  0  0
 31 32  1  0  0  0
 27 28  2  0  0  0
 28 33  1  0  0  0
 33 34  1  0  0  0
 28 29  1  0  0  0
 29 35  1  0  0  0
 35 36  1  0  0  0
 29 30  2  0  0  0
 22 23  1  0  0  0
  6  7  1  0  0  0
  7  8  2  0  0  0
  8  9  1  0  0  0
  9 10  2  0  0  0
 10 11  1  0  0  0
 11 12  2  0  0  0
 12 13  1  0  0  0
 13 14  2  0  0  0
 13 15  1  0  0  0
 15 16  2  0  0  0
 17 18  1  0  0  0
 16  2  1  0  0  0
 15  5  1  0  0  0
 23 19  2  0  0  0
 12  7  1  0  0  0
 30 25  1  0  0  0
M  END
>  <minimizedAffinity>
-1.94335

>  <minimizedRMSD>
1.64333

$$$$
CHEMBL3928167 PubChem-118023095


 37 41  0  0  0  0  0  0  0  0999 V2000
   14.8891   -7.6999   18.2890 C   0  0  0  0  0  0  0  0  0  0  0  0
   14.7920   -7.8376   16.9389 N   0  0  0  0  0  0  0  0  0  0  0  0
   15.6922   -8.5723   16.2346 C   0  0  0  0  0  0  0  0  0  0  0  0
   16.7153   -9.1892   16.8873 N   0  0  0  0  0  0  0  0  0  0  0  0
   16.8516   -9.0807   18.2333 C   0  0  0  0  0  0  0  0  0  0  0  0
   15.9357   -8.3315   18.9686 C   0  0  0  0  0  0  0  0  0  0  0  0
   11.3262   -4.4466   19.1064 C   0  0  0  0  0  0  0  0  0  0  0  0
   12.3585   -5.4910   19.3628 C   0  0  0  0  0  0  0  0  0  0  0  0
   13.1064   -6.0567   18.4022 N   0  0  0  0  0  0  0  0  0  0  0  0
   13.9242   -6.9122   18.9972 N   0  0  0  0  0  0  0  0  0  0  0  0
   13.7260   -6.9132   20.3345 C   0  0  0  0  0  0  0  0  0  0  0  0
   12.7125   -6.0132   20.5876 C   0  0  0  0  0  0  0  0  0  0  0  0
   12.1758   -5.6310   21.9249 C   0  0  0  0  0  0  0  0  0  0  0  0
   13.1233   -4.7663   22.6111 N   0  0  0  0  0  0  0  0  0  0  0  0
   12.3566   -3.9538   23.5395 C   0  0  0  0  0  0  0  0  0  0  0  0
   13.1339   -3.9381   24.8028 C   0  0  0  0  0  0  0  0  0  0  0  0
   13.9086   -5.2129   24.6758 C   0  0  0  0  0  0  0  0  0  0  0  0
   13.9738   -5.5776   23.3139 O   0  0  0  0  0  0  0  0  0  0  0  0
   14.0204   -2.8586   24.7858 O   0  0  0  0  0  0  0  0  0  0  0  0
   14.5712   -2.9050   23.9887 H   0  0  0  0  0  0  0  0  0  0  0  0
   15.5305   -8.7034   14.8184 N   0  0  0  0  0  0  0  0  0  0  0  0
   14.6851   -8.3688   14.4407 H   0  0  0  0  0  0  0  0  0  0  0  0
   16.4652   -9.2688   13.8903 C   0  0  0  0  0  0  0  0  0  0  0  0
   16.2030   -9.1424   12.5144 C   0  0  0  0  0  0  0  0  0  0  0  0
   17.1302   -9.6690   11.6171 C   0  0  0  0  0  0  0  0  0  0  0  0
   18.2736  -10.2876   12.0418 C   0  0  0  0  0  0  0  0  0  0  0  0
   18.5749  -10.4278   13.3954 C   0  0  0  0  0  0  0  0  0  0  0  0
   17.6532   -9.9087   14.3223 C   0  0  0  0  0  0  0  0  0  0  0  0
   19.0014  -10.6974   10.9888 N   0  0  0  0  0  0  0  0  0  0  0  0
   18.3275  -10.3453    9.8698 C   0  0  0  0  0  0  0  0  0  0  0  0
   17.1456   -9.6985   10.2338 C   0  0  0  0  0  0  0  0  0  0  0  0
   20.2812  -11.3835   11.0229 C   0  0  0  0  0  0  0  0  0  0  0  0
   16.1217   -9.1650    9.3138 C   0  0  0  0  0  0  0  0  0  0  0  0
   14.9167   -9.1135    9.6761 O   0  0  0  0  0  0  0  0  0  0  0  0
   16.4839   -8.6625    7.9518 C   0  0  0  0  0  0  0  0  0  0  0  0
   17.1353   -9.6466    7.2282 F   0  0  0  0  0  0  0  0  0  0  0  0
   17.2897   -7.5420    8.0570 F   0  0  0  0  0  0  0  0  0  0  0  0
  7  8  1  0  0  0
  8  9  2  0  0  0
  9 10  1  0  0  0
 10 11  1  0  0  0
 11 12  2  0  0  0
 12 13  1  0  0  0
 13 14  1  0  0  0
 14 15  1  0  0  0
 15 16  1  0  0  0
 16 17  1  0  0  0
 17 18  1  0  0  0
 16 19  1  0  0  0
 10  1  1  0  0  0
  1  2  2  0  0  0
  2  3  1  0  0  0
  3  4  2  0  0  0
  4  5  1  0  0  0
  5  6  2  0  0  0
  3 21  1  0  0  0
 21 23  1  0  0  0
 23 24  2  0  0  0
 24 25  1  0  0  0
 25 26  2  0  0  0
 26 27  1  0  0  0
 27 28  2  0  0  0
 26 29  1  0  0  0
 29 30  1  0  0  0
 30 31  2  0  0  0
 31 33  1  0  0  0
 33 34  2  0  0  0
 33 35  1  0  0  0
 35 36  1  0  0  0
 35 37  1  0  0  0
 29 32  1  0  0  0
 12  8  1  0  0  0
 18 14  1  0  0  0
  6  1  1  0  0  0
 28 23  1  0  0  0
 31 25  1  0  0  0
 19 20  1  0  0  0
 21 22  1  0  0  0
M  END
>  <minimizedAffinity>
-1.91051

>  <minimizedRMSD>
1.82728

$$$$
CHEMBL3698743 PubChem-58299754


 35 40  0  0  0  0  0  0  0  0999 V2000
   14.9667   -7.8643   17.7237 C   0  0  0  0  0  0  0  0  0  0  0  0
   16.2850   -8.1098   18.0244 N   0  0  0  0  0  0  0  0  0  0  0  0
   16.8294   -7.7571   19.2256 C   0  0  0  0  0  0  0  0  0  0  0  0
   15.9988   -7.1354   20.1431 C   0  0  0  0  0  0  0  0  0  0  0  0
   16.1935   -6.6526   21.4155 C   0  0  0  0  0  0  0  0  0  0  0  0
   14.9778   -6.1387   21.8171 C   0  0  0  0  0  0  0  0  0  0  0  0
   14.8384   -5.5665   23.0783 C   0  0  0  0  0  0  0  0  0  0  0  0
   15.9357   -5.5329   23.8923 N   0  0  0  0  0  0  0  0  0  0  0  0
   17.1498   -6.0394   23.5052 C   0  0  0  0  0  0  0  0  0  0  0  0
   17.3150   -6.6227   22.2362 C   0  0  0  0  0  0  0  0  0  0  0  0
   14.0365   -6.2792   20.8544 N   0  0  0  0  0  0  0  0  0  0  0  0
   14.6850   -6.8934   19.8358 C   0  0  0  0  0  0  0  0  0  0  0  0
   14.1580   -7.2493   18.6387 N   0  0  0  0  0  0  0  0  0  0  0  0
   12.6400   -5.8537   20.9259 C   0  0  0  0  0  0  0  0  0  0  0  0
   11.7423   -6.8124   20.1660 C   0  0  0  0  0  0  0  0  0  0  0  0
   10.7206   -5.9425   19.4720 C   0  0  0  0  0  0  0  0  0  0  0  0
   11.4288   -4.6342   19.2010 C   0  0  0  0  0  0  0  0  0  0  0  0
   12.4557   -4.4774   20.3057 C   0  0  0  0  0  0  0  0  0  0  0  0
   14.4172   -8.2408   16.4555 N   0  0  0  0  0  0  0  0  0  0  0  0
   13.4356   -8.2435   16.3795 H   0  0  0  0  0  0  0  0  0  0  0  0
   16.5829   -9.3290   13.0323 C   0  0  0  0  0  0  0  0  0  0  0  0
   15.8620   -8.1750   13.0860 N   0  0  0  0  0  0  0  0  0  0  0  0
   15.1731   -7.8294   14.1755 N   0  0  0  0  0  0  0  0  0  0  0  0
   15.1574   -8.6138   15.2871 C   0  0  0  0  0  0  0  0  0  0  0  0
   15.8787   -9.8053   15.2878 C   0  0  0  0  0  0  0  0  0  0  0  0
   16.5979  -10.1673   14.1521 C   0  0  0  0  0  0  0  0  0  0  0  0
   20.2889   -8.1764   10.0978 C   0  0  0  0  0  0  0  0  0  0  0  0
   18.8354   -8.5248   10.3376 C   0  0  0  0  0  0  0  0  0  0  0  0
   18.7003   -9.2510   11.6729 C   0  0  0  0  0  0  0  0  0  0  0  0
   17.3130   -9.6713   11.8433 N   0  0  0  0  0  0  0  0  0  0  0  0
   16.6828  -10.3921   10.7396 C   0  0  0  0  0  0  0  0  0  0  0  0
   16.9208   -9.6213    9.4427 C   0  0  0  0  0  0  0  0  0  0  0  0
   18.3524   -9.3823    9.2548 N   0  0  0  0  0  0  0  0  0  0  0  0
   16.3833  -10.4207    8.2750 C   0  0  0  0  0  0  0  0  0  0  0  0
   18.5080   -8.9220    8.3580 H   0  0  0  0  0  0  0  0  0  0  0  0
 28 27  1  0  0  0
 28 29  1  0  0  0
 29 30  1  0  0  0
 30 31  1  0  0  0
 30 21  1  0  0  0
 31 32  1  0  0  0
 32 33  1  0  0  0
 32 34  1  0  0  0
 33 28  1  0  0  0
 21 22  2  0  0  0
 22 23  1  0  0  0
 23 24  2  0  0  0
 24 25  1  0  0  0
 24 19  1  0  0  0
 25 26  2  0  0  0
 26 21  1  0  0  0
 19  1  1  0  0  0
  1  2  2  0  0  0
  2  3  1  0  0  0
  3  4  2  0  0  0
  4  5  1  0  0  0
  5  6  2  0  0  0
  6  7  1  0  0  0
  6 11  1  0  0  0
  7  8  2  0  0  0
  8  9  1  0  0  0
  9 10  2  0  0  0
 10  5  1  0  0  0
 11 12  1  0  0  0
 11 14  1  0  0  0
 12 13  2  0  0  0
 12  4  1  0  0  0
 13  1  1  0  0  0
 14 15  1  0  0  0
 15 16  1  0  0  0
 16 17  1  0  0  0
 17 18  1  0  0  0
 18 14  1  0  0  0
 33 35  1  0  0  0
 19 20  1  0  0  0
M  END
>  <minimizedAffinity>
-1.87049

>  <minimizedRMSD>
1.98590

$$$$
CHEMBL2407984 PubChem-66716805


 34 37  0  0  0  0  0  0  0  0999 V2000
   14.6470   -8.1769   18.6739 N   0  0  0  0  0  0  0  0  0  0  0  0
   15.6775   -9.2044   18.5915 C   0  0  0  0  0  0  0  0  0  0  0  0
   16.7805   -8.7334   17.6386 C   0  0  0  0  0  0  0  0  0  0  0  0
   16.2504   -8.3134   16.3319 N   0  0  0  0  0  0  0  0  0  0  0  0
   15.2081   -7.2848   16.4775 C   0  0  0  0  0  0  0  0  0  0  0  0
   14.0765   -7.7286   17.4099 C   0  0  0  0  0  0  0  0  0  0  0  0
   14.0832   -6.0189   22.3080 C   0  0  0  0  0  0  0  0  0  0  0  0
   15.3576   -6.4379   21.9106 C   0  0  0  0  0  0  0  0  0  0  0  0
   15.5277   -7.1462   20.7201 C   0  0  0  0  0  0  0  0  0  0  0  0
   14.4305   -7.4478   19.8976 C   0  0  0  0  0  0  0  0  0  0  0  0
   13.1401   -7.0349   20.3063 C   0  0  0  0  0  0  0  0  0  0  0  0
   11.9125   -7.3784   19.5336 C   0  0  0  0  0  0  0  0  0  0  0  0
   12.9803   -6.3279   21.5021 C   0  0  0  0  0  0  0  0  0  0  0  0
   14.8817   -5.3709   24.6034 N   0  0  0  0  0  0  0  0  0  0  0  0
   13.9028   -5.2726   23.5656 C   0  0  0  0  0  0  0  0  0  0  0  0
   12.8840   -4.5461   23.7277 O   0  0  0  0  0  0  0  0  0  0  0  0
   15.6710   -5.9421   24.4620 H   0  0  0  0  0  0  0  0  0  0  0  0
   15.8398   -5.0958   26.8115 C   0  0  0  0  0  0  0  0  0  0  0  0
   14.7480   -4.6539   25.8603 C   0  0  0  0  0  0  0  0  0  0  0  0
   15.7153   -9.4689   15.6155 C   0  0  0  0  0  0  0  0  0  0  0  0
   16.4938   -9.7060   14.3668 C   0  0  0  0  0  0  0  0  0  0  0  0
   17.6137  -10.5468   14.3792 C   0  0  0  0  0  0  0  0  0  0  0  0
   18.3349  -10.7785   13.2036 C   0  0  0  0  0  0  0  0  0  0  0  0
   19.5229  -11.6769   13.2447 C   0  0  0  0  0  0  0  0  0  0  0  0
   17.9290  -10.1741   12.0025 C   0  0  0  0  0  0  0  0  0  0  0  0
   16.8065   -9.3308   11.9950 C   0  0  0  0  0  0  0  0  0  0  0  0
   16.0913   -9.0992   13.1736 C   0  0  0  0  0  0  0  0  0  0  0  0
   16.4149   -8.6878   10.7850 N   0  0  0  0  0  0  0  0  0  0  0  0
   17.1318   -8.9253    9.5737 C   0  0  0  0  0  0  0  0  0  0  0  0
   16.8335   -8.2752    8.5373 O   0  0  0  0  0  0  0  0  0  0  0  0
   18.2251   -9.9574    9.5213 C   0  0  0  0  0  0  0  0  0  0  0  0
   17.7886  -11.1479    8.6881 C   0  0  0  0  0  0  0  0  0  0  0  0
   18.6415  -10.4080   10.8170 O   0  0  0  0  0  0  0  0  0  0  0  0
   15.6441   -8.0753   10.7845 H   0  0  0  0  0  0  0  0  0  0  0  0
 18 19  1  0  0  0
 19 14  1  0  0  0
 14 15  1  0  0  0
 15 16  2  0  0  0
 15  7  1  0  0  0
  7  8  2  0  0  0
  8  9  1  0  0  0
  9 10  2  0  0  0
 10  1  1  0  0  0
 10 11  1  0  0  0
  1  2  1  0  0  0
  2  3  1  0  0  0
  3  4  1  0  0  0
  4 20  1  0  0  0
  4  5  1  0  0  0
 20 21  1  0  0  0
 21 22  2  0  0  0
 22 23  1  0  0  0
 23 24  1  0  0  0
 23 25  2  0  0  0
 25 26  1  0  0  0
 26 27  2  0  0  0
 26 28  1  0  0  0
 27 21  1  0  0  0
 28 29  1  0  0  0
 29 30  2  0  0  0
 29 31  1  0  0  0
 31 32  1  0  0  0
 31 33  1  0  0  0
 33 25  1  0  0  0
  5  6  1  0  0  0
  6  1  1  0  0  0
 11 12  1  0  0  0
 11 13  2  0  0  0
 13  7  1  0  0  0
 14 17  1  0  0  0
 28 34  1  0  0  0
M  END
>  <minimizedAffinity>
-1.82873

>  <minimizedRMSD>
1.89692

$$$$
CHEMBL4578006 PubChem-140914379


 33 36  0  0  0  0  0  0  0  0999 V2000
   17.0726   -9.6917   14.1776 C   0  0  0  0  0  0  0  0  0  0  0  0
   17.5139  -10.6825   15.0879 C   0  0  0  0  0  0  0  0  0  0  0  0
   17.1708  -10.5972   16.4443 C   0  0  0  0  0  0  0  0  0  0  0  0
   16.4142   -9.5474   16.8433 N   0  0  0  0  0  0  0  0  0  0  0  0
   15.9783   -8.5903   16.0136 C   0  0  0  0  0  0  0  0  0  0  0  0
   16.2865   -8.6210   14.6568 C   0  0  0  0  0  0  0  0  0  0  0  0
   15.2453   -7.6497   16.6331 N   0  0  0  0  0  0  0  0  0  0  0  0
   15.2373   -8.0665   17.9248 C   0  0  0  0  0  0  0  0  0  0  0  0
   15.9627   -9.2486   18.0690 C   0  0  0  0  0  0  0  0  0  0  0  0
   17.7987   -8.3968    9.8941 N   0  0  0  0  0  0  0  0  0  0  0  0
   16.9175   -8.1200   11.0360 C   0  0  0  0  0  0  0  0  0  0  0  0
   16.4467   -9.3752   11.7680 C   0  0  0  0  0  0  0  0  0  0  0  0
   17.4249   -9.7726   12.7812 N   0  0  0  0  0  0  0  0  0  0  0  0
   18.7440  -10.2938   12.3998 C   0  0  0  0  0  0  0  0  0  0  0  0
   18.9417  -10.3997   10.8926 C   0  0  0  0  0  0  0  0  0  0  0  0
   19.0795   -9.0144   10.2650 C   0  0  0  0  0  0  0  0  0  0  0  0
   16.2462  -10.4809    9.1435 O   0  0  0  0  0  0  0  0  0  0  0  0
   16.9588   -9.2617    8.5963 P   0  0  0  0  0  0  0  0  0  0  0  0
   15.7938   -8.2368    7.9106 O   0  0  0  0  0  0  0  0  0  0  0  0
   16.5046   -7.3648    7.0844 C   0  0  0  0  0  0  0  0  0  0  0  0
   18.0616   -9.7175    7.3823 O   0  0  0  0  0  0  0  0  0  0  0  0
   18.4144  -11.0427    7.6457 C   0  0  0  0  0  0  0  0  0  0  0  0
   14.5480   -7.3548   19.0275 C   0  0  0  0  0  0  0  0  0  0  0  0
   13.2268   -6.8684   18.9029 C   0  0  0  0  0  0  0  0  0  0  0  0
   12.6334   -6.2025   19.9879 C   0  0  0  0  0  0  0  0  0  0  0  0
   13.3275   -6.0122   21.1907 C   0  0  0  0  0  0  0  0  0  0  0  0
   14.6358   -6.4963   21.3074 C   0  0  0  0  0  0  0  0  0  0  0  0
   15.2343   -7.1593   20.2353 C   0  0  0  0  0  0  0  0  0  0  0  0
   15.5463   -6.2834   22.7918 Cl  0  0  0  0  0  0  0  0  0  0  0  0
   12.7368   -5.3488   22.2720 O   0  0  0  0  0  0  0  0  0  0  0  0
   12.4959   -3.9482   22.2768 C   0  0  0  0  0  0  0  0  0  0  0  0
   12.5165   -7.0484   17.7097 O   0  0  0  0  0  0  0  0  0  0  0  0
   11.1342   -7.3775   17.6743 C   0  0  0  0  0  0  0  0  0  0  0  0
 17 18  2  0  0  0
 18 19  1  0  0  0
 19 20  1  0  0  0
 18 10  1  0  0  0
 10 11  1  0  0  0
 11 12  1  0  0  0
 12 13  1  0  0  0
 13  1  1  0  0  0
  1  2  1  0  0  0
  2  3  2  0  0  0
  3  4  1  0  0  0
  4  5  1  0  0  0
  5  6  1  0  0  0
  5  7  2  0  0  0
  7  8  1  0  0  0
  8  9  2  0  0  0
  8 23  1  0  0  0
 23 24  2  0  0  0
 24 25  1  0  0  0
 25 26  2  0  0  0
 26 27  1  0  0  0
 27 28  2  0  0  0
 27 29  1  0  0  0
 26 30  1  0  0  0
 30 31  1  0  0  0
 24 32  1  0  0  0
 32 33  1  0  0  0
 13 14  1  0  0  0
 14 15  1  0  0  0
 15 16  1  0  0  0
 18 21  1  0  0  0
 21 22  1  0  0  0
 16 10  1  0  0  0
  6  1  2  0  0  0
 28 23  1  0  0  0
  9  4  1  0  0  0
M  END
>  <minimizedAffinity>
-1.80204

>  <minimizedRMSD>
1.70975

$$$$
CHEMBL4546280 PubChem-135335134


 31 34  0  0  0  0  0  0  0  0999 V2000
   16.7482   -9.4612   13.9873 C   0  0  0  0  0  0  0  0  0  0  0  0
   15.9079   -8.5736   14.6029 N   0  0  0  0  0  0  0  0  0  0  0  0
   15.8505   -8.5461   15.9566 C   0  0  0  0  0  0  0  0  0  0  0  0
   15.0710   -7.7265   16.6805 N   0  0  0  0  0  0  0  0  0  0  0  0
   15.3698   -8.0800   17.9575 C   0  0  0  0  0  0  0  0  0  0  0  0
   16.3203   -9.1026   17.9833 C   0  0  0  0  0  0  0  0  0  0  0  0
   16.5972   -9.3678   16.7000 N   0  0  0  0  0  0  0  0  0  0  0  0
   17.4502  -10.2713   16.1658 C   0  0  0  0  0  0  0  0  0  0  0  0
   17.5409  -10.3334   14.7696 C   0  0  0  0  0  0  0  0  0  0  0  0
   14.7632   -7.4581   19.1588 C   0  0  0  0  0  0  0  0  0  0  0  0
   15.5349   -7.3549   20.3256 C   0  0  0  0  0  0  0  0  0  0  0  0
   15.0168   -6.7791   21.4864 C   0  0  0  0  0  0  0  0  0  0  0  0
   13.7048   -6.2911   21.5018 C   0  0  0  0  0  0  0  0  0  0  0  0
   12.9255   -6.3895   20.3408 C   0  0  0  0  0  0  0  0  0  0  0  0
   13.4378   -6.9673   19.1675 C   0  0  0  0  0  0  0  0  0  0  0  0
   16.0322   -6.6792   22.9136 Cl  0  0  0  0  0  0  0  0  0  0  0  0
   12.6431   -7.0562   18.0181 O   0  0  0  0  0  0  0  0  0  0  0  0
   11.2285   -6.9196   18.0432 C   0  0  0  0  0  0  0  0  0  0  0  0
   13.1950   -5.7154   22.6709 O   0  0  0  0  0  0  0  0  0  0  0  0
   11.8925   -5.1519   22.7464 C   0  0  0  0  0  0  0  0  0  0  0  0
   17.8289   -8.6746   10.0377 N   0  0  0  0  0  0  0  0  0  0  0  0
   18.6145   -9.5634   10.9099 C   0  0  0  0  0  0  0  0  0  0  0  0
   17.7389  -10.3888   11.8535 C   0  0  0  0  0  0  0  0  0  0  0  0
   16.8203   -9.5011   12.5530 N   0  0  0  0  0  0  0  0  0  0  0  0
   15.9986   -8.6205   11.7360 C   0  0  0  0  0  0  0  0  0  0  0  0
   16.9026   -7.8198   10.7976 C   0  0  0  0  0  0  0  0  0  0  0  0
   16.9885   -9.5621    8.7918 S   0  0  0  0  0  0  0  0  0  0  0  0
   15.9149   -8.6895    8.2047 O   0  0  0  0  0  0  0  0  0  0  0  0
   16.3529  -10.8048    9.3524 O   0  0  0  0  0  0  0  0  0  0  0  0
   18.9507  -11.2082    7.8806 C   0  0  0  0  0  0  0  0  0  0  0  0
   18.1186  -10.0044    7.4850 C   0  0  0  0  0  0  0  0  0  0  0  0
 30 31  1  0  0  0
 31 27  1  0  0  0
 27 28  2  0  0  0
 27 29  2  0  0  0
 27 21  1  0  0  0
 21 22  1  0  0  0
 22 23  1  0  0  0
 23 24  1  0  0  0
 24 25  1  0  0  0
 25 26  1  0  0  0
 24  1  1  0  0  0
  1  2  2  0  0  0
  2  3  1  0  0  0
  3  4  2  0  0  0
  4  5  1  0  0  0
  5  6  2  0  0  0
  6  7  1  0  0  0
  7  8  1  0  0  0
  8  9  2  0  0  0
  5 10  1  0  0  0
 10 11  2  0  0  0
 11 12  1  0  0  0
 12 13  2  0  0  0
 13 14  1  0  0  0
 14 15  2  0  0  0
 15 17  1  0  0  0
 17 18  1  0  0  0
 13 19  1  0  0  0
 19 20  1  0  0  0
 12 16  1  0  0  0
 26 21  1  0  0  0
  9  1  1  0  0  0
  7  3  1  0  0  0
 15 10  1  0  0  0
M  END
>  <minimizedAffinity>
-1.79851

>  <minimizedRMSD>
1.52725

$$$$
CHEMBL1439938 MolPort-001-840-877 PubChem-5703458 ZINC000012369127 ZINC12369127 ZINC38145415


 33 35  0  0  0  0  0  0  0  0999 V2000
   16.9300   -9.9569   14.1660 C   0  0  0  0  0  0  0  0  0  0  0  0
   16.2976   -9.1569   15.0375 C   0  0  0  0  0  0  0  0  0  0  0  0
   15.3868   -8.0270   14.6195 C   0  0  0  0  0  0  0  0  0  0  0  0
   15.4225   -6.9826   15.5672 O   0  0  0  0  0  0  0  0  0  0  0  0
   14.8104   -7.4689   16.7394 C   0  0  0  0  0  0  0  0  0  0  0  0
   15.7036   -8.4873   17.3981 C   0  0  0  0  0  0  0  0  0  0  0  0
   15.8886   -8.5686   18.7241 C   0  0  0  0  0  0  0  0  0  0  0  0
   16.4161   -9.4030   16.4884 C   0  0  0  0  0  0  0  0  0  0  0  0
   17.1198  -10.3510   16.9354 O   0  0  0  0  0  0  0  0  0  0  0  0
   15.8188  -10.0875   10.5195 C   0  0  0  0  0  0  0  0  0  0  0  0
   15.7897  -10.1759   11.9200 C   0  0  0  0  0  0  0  0  0  0  0  0
   16.9196   -9.8865   12.6904 C   0  0  0  0  0  0  0  0  0  0  0  0
   18.0941   -9.5011   12.0472 C   0  0  0  0  0  0  0  0  0  0  0  0
   18.1541   -9.4038   10.6494 C   0  0  0  0  0  0  0  0  0  0  0  0
   17.0185   -9.6942    9.8743 C   0  0  0  0  0  0  0  0  0  0  0  0
   13.3533  -10.2181   10.2826 C   0  0  0  0  0  0  0  0  0  0  0  0
   14.6710  -10.3859    9.7755 O   0  0  0  0  0  0  0  0  0  0  0  0
   19.3352   -9.0158   10.0064 O   0  0  0  0  0  0  0  0  0  0  0  0
   20.3769   -9.9294    9.6899 C   0  0  0  0  0  0  0  0  0  0  0  0
   17.1420   -9.5758    8.4795 O   0  0  0  0  0  0  0  0  0  0  0  0
   16.8997   -8.3896    7.7363 C   0  0  0  0  0  0  0  0  0  0  0  0
   15.2754   -7.7388   19.7812 C   0  0  0  0  0  0  0  0  0  0  0  0
   13.9000   -7.5038   19.8653 C   0  0  0  0  0  0  0  0  0  0  0  0
   13.3559   -6.7116   20.8881 C   0  0  0  0  0  0  0  0  0  0  0  0
   14.2197   -6.1400   21.8565 C   0  0  0  0  0  0  0  0  0  0  0  0
   15.6023   -6.3773   21.7719 C   0  0  0  0  0  0  0  0  0  0  0  0
   16.1163   -7.1727   20.7372 C   0  0  0  0  0  0  0  0  0  0  0  0
   11.9742   -6.4942   20.9443 O   0  0  0  0  0  0  0  0  0  0  0  0
   11.3017   -5.5622   20.1077 C   0  0  0  0  0  0  0  0  0  0  0  0
   13.7670   -5.3355   22.9161 O   0  0  0  0  0  0  0  0  0  0  0  0
   13.4717   -3.9494   22.8197 C   0  0  0  0  0  0  0  0  0  0  0  0
   16.4496   -5.8116   22.7320 O   0  0  0  0  0  0  0  0  0  0  0  0
   17.3635   -6.5806   23.5028 C   0  0  0  0  0  0  0  0  0  0  0  0
 16 17  1  0  0  0
 17 10  1  0  0  0
 10 11  2  0  0  0
 11 12  1  0  0  0
 12  1  1  0  0  0
 12 13  2  0  0  0
  1  2  2  0  0  0
  2  3  1  0  0  0
  3  4  1  0  0  0
  4  5  1  0  0  0
  5  6  1  0  0  0
  6  7  2  0  0  0
  6  8  1  0  0  0
  7 22  1  0  0  0
 22 23  2  0  0  0
 23 24  1  0  0  0
 24 28  1  0  0  0
 24 25  2  0  0  0
 28 29  1  0  0  0
 25 30  1  0  0  0
 25 26  1  0  0  0
 30 31  1  0  0  0
 26 32  1  0  0  0
 26 27  2  0  0  0
 32 33  1  0  0  0
 27 22  1  0  0  0
  8  9  2  0  0  0
  8  2  1  0  0  0
 13 14  1  0  0  0
 14 18  1  0  0  0
 14 15  2  0  0  0
 18 19  1  0  0  0
 15 20  1  0  0  0
 15 10  1  0  0  0
 20 21  1  0  0  0
M  END
>  <minimizedAffinity>
-1.74166

>  <minimizedRMSD>
1.77397

$$$$
CHEMBL4932706 ChemDiv-V004-9723 MCULE-2540752248 MolPort-016-923-326 PubChem-42670301 ZINC000035987940 ZINC35987940


 34 36  0  0  0  0  0  0  0  0999 V2000
   15.7247   -9.0796   15.5712 C   0  0  0  0  0  0  0  0  0  0  0  0
   14.6171   -8.2343   15.6890 C   0  0  0  0  0  0  0  0  0  0  0  0
   14.3022   -7.6675   16.8806 N   0  0  0  0  0  0  0  0  0  0  0  0
   15.0563   -7.8993   17.9869 C   0  0  0  0  0  0  0  0  0  0  0  0
   16.1267   -8.7323   17.9037 N   0  0  0  0  0  0  0  0  0  0  0  0
   16.4783   -9.3407   16.7393 C   0  0  0  0  0  0  0  0  0  0  0  0
   14.7152   -7.2594   19.2706 C   0  0  0  0  0  0  0  0  0  0  0  0
   13.4772   -6.6378   19.4486 C   0  0  0  0  0  0  0  0  0  0  0  0
   13.1479   -6.0246   20.6660 C   0  0  0  0  0  0  0  0  0  0  0  0
   14.0684   -6.0282   21.7281 C   0  0  0  0  0  0  0  0  0  0  0  0
   15.3285   -6.6558   21.5549 C   0  0  0  0  0  0  0  0  0  0  0  0
   15.6308   -7.2626   20.3261 C   0  0  0  0  0  0  0  0  0  0  0  0
   11.9067   -5.4026   20.8441 O   0  0  0  0  0  0  0  0  0  0  0  0
   10.9133   -5.3592   19.8284 C   0  0  0  0  0  0  0  0  0  0  0  0
   13.6783   -5.3970   22.9213 O   0  0  0  0  0  0  0  0  0  0  0  0
   13.9636   -4.0480   23.2622 C   0  0  0  0  0  0  0  0  0  0  0  0
   16.2675   -6.6741   22.5928 O   0  0  0  0  0  0  0  0  0  0  0  0
   17.6378   -6.3457   22.4039 C   0  0  0  0  0  0  0  0  0  0  0  0
   16.0525   -8.7098   13.1042 N   0  0  0  0  0  0  0  0  0  0  0  0
   16.0835   -9.5912   14.2301 C   0  0  0  0  0  0  0  0  0  0  0  0
   16.4593  -10.7854   14.0788 O   0  0  0  0  0  0  0  0  0  0  0  0
   15.7748   -7.7748   13.2381 H   0  0  0  0  0  0  0  0  0  0  0  0
   16.4179   -9.1510   11.7688 C   0  0  0  0  0  0  0  0  0  0  0  0
   17.8795   -9.5472   11.7505 C   0  0  0  0  0  0  0  0  0  0  0  0
   18.0199   -8.6021    9.7635 C   0  0  0  0  0  0  0  0  0  0  0  0
   18.2779   -9.7946   10.4379 O   0  0  0  0  0  0  0  0  0  0  0  0
   17.5832  -10.2621   16.7441 N   0  0  0  0  0  0  0  0  0  0  0  0
   17.3810  -11.6323   17.1888 C   0  0  0  0  0  0  0  0  0  0  0  0
   18.9547   -9.8205   16.5035 C   0  0  0  0  0  0  0  0  0  0  0  0
   19.2154   -8.4382   17.1282 C   0  0  0  0  0  0  0  0  0  0  0  0
   20.2422   -7.6061   16.3525 C   0  0  0  0  0  0  0  0  0  0  0  0
   21.3338   -8.4978   15.7696 C   0  0  0  0  0  0  0  0  0  0  0  0
   20.7619   -9.5022   14.7591 C   0  0  0  0  0  0  0  0  0  0  0  0
   19.2929   -9.8658   15.0119 C   0  0  0  0  0  0  0  0  0  0  0  0
 25 26  1  0  0  0
 26 24  1  0  0  0
 24 23  1  0  0  0
 23 19  1  0  0  0
 19 20  1  0  0  0
 20 21  2  0  0  0
 20  1  1  0  0  0
  1  2  2  0  0  0
  2  3  1  0  0  0
  3  4  2  0  0  0
  4  5  1  0  0  0
  5  6  2  0  0  0
  6 27  1  0  0  0
 27 28  1  0  0  0
 27 29  1  0  0  0
 29 30  1  0  0  0
 30 31  1  0  0  0
 31 32  1  0  0  0
 32 33  1  0  0  0
 33 34  1  0  0  0
  4  7  1  0  0  0
  7  8  2  0  0  0
  8  9  1  0  0  0
  9 13  1  0  0  0
 13 14  1  0  0  0
  9 10  2  0  0  0
 10 15  1  0  0  0
 15 16  1  0  0  0
 10 11  1  0  0  0
 11 17  1  0  0  0
 17 18  1  0  0  0
 11 12  2  0  0  0
  6  1  1  0  0  0
 34 29  1  0  0  0
 12  7  1  0  0  0
 19 22  1  0  0  0
M  END
>  <minimizedAffinity>
-1.72678

>  <minimizedRMSD>
1.96642

$$$$
CHEMBL2138715 PubChem-42190643


 31 34  0  0  0  0  0  0  0  0999 V2000
   12.7158   -5.3487   19.8338 C   0  0  0  0  0  0  0  0  0  0  0  0
   14.0115   -5.8077   20.1253 C   0  0  0  0  0  0  0  0  0  0  0  0
   14.5789   -6.8551   19.3960 C   0  0  0  0  0  0  0  0  0  0  0  0
   13.8532   -7.4394   18.3361 C   0  0  0  0  0  0  0  0  0  0  0  0
   12.5633   -6.9867   18.0497 C   0  0  0  0  0  0  0  0  0  0  0  0
   11.9876   -5.9414   18.7901 C   0  0  0  0  0  0  0  0  0  0  0  0
   14.4061   -8.5920   17.5459 C   0  0  0  0  0  0  0  0  0  0  0  0
   15.8367   -8.7699   17.7930 N   0  0  0  0  0  0  0  0  0  0  0  0
   16.7372   -9.2566   16.7784 C   0  0  0  0  0  0  0  0  0  0  0  0
   17.9020   -9.6127   17.1084 O   0  0  0  0  0  0  0  0  0  0  0  0
   16.3007   -8.6573   19.1730 C   0  0  0  0  0  0  0  0  0  0  0  0
   15.9924   -7.2613   19.6996 C   0  0  0  0  0  0  0  0  0  0  0  0
   16.3563   -9.3405   15.3516 C   0  0  0  0  0  0  0  0  0  0  0  0
   16.8363   -8.5032   14.3564 C   0  0  0  0  0  0  0  0  0  0  0  0
   16.1748   -8.9763   13.2407 C   0  0  0  0  0  0  0  0  0  0  0  0
   15.4006   -9.9799   13.5672 O   0  0  0  0  0  0  0  0  0  0  0  0
   15.4803  -10.2268   14.8392 N   0  0  0  0  0  0  0  0  0  0  0  0
   16.3294   -8.4548   11.8570 C   0  0  0  0  0  0  0  0  0  0  0  0
   17.4633   -9.0583   11.2462 O   0  0  0  0  0  0  0  0  0  0  0  0
   17.9244   -8.6948    9.9762 C   0  0  0  0  0  0  0  0  0  0  0  0
   19.1000   -7.9402    9.8181 C   0  0  0  0  0  0  0  0  0  0  0  0
   19.5492   -7.5877    8.5432 C   0  0  0  0  0  0  0  0  0  0  0  0
   18.8282   -7.9858    7.4154 C   0  0  0  0  0  0  0  0  0  0  0  0
   17.6572   -8.7343    7.5626 C   0  0  0  0  0  0  0  0  0  0  0  0
   17.2037   -9.0918    8.8371 C   0  0  0  0  0  0  0  0  0  0  0  0
   15.6904  -10.0411    8.9897 S   0  0  0  0  0  0  0  0  0  0  0  0
   16.5773  -11.6263    8.9598 C   0  0  0  0  0  0  0  0  0  0  0  0
   12.7539   -3.7289   21.7066 C   0  0  0  0  0  0  0  0  0  0  0  0
   12.1361   -4.3044   20.5629 O   0  0  0  0  0  0  0  0  0  0  0  0
   10.6989   -5.4743   18.5040 O   0  0  0  0  0  0  0  0  0  0  0  0
    9.6145   -5.6011   19.4137 C   0  0  0  0  0  0  0  0  0  0  0  0
 28 29  1  0  0  0
 29  1  1  0  0  0
  1  2  2  0  0  0
  2  3  1  0  0  0
  3  4  2  0  0  0
  4  5  1  0  0  0
  4  7  1  0  0  0
  5  6  2  0  0  0
  6 30  1  0  0  0
  6  1  1  0  0  0
 30 31  1  0  0  0
  7  8  1  0  0  0
  8  9  1  0  0  0
  8 11  1  0  0  0
  9 10  2  0  0  0
  9 13  1  0  0  0
 13 14  1  0  0  0
 14 15  2  0  0  0
 15 18  1  0  0  0
 15 16  1  0  0  0
 18 19  1  0  0  0
 19 20  1  0  0  0
 20 21  2  0  0  0
 21 22  1  0  0  0
 22 23  2  0  0  0
 23 24  1  0  0  0
 24 25  2  0  0  0
 25 26  1  0  0  0
 25 20  1  0  0  0
 26 27  1  0  0  0
 16 17  1  0  0  0
 17 13  2  0  0  0
 11 12  1  0  0  0
 12  3  1  0  0  0
M  END
>  <minimizedAffinity>
-1.71822

>  <minimizedRMSD>
1.70895

$$$$
CHEMBL2407973 PubChem-66716841


 33 36  0  0  0  0  0  0  0  0999 V2000
   14.4395   -7.9045   17.8946 N   0  0  0  0  0  0  0  0  0  0  0  0
   14.0160   -9.2961   17.7545 C   0  0  0  0  0  0  0  0  0  0  0  0
   15.2144  -10.1412   17.3273 C   0  0  0  0  0  0  0  0  0  0  0  0
   15.8014   -9.5877   16.1070 N   0  0  0  0  0  0  0  0  0  0  0  0
   16.3341   -8.2576   16.4095 C   0  0  0  0  0  0  0  0  0  0  0  0
   15.1918   -7.3178   16.7885 C   0  0  0  0  0  0  0  0  0  0  0  0
   14.2855   -5.9646   21.6851 C   0  0  0  0  0  0  0  0  0  0  0  0
   15.2861   -6.8989   21.3958 C   0  0  0  0  0  0  0  0  0  0  0  0
   15.3220   -7.5326   20.1522 C   0  0  0  0  0  0  0  0  0  0  0  0
   14.3614   -7.2441   19.1702 C   0  0  0  0  0  0  0  0  0  0  0  0
   13.3402   -6.3130   19.4679 C   0  0  0  0  0  0  0  0  0  0  0  0
   12.0272   -5.9624   18.3543 Cl  0  0  0  0  0  0  0  0  0  0  0  0
   13.3126   -5.6845   20.7174 C   0  0  0  0  0  0  0  0  0  0  0  0
   14.1340   -6.0675   24.1956 N   0  0  0  0  0  0  0  0  0  0  0  0
   14.2489   -5.2930   22.9965 C   0  0  0  0  0  0  0  0  0  0  0  0
   14.3242   -4.0355   23.0640 O   0  0  0  0  0  0  0  0  0  0  0  0
   14.1031   -7.0486   24.1198 H   0  0  0  0  0  0  0  0  0  0  0  0
   12.6133   -5.2561   25.9226 C   0  0  0  0  0  0  0  0  0  0  0  0
   14.0606   -5.4706   25.5215 C   0  0  0  0  0  0  0  0  0  0  0  0
   16.9323  -10.4365   15.7630 C   0  0  0  0  0  0  0  0  0  0  0  0
   17.3608  -10.1868   14.3554 C   0  0  0  0  0  0  0  0  0  0  0  0
   18.7114   -9.9564   14.0731 C   0  0  0  0  0  0  0  0  0  0  0  0
   19.1243   -9.7266   12.7569 C   0  0  0  0  0  0  0  0  0  0  0  0
   18.1886   -9.7310   11.7182 C   0  0  0  0  0  0  0  0  0  0  0  0
   16.8350   -9.9609   12.0014 C   0  0  0  0  0  0  0  0  0  0  0  0
   16.4216  -10.1894   13.3170 C   0  0  0  0  0  0  0  0  0  0  0  0
   15.8803   -9.9297   10.9449 N   0  0  0  0  0  0  0  0  0  0  0  0
   16.2981   -9.6979    9.5992 C   0  0  0  0  0  0  0  0  0  0  0  0
   15.4338   -9.5669    8.6932 O   0  0  0  0  0  0  0  0  0  0  0  0
   17.7609   -9.6223    9.2539 C   0  0  0  0  0  0  0  0  0  0  0  0
   18.1754  -10.8333    8.4399 C   0  0  0  0  0  0  0  0  0  0  0  0
   18.6099   -9.5040   10.4028 O   0  0  0  0  0  0  0  0  0  0  0  0
   14.9261  -10.0689   11.1436 H   0  0  0  0  0  0  0  0  0  0  0  0
 18 19  1  0  0  0
 19 14  1  0  0  0
 14 15  1  0  0  0
 15 16  2  0  0  0
 15  7  1  0  0  0
  7  8  2  0  0  0
  8  9  1  0  0  0
  9 10  2  0  0  0
 10  1  1  0  0  0
 10 11  1  0  0  0
  1  2  1  0  0  0
  2  3  1  0  0  0
  3  4  1  0  0  0
  4 20  1  0  0  0
  4  5  1  0  0  0
 20 21  1  0  0  0
 21 22  2  0  0  0
 22 23  1  0  0  0
 23 24  2  0  0  0
 24 25  1  0  0  0
 25 26  2  0  0  0
 25 27  1  0  0  0
 26 21  1  0  0  0
 27 28  1  0  0  0
 28 29  2  0  0  0
 28 30  1  0  0  0
 30 31  1  0  0  0
 30 32  1  0  0  0
 32 24  1  0  0  0
  5  6  1  0  0  0
  6  1  1  0  0  0
 11 12  1  0  0  0
 11 13  2  0  0  0
 13  7  1  0  0  0
 14 17  1  0  0  0
 27 33  1  0  0  0
M  END
>  <minimizedAffinity>
-1.53711

>  <minimizedRMSD>
1.95682

$$$$
CHEMBL3698710 PubChem-58299999


 35 40  0  0  0  0  0  0  0  0999 V2000
   14.8828   -8.0286   17.7029 C   0  0  0  0  0  0  0  0  0  0  0  0
   16.2139   -8.1964   18.0006 N   0  0  0  0  0  0  0  0  0  0  0  0
   16.7466   -7.7799   19.1866 C   0  0  0  0  0  0  0  0  0  0  0  0
   15.8903   -7.1747   20.0916 C   0  0  0  0  0  0  0  0  0  0  0  0
   16.0675   -6.6446   21.3475 C   0  0  0  0  0  0  0  0  0  0  0  0
   14.8291   -6.1832   21.7435 C   0  0  0  0  0  0  0  0  0  0  0  0
   14.6683   -5.5803   22.9876 C   0  0  0  0  0  0  0  0  0  0  0  0
   15.7676   -5.4644   23.7911 N   0  0  0  0  0  0  0  0  0  0  0  0
   17.0041   -5.9187   23.4097 C   0  0  0  0  0  0  0  0  0  0  0  0
   17.1912   -6.5308   22.1576 C   0  0  0  0  0  0  0  0  0  0  0  0
   13.8904   -6.4016   20.7928 N   0  0  0  0  0  0  0  0  0  0  0  0
   14.5639   -7.0110   19.7876 C   0  0  0  0  0  0  0  0  0  0  0  0
   14.0489   -7.4296   18.6057 N   0  0  0  0  0  0  0  0  0  0  0  0
   12.4742   -6.0463   20.8622 C   0  0  0  0  0  0  0  0  0  0  0  0
   11.6451   -6.9498   19.9680 C   0  0  0  0  0  0  0  0  0  0  0  0
   10.6231   -6.0471   19.3172 C   0  0  0  0  0  0  0  0  0  0  0  0
   11.2924   -4.6949   19.2187 C   0  0  0  0  0  0  0  0  0  0  0  0
   12.2463   -4.6172   20.3941 C   0  0  0  0  0  0  0  0  0  0  0  0
   14.3452   -8.4730   16.4516 N   0  0  0  0  0  0  0  0  0  0  0  0
   13.3698   -8.5984   16.4064 H   0  0  0  0  0  0  0  0  0  0  0  0
   16.5290   -9.3512   12.9819 C   0  0  0  0  0  0  0  0  0  0  0  0
   16.0802   -8.0463   13.2249 C   0  0  0  0  0  0  0  0  0  0  0  0
   15.3735   -7.7779   14.3537 N   0  0  0  0  0  0  0  0  0  0  0  0
   15.0892   -8.7525   15.2599 C   0  0  0  0  0  0  0  0  0  0  0  0
   15.5352  -10.0530   15.0210 C   0  0  0  0  0  0  0  0  0  0  0  0
   16.2420  -10.3229   13.8923 N   0  0  0  0  0  0  0  0  0  0  0  0
   20.2783   -8.1775   10.0873 C   0  0  0  0  0  0  0  0  0  0  0  0
   18.8204   -8.5158   10.3144 C   0  0  0  0  0  0  0  0  0  0  0  0
   18.6708   -9.2560   11.6406 C   0  0  0  0  0  0  0  0  0  0  0  0
   17.2779   -9.6672   11.7974 N   0  0  0  0  0  0  0  0  0  0  0  0
   16.6482  -10.3678   10.6821 C   0  0  0  0  0  0  0  0  0  0  0  0
   16.9016   -9.5842    9.3956 C   0  0  0  0  0  0  0  0  0  0  0  0
   18.3364   -9.3567    9.2190 N   0  0  0  0  0  0  0  0  0  0  0  0
   16.3634  -10.3646    8.2153 C   0  0  0  0  0  0  0  0  0  0  0  0
   18.5019   -8.8879    8.3284 H   0  0  0  0  0  0  0  0  0  0  0  0
 28 27  1  0  0  0
 28 29  1  0  0  0
 29 30  1  0  0  0
 30 31  1  0  0  0
 30 21  1  0  0  0
 31 32  1  0  0  0
 32 33  1  0  0  0
 32 34  1  0  0  0
 33 28  1  0  0  0
 21 22  2  0  0  0
 22 23  1  0  0  0
 23 24  2  0  0  0
 24 25  1  0  0  0
 24 19  1  0  0  0
 25 26  2  0  0  0
 26 21  1  0  0  0
 19  1  1  0  0  0
  1  2  2  0  0  0
  2  3  1  0  0  0
  3  4  2  0  0  0
  4  5  1  0  0  0
  5  6  2  0  0  0
  6  7  1  0  0  0
  6 11  1  0  0  0
  7  8  2  0  0  0
  8  9  1  0  0  0
  9 10  2  0  0  0
 10  5  1  0  0  0
 11 12  1  0  0  0
 11 14  1  0  0  0
 12 13  2  0  0  0
 12  4  1  0  0  0
 13  1  1  0  0  0
 14 15  1  0  0  0
 15 16  1  0  0  0
 16 17  1  0  0  0
 17 18  1  0  0  0
 18 14  1  0  0  0
 33 35  1  0  0  0
 19 20  1  0  0  0
M  END
>  <minimizedAffinity>
-1.51716

>  <minimizedRMSD>
1.91227

$$$$
CHEMBL4170732 PubChem-145949151


 30 32  0  0  0  0  0  0  0  0999 V2000
   15.6596   -8.9363   17.9098 C   0  0  0  0  0  0  0  0  0  0  0  0
   15.7969   -8.6433   16.6072 C   0  0  0  0  0  0  0  0  0  0  0  0
   15.4089   -7.3077   16.0244 C   0  0  0  0  0  0  0  0  0  0  0  0
   16.2444   -6.9845   14.8672 N   0  0  0  0  0  0  0  0  0  0  0  0
   15.9753   -7.9629   13.8149 C   0  0  0  0  0  0  0  0  0  0  0  0
   16.4391   -9.3277   14.2485 C   0  0  0  0  0  0  0  0  0  0  0  0
   17.0476  -10.1694   13.4045 C   0  0  0  0  0  0  0  0  0  0  0  0
   16.2826   -9.6808   15.6727 C   0  0  0  0  0  0  0  0  0  0  0  0
   16.5781  -10.8366   16.0862 O   0  0  0  0  0  0  0  0  0  0  0  0
   15.7873   -5.7005   14.3694 C   0  0  0  0  0  0  0  0  0  0  0  0
   17.2388   -9.9210   11.9649 C   0  0  0  0  0  0  0  0  0  0  0  0
   18.5419   -9.6973   11.5070 C   0  0  0  0  0  0  0  0  0  0  0  0
   18.7875   -9.4661   10.1515 C   0  0  0  0  0  0  0  0  0  0  0  0
   17.7294   -9.4680    9.2408 C   0  0  0  0  0  0  0  0  0  0  0  0
   16.4288   -9.7212    9.6820 C   0  0  0  0  0  0  0  0  0  0  0  0
   16.1737   -9.9526   11.0374 C   0  0  0  0  0  0  0  0  0  0  0  0
   14.5289  -10.3566   11.5101 Cl  0  0  0  0  0  0  0  0  0  0  0  0
   18.0358   -9.1768    7.5426 Cl  0  0  0  0  0  0  0  0  0  0  0  0
   15.7293   -6.7170   20.9503 C   0  0  0  0  0  0  0  0  0  0  0  0
   14.3779   -6.3676   21.1129 C   0  0  0  0  0  0  0  0  0  0  0  0
   13.4154   -6.8726   20.2024 C   0  0  0  0  0  0  0  0  0  0  0  0
   13.8327   -7.7119   19.1581 C   0  0  0  0  0  0  0  0  0  0  0  0
   15.1765   -8.0612   18.9981 C   0  0  0  0  0  0  0  0  0  0  0  0
   16.1154   -7.5578   19.8963 C   0  0  0  0  0  0  0  0  0  0  0  0
   12.0616   -6.5425   20.3359 O   0  0  0  0  0  0  0  0  0  0  0  0
   11.2605   -6.1024   19.2469 C   0  0  0  0  0  0  0  0  0  0  0  0
   14.0549   -5.5225   22.1881 O   0  0  0  0  0  0  0  0  0  0  0  0
   13.5551   -4.1988   22.0639 C   0  0  0  0  0  0  0  0  0  0  0  0
   16.6748   -6.2141   21.8516 O   0  0  0  0  0  0  0  0  0  0  0  0
   18.0744   -6.2660   21.6096 C   0  0  0  0  0  0  0  0  0  0  0  0
 19 20  2  0  0  0
 20 21  1  0  0  0
 21 22  2  0  0  0
 22 23  1  0  0  0
 23 24  2  0  0  0
 23  1  1  0  0  0
  1  2  2  0  0  0
  2  3  1  0  0  0
  3  4  1  0  0  0
  4  5  1  0  0  0
  5  6  1  0  0  0
  6  7  2  0  0  0
  7 11  1  0  0  0
 11 12  2  0  0  0
 12 13  1  0  0  0
 13 14  2  0  0  0
 14 15  1  0  0  0
 15 16  2  0  0  0
 16 17  1  0  0  0
 14 18  1  0  0  0
  6  8  1  0  0  0
  8  9  2  0  0  0
  4 10  1  0  0  0
 21 25  1  0  0  0
 25 26  1  0  0  0
 20 27  1  0  0  0
 27 28  1  0  0  0
 19 29  1  0  0  0
 29 30  1  0  0  0
 24 19  1  0  0  0
  8  2  1  0  0  0
 16 11  1  0  0  0
M  END
>  <minimizedAffinity>
-1.49594

>  <minimizedRMSD>
1.83224

$$$$
CHEMBL4447159 PubChem-132020426


 36 41  0  0  0  0  0  0  0  0999 V2000
   15.5631   -8.4907   16.8009 N   0  0  0  0  0  0  0  0  0  0  0  0
   17.0136   -8.5053   16.9797 C   0  0  0  0  0  0  0  0  0  0  0  0
   17.7185   -8.0644   15.6921 C   0  0  0  0  0  0  0  0  0  0  0  0
   17.0943   -8.6788   14.4700 C   0  0  0  0  0  0  0  0  0  0  0  0
   17.6908   -8.5209   13.2599 N   0  0  0  0  0  0  0  0  0  0  0  0
   17.1332   -9.0302   12.1267 C   0  0  0  0  0  0  0  0  0  0  0  0
   15.9567   -9.7138   12.2043 N   0  0  0  0  0  0  0  0  0  0  0  0
   15.3235   -9.8923   13.3917 C   0  0  0  0  0  0  0  0  0  0  0  0
   15.8751   -9.3664   14.5560 C   0  0  0  0  0  0  0  0  0  0  0  0
   15.2159   -9.5775   15.8845 C   0  0  0  0  0  0  0  0  0  0  0  0
   17.7933   -8.8511   10.8648 N   0  0  0  0  0  0  0  0  0  0  0  0
   17.3702   -9.2261    9.6449 C   0  0  0  0  0  0  0  0  0  0  0  0
   16.1895   -9.8740    9.2795 C   0  0  0  0  0  0  0  0  0  0  0  0
   15.9932  -10.1485    7.9146 C   0  0  0  0  0  0  0  0  0  0  0  0
   16.9637   -9.7738    6.9599 C   0  0  0  0  0  0  0  0  0  0  0  0
   18.1430   -9.1187    7.3589 C   0  0  0  0  0  0  0  0  0  0  0  0
   18.3099   -8.8627    8.7210 C   0  0  0  0  0  0  0  0  0  0  0  0
   19.3298   -8.2478    9.4230 C   0  0  0  0  0  0  0  0  0  0  0  0
   18.9761   -8.2600   10.7327 N   0  0  0  0  0  0  0  0  0  0  0  0
   19.1285   -8.7310    6.3867 C   0  0  0  0  0  0  0  0  0  0  0  0
   19.9215   -8.4171    5.6031 N   0  0  0  0  0  0  0  0  0  0  0  0
   14.9836   -8.8176   18.0929 C   0  0  0  0  0  0  0  0  0  0  0  0
   13.8367   -7.8688   18.4194 C   0  0  0  0  0  0  0  0  0  0  0  0
   12.6192   -8.5527   18.4013 O   0  0  0  0  0  0  0  0  0  0  0  0
   12.6296   -9.2493   19.0761 H   0  0  0  0  0  0  0  0  0  0  0  0
   12.4224   -5.3692   19.1376 C   0  0  0  0  0  0  0  0  0  0  0  0
   13.3608   -6.0290   20.0941 C   0  0  0  0  0  0  0  0  0  0  0  0
   14.0418   -7.2238   19.7578 C   0  0  0  0  0  0  0  0  0  0  0  0
   14.9187   -7.8210   20.6951 C   0  0  0  0  0  0  0  0  0  0  0  0
   15.1360   -7.2388   21.9525 C   0  0  0  0  0  0  0  0  0  0  0  0
   14.4566   -6.0600   22.2436 C   0  0  0  0  0  0  0  0  0  0  0  0
   13.5880   -5.4699   21.3565 C   0  0  0  0  0  0  0  0  0  0  0  0
   12.9920   -4.2276   21.9583 C   0  0  0  0  0  0  0  0  0  0  0  0
   13.5994   -4.1706   23.2545 O   0  0  0  0  0  0  0  0  0  0  0  0
   14.4610   -5.2451   23.4275 C   0  0  0  0  0  0  0  0  0  0  0  0
   15.1324   -5.4578   24.4703 O   0  0  0  0  0  0  0  0  0  0  0  0
 26 27  1  0  0  0
 27 28  2  0  0  0
 28 29  1  0  0  0
 29 30  2  0  0  0
 30 31  1  0  0  0
 31 32  2  0  0  0
 32 33  1  0  0  0
 33 34  1  0  0  0
 34 35  1  0  0  0
 35 36  2  0  0  0
 28 23  1  0  0  0
 23 22  1  0  0  0
 22  1  1  0  0  0
  1  2  1  0  0  0
  2  3  1  0  0  0
  3  4  1  0  0  0
  4  5  2  0  0  0
  5  6  1  0  0  0
  6  7  2  0  0  0
  7  8  1  0  0  0
  8  9  2  0  0  0
  9 10  1  0  0  0
  6 11  1  0  0  0
 11 12  1  0  0  0
 12 13  2  0  0  0
 13 14  1  0  0  0
 14 15  2  0  0  0
 15 16  1  0  0  0
 16 17  2  0  0  0
 17 18  1  0  0  0
 18 19  2  0  0  0
 16 20  1  0  0  0
 20 21  3  0  0  0
 23 24  1  0  0  0
 32 27  1  0  0  0
 35 31  1  0  0  0
 10  1  1  0  0  0
  9  4  1  0  0  0
 19 11  1  0  0  0
 17 12  1  0  0  0
 24 25  1  0  0  0
M  END
>  <minimizedAffinity>
-1.48719

>  <minimizedRMSD>
1.97175

$$$$
CHEMBL1490135


 32 33  0  0  0  0  0  0  0  0999 V2000
   15.5452   -8.4054   17.9909 C   0  0  0  0  0  0  0  0  0  0  0  0
   15.8201   -9.3919   18.9485 C   0  0  0  0  0  0  0  0  0  0  0  0
   15.4998   -9.2060   20.2557 N   0  0  0  0  0  0  0  0  0  0  0  0
   14.9046   -8.0650   20.6864 C   0  0  0  0  0  0  0  0  0  0  0  0
   14.5891   -7.9098   22.0388 C   0  0  0  0  0  0  0  0  0  0  0  0
   13.9754   -6.7355   22.4836 C   0  0  0  0  0  0  0  0  0  0  0  0
   13.6759   -5.7104   21.5795 C   0  0  0  0  0  0  0  0  0  0  0  0
   13.9896   -5.8624   20.2246 C   0  0  0  0  0  0  0  0  0  0  0  0
   14.6040   -7.0359   19.7685 C   0  0  0  0  0  0  0  0  0  0  0  0
   14.9258   -7.2089   18.4141 C   0  0  0  0  0  0  0  0  0  0  0  0
   14.6288   -6.1981   17.5030 O   0  0  0  0  0  0  0  0  0  0  0  0
   14.2177   -5.4089   17.7964 H   0  0  0  0  0  0  0  0  0  0  0  0
   16.4823   -9.9194   16.2088 N   0  0  0  0  0  0  0  0  0  0  0  0
   15.9146   -8.6594   16.5785 C   0  0  0  0  0  0  0  0  0  0  0  0
   15.7330   -7.7762   15.6966 O   0  0  0  0  0  0  0  0  0  0  0  0
   16.6222  -10.6021   16.9043 H   0  0  0  0  0  0  0  0  0  0  0  0
   16.8587  -10.2228   14.8387 C   0  0  0  0  0  0  0  0  0  0  0  0
   15.7502   -9.7838   13.9013 C   0  0  0  0  0  0  0  0  0  0  0  0
   16.1062  -10.1106   12.5301 N   0  0  0  0  0  0  0  0  0  0  0  0
   14.8996   -9.9429   11.7409 C   0  0  0  0  0  0  0  0  0  0  0  0
   17.0424   -9.0941   12.0721 C   0  0  0  0  0  0  0  0  0  0  0  0
   17.9403   -9.6527   10.9754 C   0  0  0  0  0  0  0  0  0  0  0  0
   19.1778   -8.0551    9.5118 C   0  0  0  0  0  0  0  0  0  0  0  0
   17.8720   -8.7991    9.7188 C   0  0  0  0  0  0  0  0  0  0  0  0
   12.8929   -4.2385   22.1410 S   0  0  0  0  0  0  0  0  0  0  0  0
   13.5853   -3.0494   21.5347 O   0  0  0  0  0  0  0  0  0  0  0  0
   13.0235   -4.1481   23.6362 O   0  0  0  0  0  0  0  0  0  0  0  0
   11.2090   -4.2159   21.7043 N   0  0  0  0  0  0  0  0  0  0  0  0
   10.4391   -4.6491   22.8597 C   0  0  0  0  0  0  0  0  0  0  0  0
    9.9728   -3.4410   23.6477 C   0  0  0  0  0  0  0  0  0  0  0  0
   10.9993   -5.2123   20.6654 C   0  0  0  0  0  0  0  0  0  0  0  0
   10.8473   -4.5283   19.3211 C   0  0  0  0  0  0  0  0  0  0  0  0
 23 24  1  0  0  0
 24 22  1  0  0  0
 22 21  1  0  0  0
 21 19  1  0  0  0
 19 20  1  0  0  0
 19 18  1  0  0  0
 18 17  1  0  0  0
 17 13  1  0  0  0
 13 14  1  0  0  0
 14 15  2  0  0  0
 14  1  1  0  0  0
  1  2  2  0  0  0
  2  3  1  0  0  0
  3  4  2  0  0  0
  4  5  1  0  0  0
  5  6  2  0  0  0
  6  7  1  0  0  0
  7 25  1  0  0  0
  7  8  2  0  0  0
 25 26  2  0  0  0
 25 27  2  0  0  0
 25 28  1  0  0  0
 28 29  1  0  0  0
 28 31  1  0  0  0
 29 30  1  0  0  0
 31 32  1  0  0  0
  8  9  1  0  0  0
  9 10  2  0  0  0
  9  4  1  0  0  0
 10 11  1  0  0  0
 10  1  1  0  0  0
 13 16  1  0  0  0
 11 12  1  0  0  0
M  END
>  <minimizedAffinity>
-1.46307

>  <minimizedRMSD>
1.97074

$$$$
CHEMBL2386417 39326810 ChemDiv-8020-4837 MCULE-9868977635 MolPort-000-926-134 PubChem-20416740 ZINC000039326810 ZINC39326810


 34 36  0  0  0  0  0  0  0  0999 V2000
   16.8038   -9.6697   14.6846 C   0  0  0  0  0  0  0  0  0  0  0  0
   16.0639   -8.9562   15.5477 C   0  0  0  0  0  0  0  0  0  0  0  0
   14.8947   -8.1081   15.1148 C   0  0  0  0  0  0  0  0  0  0  0  0
   14.7121   -6.9724   16.0195 N   0  0  0  0  0  0  0  0  0  0  0  0
   14.3680   -7.4867   17.3437 C   0  0  0  0  0  0  0  0  0  0  0  0
   15.5359   -8.2336   17.9269 C   0  0  0  0  0  0  0  0  0  0  0  0
   15.8686   -8.1758   19.2258 C   0  0  0  0  0  0  0  0  0  0  0  0
   16.3466   -9.0450   16.9966 C   0  0  0  0  0  0  0  0  0  0  0  0
   17.2774   -9.7813   17.4279 O   0  0  0  0  0  0  0  0  0  0  0  0
   13.9596   -6.3758   15.6757 H   0  0  0  0  0  0  0  0  0  0  0  0
   15.3815   -9.9857   11.1589 C   0  0  0  0  0  0  0  0  0  0  0  0
   15.4574   -9.9260   12.5591 C   0  0  0  0  0  0  0  0  0  0  0  0
   16.6786   -9.7441   13.2141 C   0  0  0  0  0  0  0  0  0  0  0  0
   17.8394   -9.6176   12.4536 C   0  0  0  0  0  0  0  0  0  0  0  0
   17.7958   -9.6732   11.0528 C   0  0  0  0  0  0  0  0  0  0  0  0
   16.5684   -9.8572   10.3939 C   0  0  0  0  0  0  0  0  0  0  0  0
   12.9755  -10.5824   11.2310 C   0  0  0  0  0  0  0  0  0  0  0  0
   14.1431  -10.1697   10.5328 O   0  0  0  0  0  0  0  0  0  0  0  0
   18.9638   -9.5475   10.2921 O   0  0  0  0  0  0  0  0  0  0  0  0
   19.6413  -10.6632    9.7298 C   0  0  0  0  0  0  0  0  0  0  0  0
   16.5908   -9.9031    8.9897 O   0  0  0  0  0  0  0  0  0  0  0  0
   16.7340   -8.7751    8.1386 C   0  0  0  0  0  0  0  0  0  0  0  0
   15.2016   -7.4229   20.3081 C   0  0  0  0  0  0  0  0  0  0  0  0
   15.9835   -6.9834   21.3751 C   0  0  0  0  0  0  0  0  0  0  0  0
   15.4246   -6.2617   22.4423 C   0  0  0  0  0  0  0  0  0  0  0  0
   14.0361   -5.9740   22.4343 C   0  0  0  0  0  0  0  0  0  0  0  0
   13.2474   -6.4164   21.3590 C   0  0  0  0  0  0  0  0  0  0  0  0
   13.8344   -7.1349   20.3081 C   0  0  0  0  0  0  0  0  0  0  0  0
   16.2367   -5.8345   23.4994 O   0  0  0  0  0  0  0  0  0  0  0  0
   17.2094   -6.6681   24.1159 C   0  0  0  0  0  0  0  0  0  0  0  0
   13.3896   -5.2591   23.4569 O   0  0  0  0  0  0  0  0  0  0  0  0
   13.3234   -3.8432   23.5468 C   0  0  0  0  0  0  0  0  0  0  0  0
   11.8776   -6.1288   21.3555 O   0  0  0  0  0  0  0  0  0  0  0  0
   11.3032   -5.1251   20.5292 C   0  0  0  0  0  0  0  0  0  0  0  0
 17 18  1  0  0  0
 18 11  1  0  0  0
 11 12  2  0  0  0
 12 13  1  0  0  0
 13  1  1  0  0  0
 13 14  2  0  0  0
  1  2  2  0  0  0
  2  3  1  0  0  0
  3  4  1  0  0  0
  4  5  1  0  0  0
  5  6  1  0  0  0
  6  7  2  0  0  0
  6  8  1  0  0  0
  7 23  1  0  0  0
 23 24  2  0  0  0
 24 25  1  0  0  0
 25 29  1  0  0  0
 25 26  2  0  0  0
 29 30  1  0  0  0
 26 31  1  0  0  0
 26 27  1  0  0  0
 31 32  1  0  0  0
 27 33  1  0  0  0
 27 28  2  0  0  0
 33 34  1  0  0  0
 28 23  1  0  0  0
  8  9  2  0  0  0
  8  2  1  0  0  0
 14 15  1  0  0  0
 15 19  1  0  0  0
 15 16  2  0  0  0
 19 20  1  0  0  0
 16 21  1  0  0  0
 16 11  1  0  0  0
 21 22  1  0  0  0
  4 10  1  0  0  0
M  END
>  <minimizedAffinity>
-1.45396

>  <minimizedRMSD>
1.83241

$$$$
CHEMBL3196513 LN00636590 MolPort-000-788-900 PubChem-6889302 ZINC02383237


 39 42  0  0  0  0  0  0  0  0999 V2000
   15.5548   -7.9685   16.9070 N   0  0  0  0  0  0  0  0  0  0  0  0
   14.3994   -7.5674   17.6429 C   0  0  0  0  0  0  0  0  0  0  0  0
   13.3006   -7.4145   17.0469 O   0  0  0  0  0  0  0  0  0  0  0  0
   16.4116   -8.0867   17.3773 H   0  0  0  0  0  0  0  0  0  0  0  0
   14.5111   -7.3377   19.0939 C   0  0  0  0  0  0  0  0  0  0  0  0
   13.6098   -6.7263   19.9592 C   0  0  0  0  0  0  0  0  0  0  0  0
   14.1772   -6.7645   21.1829 N   0  0  0  0  0  0  0  0  0  0  0  0
   15.3532   -7.3621   21.0741 N   0  0  0  0  0  0  0  0  0  0  0  0
   15.5816   -7.7200   19.8191 N   0  0  0  0  0  0  0  0  0  0  0  0
   13.6465   -6.2621   22.4194 C   0  0  0  0  0  0  0  0  0  0  0  0
   12.3765   -5.8676   22.6141 N   0  0  0  0  0  0  0  0  0  0  0  0
   12.3194   -5.4874   23.8627 O   0  0  0  0  0  0  0  0  0  0  0  0
   13.4512   -5.6007   24.5050 N   0  0  0  0  0  0  0  0  0  0  0  0
   14.3137   -6.0933   23.6037 C   0  0  0  0  0  0  0  0  0  0  0  0
   15.6823   -6.3793   23.8704 N   0  0  0  0  0  0  0  0  0  0  0  0
   16.0536   -6.2158   24.7674 H   0  0  0  0  0  0  0  0  0  0  0  0
   16.2576   -6.7405   23.1578 H   0  0  0  0  0  0  0  0  0  0  0  0
   12.2653   -6.1265   19.6588 C   0  0  0  0  0  0  0  0  0  0  0  0
   12.3842   -4.8924   18.7850 C   0  0  0  0  0  0  0  0  0  0  0  0
   11.3215   -7.1435   19.0457 C   0  0  0  0  0  0  0  0  0  0  0  0
   15.9051   -9.3179   15.0382 C   0  0  0  0  0  0  0  0  0  0  0  0
   15.4892   -8.1964   15.5280 N   0  0  0  0  0  0  0  0  0  0  0  0
   16.9836   -9.9588   11.4615 C   0  0  0  0  0  0  0  0  0  0  0  0
   15.7300  -10.1254   10.8502 C   0  0  0  0  0  0  0  0  0  0  0  0
   14.5552  -10.0303   11.5919 C   0  0  0  0  0  0  0  0  0  0  0  0
   14.6168   -9.7668   12.9573 C   0  0  0  0  0  0  0  0  0  0  0  0
   15.8530   -9.5961   13.5937 C   0  0  0  0  0  0  0  0  0  0  0  0
   17.0490   -9.6901   12.8539 C   0  0  0  0  0  0  0  0  0  0  0  0
   18.6198   -9.0137    9.8545 C   0  0  0  0  0  0  0  0  0  0  0  0
   18.1524  -10.0585   10.6976 O   0  0  0  0  0  0  0  0  0  0  0  0
   18.2607   -9.5100   13.5444 O   0  0  0  0  0  0  0  0  0  0  0  0
   18.5391   -9.9966   14.8500 C   0  0  0  0  0  0  0  0  0  0  0  0
   19.6707   -9.2312   15.4366 C   0  0  0  0  0  0  0  0  0  0  0  0
   19.4390   -8.3311   16.4823 C   0  0  0  0  0  0  0  0  0  0  0  0
   20.4986   -7.5912   17.0159 C   0  0  0  0  0  0  0  0  0  0  0  0
   21.7892   -7.7464   16.5004 C   0  0  0  0  0  0  0  0  0  0  0  0
   22.8157   -7.0297   17.0175 F   0  0  0  0  0  0  0  0  0  0  0  0
   22.0198   -8.6388   15.4486 C   0  0  0  0  0  0  0  0  0  0  0  0
   20.9603   -9.3789   14.9148 C   0  0  0  0  0  0  0  0  0  0  0  0
 29 30  1  0  0  0
 30 23  1  0  0  0
 23 24  2  0  0  0
 24 25  1  0  0  0
 25 26  2  0  0  0
 26 27  1  0  0  0
 27 21  1  0  0  0
 27 28  2  0  0  0
 21 22  2  0  0  0
 22  1  1  0  0  0
  1  2  1  0  0  0
  2  3  2  0  0  0
  2  5  1  0  0  0
  5  6  2  0  0  0
  6 18  1  0  0  0
  6  7  1  0  0  0
 18 19  1  0  0  0
 18 20  1  0  0  0
  7  8  1  0  0  0
  7 10  1  0  0  0
  8  9  2  0  0  0
  9  5  1  0  0  0
 10 11  2  0  0  0
 11 12  1  0  0  0
 12 13  1  0  0  0
 13 14  2  0  0  0
 14 15  1  0  0  0
 14 10  1  0  0  0
 28 31  1  0  0  0
 28 23  1  0  0  0
 31 32  1  0  0  0
 32 33  1  0  0  0
 33 34  2  0  0  0
 34 35  1  0  0  0
 35 36  2  0  0  0
 36 37  1  0  0  0
 36 38  1  0  0  0
 38 39  2  0  0  0
 39 33  1  0  0  0
  1  4  1  0  0  0
 15 16  1  0  0  0
 15 17  1  0  0  0
M  END
>  <minimizedAffinity>
-1.40140

>  <minimizedRMSD>
1.82731

$$$$
CHEMBL4636529 PubChem-156011966


 36 40  0  0  0  0  0  0  0  0999 V2000
   14.3269   -8.1792   18.1731 N   0  0  0  0  0  0  0  0  0  0  0  0
   13.6239   -7.7522   17.1381 N   0  0  0  0  0  0  0  0  0  0  0  0
   14.4233   -7.5367   16.1064 N   0  0  0  0  0  0  0  0  0  0  0  0
   15.6689   -7.8290   16.5274 C   0  0  0  0  0  0  0  0  0  0  0  0
   15.6285   -8.2449   17.8429 C   0  0  0  0  0  0  0  0  0  0  0  0
   13.7634   -8.4744   19.4800 C   0  0  0  0  0  0  0  0  0  0  0  0
   15.0138   -7.1285   21.1727 C   0  0  0  0  0  0  0  0  0  0  0  0
   13.8855   -7.2866   20.3716 C   0  0  0  0  0  0  0  0  0  0  0  0
   12.8919   -6.3099   20.3739 C   0  0  0  0  0  0  0  0  0  0  0  0
   13.0044   -5.1701   21.1863 C   0  0  0  0  0  0  0  0  0  0  0  0
   14.1499   -5.0135   22.0095 C   0  0  0  0  0  0  0  0  0  0  0  0
   15.1519   -6.0001   21.9938 C   0  0  0  0  0  0  0  0  0  0  0  0
   16.2808   -5.8357   22.8048 O   0  0  0  0  0  0  0  0  0  0  0  0
   17.5628   -6.3386   22.4525 C   0  0  0  0  0  0  0  0  0  0  0  0
   14.3473   -3.9084   22.8550 O   0  0  0  0  0  0  0  0  0  0  0  0
   13.8626   -3.8021   24.1858 C   0  0  0  0  0  0  0  0  0  0  0  0
   11.9934   -4.2019   21.1769 O   0  0  0  0  0  0  0  0  0  0  0  0
   10.7827   -4.3522   20.4473 C   0  0  0  0  0  0  0  0  0  0  0  0
   16.8845   -7.7686   15.6631 C   0  0  0  0  0  0  0  0  0  0  0  0
   17.1636   -9.0868   15.0770 N   0  0  0  0  0  0  0  0  0  0  0  0
   16.9394   -9.2982   13.7373 C   0  0  0  0  0  0  0  0  0  0  0  0
   16.4741   -8.2610   12.9077 C   0  0  0  0  0  0  0  0  0  0  0  0
   16.2447   -8.4771   11.5481 C   0  0  0  0  0  0  0  0  0  0  0  0
   16.4752   -9.7325   10.9846 C   0  0  0  0  0  0  0  0  0  0  0  0
   16.9419  -10.7756   11.7966 C   0  0  0  0  0  0  0  0  0  0  0  0
   17.1772  -10.5714   13.1647 C   0  0  0  0  0  0  0  0  0  0  0  0
   17.6470  -11.6154   13.9702 C   0  0  0  0  0  0  0  0  0  0  0  0
   17.8610  -12.7566   13.4717 O   0  0  0  0  0  0  0  0  0  0  0  0
   17.8804  -11.3858   15.3313 C   0  0  0  0  0  0  0  0  0  0  0  0
   18.3576  -12.4150   16.1581 C   0  0  0  0  0  0  0  0  0  0  0  0
   18.5941  -12.1837   17.5136 C   0  0  0  0  0  0  0  0  0  0  0  0
   18.3572  -10.9216   18.0572 C   0  0  0  0  0  0  0  0  0  0  0  0
   17.8822   -9.8896   17.2463 C   0  0  0  0  0  0  0  0  0  0  0  0
   17.6336  -10.1013   15.8765 C   0  0  0  0  0  0  0  0  0  0  0  0
   16.2346   -9.9167    9.6204 O   0  0  0  0  0  0  0  0  0  0  0  0
   17.1988   -9.6098    8.6225 C   0  0  0  0  0  0  0  0  0  0  0  0
  7  8  2  0  0  0
  8  9  1  0  0  0
  9 10  2  0  0  0
 10 11  1  0  0  0
 11 12  2  0  0  0
 12 13  1  0  0  0
 13 14  1  0  0  0
 11 15  1  0  0  0
 15 16  1  0  0  0
 10 17  1  0  0  0
 17 18  1  0  0  0
  8  6  1  0  0  0
  6  1  1  0  0  0
  1  2  1  0  0  0
  2  3  2  0  0  0
  3  4  1  0  0  0
  4  5  2  0  0  0
  4 19  1  0  0  0
 19 20  1  0  0  0
 20 21  1  0  0  0
 21 22  2  0  0  0
 22 23  1  0  0  0
 23 24  2  0  0  0
 24 25  1  0  0  0
 25 26  2  0  0  0
 26 27  1  0  0  0
 27 28  2  0  0  0
 27 29  1  0  0  0
 29 30  2  0  0  0
 30 31  1  0  0  0
 31 32  2  0  0  0
 32 33  1  0  0  0
 33 34  2  0  0  0
 24 35  1  0  0  0
 35 36  1  0  0  0
 12  7  1  0  0  0
  5  1  1  0  0  0
 34 20  1  0  0  0
 26 21  1  0  0  0
 34 29  1  0  0  0
M  END
>  <minimizedAffinity>
-1.35480

>  <minimizedRMSD>
1.98389

$$$$
CHEMBL4853467 PubChem-164615697


 31 35  0  0  0  0  0  0  0  0999 V2000
   15.9977   -8.5532   13.8126 C   0  0  0  0  0  0  0  0  0  0  0  0
   15.1573   -7.4970   14.1427 C   0  0  0  0  0  0  0  0  0  0  0  0
   15.0344   -7.4375   15.4908 N   0  0  0  0  0  0  0  0  0  0  0  0
   15.7976   -8.4518   15.9467 C   0  0  0  0  0  0  0  0  0  0  0  0
   16.3897   -9.1410   14.9590 N   0  0  0  0  0  0  0  0  0  0  0  0
   17.2033  -10.2031   15.1825 C   0  0  0  0  0  0  0  0  0  0  0  0
   17.4238  -10.5837   16.5100 C   0  0  0  0  0  0  0  0  0  0  0  0
   16.8250   -9.8878   17.5211 N   0  0  0  0  0  0  0  0  0  0  0  0
   16.0054   -8.8173   17.2897 C   0  0  0  0  0  0  0  0  0  0  0  0
   17.0185  -10.7783    7.5889 C   0  0  0  0  0  0  0  0  0  0  0  0
   17.5830   -9.9522    8.6424 N   0  0  0  0  0  0  0  0  0  0  0  0
   18.7495   -9.2720    8.5749 C   0  0  0  0  0  0  0  0  0  0  0  0
   18.9788   -8.5846    9.7717 C   0  0  0  0  0  0  0  0  0  0  0  0
   17.8863   -8.8898   10.5606 C   0  0  0  0  0  0  0  0  0  0  0  0
   17.0618   -9.7161    9.8531 C   0  0  0  0  0  0  0  0  0  0  0  0
   15.8681  -10.2000   10.3857 C   0  0  0  0  0  0  0  0  0  0  0  0
   15.5349   -9.8051   11.6930 C   0  0  0  0  0  0  0  0  0  0  0  0
   16.3827   -8.9476   12.4376 C   0  0  0  0  0  0  0  0  0  0  0  0
   17.5816   -8.4827   11.8562 C   0  0  0  0  0  0  0  0  0  0  0  0
   15.3893   -8.1094   18.4415 C   0  0  0  0  0  0  0  0  0  0  0  0
   14.0219   -7.8188   18.4839 C   0  0  0  0  0  0  0  0  0  0  0  0
   13.4461   -7.1498   19.5750 C   0  0  0  0  0  0  0  0  0  0  0  0
   14.2681   -6.7584   20.6611 C   0  0  0  0  0  0  0  0  0  0  0  0
   15.6421   -7.0478   20.6235 C   0  0  0  0  0  0  0  0  0  0  0  0
   16.1883   -7.7176   19.5195 C   0  0  0  0  0  0  0  0  0  0  0  0
   16.4489   -6.6588   21.6991 O   0  0  0  0  0  0  0  0  0  0  0  0
   17.8237   -6.3296   21.5518 C   0  0  0  0  0  0  0  0  0  0  0  0
   13.7816   -6.0853   21.7948 O   0  0  0  0  0  0  0  0  0  0  0  0
   13.5139   -4.6922   21.8644 C   0  0  0  0  0  0  0  0  0  0  0  0
   12.0733   -6.8762   19.5820 O   0  0  0  0  0  0  0  0  0  0  0  0
   11.2614   -6.9547   18.4175 C   0  0  0  0  0  0  0  0  0  0  0  0
 10 11  1  0  0  0
 11 12  1  0  0  0
 12 13  2  0  0  0
 13 14  1  0  0  0
 14 15  2  0  0  0
 15 16  1  0  0  0
 16 17  2  0  0  0
 17 18  1  0  0  0
 18 19  2  0  0  0
 18  1  1  0  0  0
  1  2  2  0  0  0
  2  3  1  0  0  0
  3  4  2  0  0  0
  4  5  1  0  0  0
  5  6  1  0  0  0
  6  7  2  0  0  0
  7  8  1  0  0  0
  8  9  2  0  0  0
  9 20  1  0  0  0
 20 21  2  0  0  0
 21 22  1  0  0  0
 22 23  2  0  0  0
 23 24  1  0  0  0
 24 25  2  0  0  0
 24 26  1  0  0  0
 26 27  1  0  0  0
 23 28  1  0  0  0
 28 29  1  0  0  0
 22 30  1  0  0  0
 30 31  1  0  0  0
 15 11  1  0  0  0
 19 14  1  0  0  0
  5  1  1  0  0  0
  9  4  1  0  0  0
 25 20  1  0  0  0
M  END
>  <minimizedAffinity>
-1.13859

>  <minimizedRMSD>
1.92974

$$$$
CHEMBL3900159 PubChem-117689963


 35 40  0  0  0  0  0  0  0  0999 V2000
   14.2682   -7.5249   18.3295 C   0  0  0  0  0  0  0  0  0  0  0  0
   15.5921   -7.3229   17.5841 C   0  0  0  0  0  0  0  0  0  0  0  0
   15.4253   -7.7305   16.1852 N   0  0  0  0  0  0  0  0  0  0  0  0
   16.7014   -7.6041   15.4666 C   0  0  0  0  0  0  0  0  0  0  0  0
   17.7272   -8.6425   15.9221 C   0  0  0  0  0  0  0  0  0  0  0  0
   17.1296   -9.9665   15.8330 N   0  0  0  0  0  0  0  0  0  0  0  0
   15.8645  -10.1766   16.5204 C   0  0  0  0  0  0  0  0  0  0  0  0
   14.8652   -9.0967   16.0859 C   0  0  0  0  0  0  0  0  0  0  0  0
   13.5946   -9.1854   16.9383 C   0  0  0  0  0  0  0  0  0  0  0  0
   13.8841   -8.8797   18.2830 O   0  0  0  0  0  0  0  0  0  0  0  0
   17.7392  -11.0186   15.0712 C   0  0  0  0  0  0  0  0  0  0  0  0
   17.2199  -12.1667   15.0501 O   0  0  0  0  0  0  0  0  0  0  0  0
   11.9481   -6.3705   19.7626 C   0  0  0  0  0  0  0  0  0  0  0  0
   13.2784   -6.5104   20.4286 C   0  0  0  0  0  0  0  0  0  0  0  0
   13.4502   -6.0901   21.7518 C   0  0  0  0  0  0  0  0  0  0  0  0
   12.4436   -5.4748   22.6840 C   0  0  0  0  0  0  0  0  0  0  0  0
   13.1973   -5.2639   23.8837 O   0  0  0  0  0  0  0  0  0  0  0  0
   14.5048   -5.6947   23.7093 C   0  0  0  0  0  0  0  0  0  0  0  0
   15.3968   -5.6353   24.5954 O   0  0  0  0  0  0  0  0  0  0  0  0
   14.6674   -6.2110   22.3776 C   0  0  0  0  0  0  0  0  0  0  0  0
   15.7834   -6.7474   21.7435 C   0  0  0  0  0  0  0  0  0  0  0  0
   15.6350   -7.1758   20.4161 C   0  0  0  0  0  0  0  0  0  0  0  0
   14.3908   -7.0665   19.7518 C   0  0  0  0  0  0  0  0  0  0  0  0
   18.9734  -10.7680   14.2637 C   0  0  0  0  0  0  0  0  0  0  0  0
   18.6148  -10.2878   12.8983 C   0  0  0  0  0  0  0  0  0  0  0  0
   17.2819  -10.0391   12.5645 C   0  0  0  0  0  0  0  0  0  0  0  0
   16.9617   -9.5671   11.2911 C   0  0  0  0  0  0  0  0  0  0  0  0
   17.9857   -9.3438   10.3602 C   0  0  0  0  0  0  0  0  0  0  0  0
   19.2790   -9.5890   10.7123 N   0  0  0  0  0  0  0  0  0  0  0  0
   19.6111  -10.0495   11.9483 C   0  0  0  0  0  0  0  0  0  0  0  0
   17.6836   -8.8593    9.0465 N   0  0  0  0  0  0  0  0  0  0  0  0
   16.5949   -9.1231    8.3016 C   0  0  0  0  0  0  0  0  0  0  0  0
   16.7087   -8.4657    7.1299 N   0  0  0  0  0  0  0  0  0  0  0  0
   17.8629   -7.8150    7.1844 N   0  0  0  0  0  0  0  0  0  0  0  0
   18.4551   -8.0516    8.3431 N   0  0  0  0  0  0  0  0  0  0  0  0
 13 14  1  0  0  0
 14 15  2  0  0  0
 15 16  1  0  0  0
 16 17  1  0  0  0
 17 18  1  0  0  0
 18 19  2  0  0  0
 18 20  1  0  0  0
 20 21  2  0  0  0
 21 22  1  0  0  0
 22 23  2  0  0  0
  1 23  1  0  0  0
  1  2  1  0  0  0
  2  3  1  0  0  0
  3  4  1  0  0  0
  4  5  1  0  0  0
  5  6  1  0  0  0
  6  7  1  0  0  0
  8  7  1  0  0  0
  8  9  1  0  0  0
  9 10  1  0  0  0
  6 11  1  0  0  0
 11 12  2  0  0  0
 11 24  1  0  0  0
 24 25  1  0  0  0
 25 26  2  0  0  0
 26 27  1  0  0  0
 27 28  2  0  0  0
 28 29  1  0  0  0
 29 30  2  0  0  0
 28 31  1  0  0  0
 31 32  1  0  0  0
 32 33  2  0  0  0
 33 34  1  0  0  0
 34 35  2  0  0  0
 23 14  1  0  0  0
 10  1  1  0  0  0
 30 25  1  0  0  0
 35 31  1  0  0  0
 20 15  1  0  0  0
  8  3  1  0  0  0
M  END
>  <minimizedAffinity>
-1.12079

>  <minimizedRMSD>
1.74514

$$$$
CHEMBL1574439 8612126 ChemDiv-D065-0036 MCULE-9860936501 MolPort-007-687-280 PubChem-16013169 ZINC000008612126 ZINC08612126


 35 39  0  0  0  0  0  0  0  0999 V2000
   14.8686   -9.9741   13.4664 C   0  0  0  0  0  0  0  0  0  0  0  0
   13.8754   -9.9965   12.5597 N   0  0  0  0  0  0  0  0  0  0  0  0
   14.4422   -9.9055   11.3660 N   0  0  0  0  0  0  0  0  0  0  0  0
   15.7756   -9.8340   11.5584 C   0  0  0  0  0  0  0  0  0  0  0  0
   16.0784   -9.8757   12.8778 N   0  0  0  0  0  0  0  0  0  0  0  0
   17.3617   -9.9570   13.5175 C   0  0  0  0  0  0  0  0  0  0  0  0
   18.2557  -10.9843   13.1827 C   0  0  0  0  0  0  0  0  0  0  0  0
   19.4970  -11.0736   13.8185 C   0  0  0  0  0  0  0  0  0  0  0  0
   20.4415  -12.1608   13.4534 C   0  0  0  0  0  0  0  0  0  0  0  0
   19.8486  -10.1421   14.7994 C   0  0  0  0  0  0  0  0  0  0  0  0
   18.9590   -9.1209   15.1442 C   0  0  0  0  0  0  0  0  0  0  0  0
   17.7188   -9.0299   14.5064 C   0  0  0  0  0  0  0  0  0  0  0  0
   16.7330   -9.6606   10.4445 C   0  0  0  0  0  0  0  0  0  0  0  0
   17.9381   -8.9687   10.6184 C   0  0  0  0  0  0  0  0  0  0  0  0
   18.8012   -8.7982    9.5343 C   0  0  0  0  0  0  0  0  0  0  0  0
   18.4667   -9.2927    8.3127 N   0  0  0  0  0  0  0  0  0  0  0  0
   17.2960   -9.9544    8.1109 C   0  0  0  0  0  0  0  0  0  0  0  0
   16.4077  -10.1451    9.1716 C   0  0  0  0  0  0  0  0  0  0  0  0
   14.5917  -10.1514   15.2281 S   0  0  0  0  0  0  0  0  0  0  0  0
   14.9024   -8.3880   15.5260 C   0  0  0  0  0  0  0  0  0  0  0  0
   14.7360   -7.5598   18.9575 C   0  0  0  0  0  0  0  0  0  0  0  0
   15.9029   -8.2356   18.9374 N   0  0  0  0  0  0  0  0  0  0  0  0
   16.0641   -8.5854   17.6983 O   0  0  0  0  0  0  0  0  0  0  0  0
   15.0565   -8.1495   16.9851 C   0  0  0  0  0  0  0  0  0  0  0  0
   14.1612   -7.4830   17.7372 N   0  0  0  0  0  0  0  0  0  0  0  0
   13.0371   -5.8433   22.4966 C   0  0  0  0  0  0  0  0  0  0  0  0
   12.3595   -5.7387   21.2720 C   0  0  0  0  0  0  0  0  0  0  0  0
   12.9236   -6.3049   20.1171 C   0  0  0  0  0  0  0  0  0  0  0  0
   14.1531   -6.9723   20.1737 C   0  0  0  0  0  0  0  0  0  0  0  0
   14.8232   -7.0732   21.3980 C   0  0  0  0  0  0  0  0  0  0  0  0
   14.2702   -6.5131   22.5512 C   0  0  0  0  0  0  0  0  0  0  0  0
   13.2322   -4.9325   24.7907 C   0  0  0  0  0  0  0  0  0  0  0  0
   12.4687   -5.2770   23.6427 O   0  0  0  0  0  0  0  0  0  0  0  0
   11.1307   -5.0710   21.2259 O   0  0  0  0  0  0  0  0  0  0  0  0
   10.3139   -5.0428   20.0636 C   0  0  0  0  0  0  0  0  0  0  0  0
 32 33  1  0  0  0
 33 26  1  0  0  0
 26 27  2  0  0  0
 27 34  1  0  0  0
 27 28  1  0  0  0
 34 35  1  0  0  0
 28 29  2  0  0  0
 29 30  1  0  0  0
 29 21  1  0  0  0
 30 31  2  0  0  0
 31 26  1  0  0  0
 21 22  2  0  0  0
 22 23  1  0  0  0
 23 24  1  0  0  0
 24 20  1  0  0  0
 24 25  2  0  0  0
 20 19  1  0  0  0
 19  1  1  0  0  0
  1  2  2  0  0  0
  2  3  1  0  0  0
  3  4  2  0  0  0
  4  5  1  0  0  0
  4 13  1  0  0  0
  5  6  1  0  0  0
  5  1  1  0  0  0
  6  7  2  0  0  0
  7  8  1  0  0  0
  8  9  1  0  0  0
  8 10  2  0  0  0
 10 11  1  0  0  0
 11 12  2  0  0  0
 12  6  1  0  0  0
 13 14  2  0  0  0
 14 15  1  0  0  0
 15 16  2  0  0  0
 16 17  1  0  0  0
 17 18  2  0  0  0
 18 13  1  0  0  0
 25 21  1  0  0  0
M  END
>  <minimizedAffinity>
-1.10924

>  <minimizedRMSD>
1.79135

$$$$
CHEMBL1272132 PubChem-52949187


 28 30  0  0  0  0  0  0  0  0999 V2000
   16.0288   -8.0299   18.0890 C   0  0  0  0  0  0  0  0  0  0  0  0
   17.2466   -7.8061   18.3312 O   0  0  0  0  0  0  0  0  0  0  0  0
   12.8463   -6.5061   19.5390 C   0  0  0  0  0  0  0  0  0  0  0  0
   13.7936   -6.9932   18.6254 C   0  0  0  0  0  0  0  0  0  0  0  0
   15.0128   -7.5291   19.0503 C   0  0  0  0  0  0  0  0  0  0  0  0
   15.2868   -7.5607   20.4210 C   0  0  0  0  0  0  0  0  0  0  0  0
   14.3605   -7.0811   21.3581 C   0  0  0  0  0  0  0  0  0  0  0  0
   13.1333   -6.5519   20.9264 C   0  0  0  0  0  0  0  0  0  0  0  0
   11.5136   -4.6742   18.5301 C   0  0  0  0  0  0  0  0  0  0  0  0
   11.6341   -5.9813   19.0762 O   0  0  0  0  0  0  0  0  0  0  0  0
   14.6400   -7.1200   22.7291 O   0  0  0  0  0  0  0  0  0  0  0  0
   15.9152   -6.7943   23.2654 C   0  0  0  0  0  0  0  0  0  0  0  0
   12.2469   -6.0893   21.9139 O   0  0  0  0  0  0  0  0  0  0  0  0
   12.1152   -4.7356   22.3231 C   0  0  0  0  0  0  0  0  0  0  0  0
   15.6968   -8.7809   16.8553 C   0  0  0  0  0  0  0  0  0  0  0  0
   14.6986   -9.7568   16.7761 C   0  0  0  0  0  0  0  0  0  0  0  0
   14.7138  -10.3435   15.1988 S   0  0  0  0  0  0  0  0  0  0  0  0
   15.9724   -9.3553   14.6920 C   0  0  0  0  0  0  0  0  0  0  0  0
   16.3970   -8.5712   15.7048 N   0  0  0  0  0  0  0  0  0  0  0  0
   16.5539   -9.3297   13.3397 C   0  0  0  0  0  0  0  0  0  0  0  0
   17.8696   -9.7624   13.1320 C   0  0  0  0  0  0  0  0  0  0  0  0
   18.4265   -9.7402   11.8506 C   0  0  0  0  0  0  0  0  0  0  0  0
   17.6774   -9.2846   10.7536 C   0  0  0  0  0  0  0  0  0  0  0  0
   16.3588   -8.8519   10.9676 C   0  0  0  0  0  0  0  0  0  0  0  0
   15.8022   -8.8743   12.2491 C   0  0  0  0  0  0  0  0  0  0  0  0
   18.2512   -9.2616    9.4330 N   0  0  0  0  0  0  0  0  0  0  0  0
   17.6905  -10.0592    8.3529 C   0  0  0  0  0  0  0  0  0  0  0  0
   19.4130   -8.4398    9.1295 C   0  0  0  0  0  0  0  0  0  0  0  0
  9 10  1  0  0  0
 10  3  1  0  0  0
  3  4  2  0  0  0
  4  5  1  0  0  0
  5  1  1  0  0  0
  5  6  2  0  0  0
  1  2  2  0  0  0
  1 15  1  0  0  0
 15 16  2  0  0  0
 16 17  1  0  0  0
 17 18  1  0  0  0
 18 20  1  0  0  0
 18 19  2  0  0  0
 20 21  2  0  0  0
 21 22  1  0  0  0
 22 23  2  0  0  0
 23 26  1  0  0  0
 23 24  1  0  0  0
 26 27  1  0  0  0
 26 28  1  0  0  0
 24 25  2  0  0  0
 25 20  1  0  0  0
 19 15  1  0  0  0
  6  7  1  0  0  0
  7 11  1  0  0  0
  7  8  2  0  0  0
 11 12  1  0  0  0
  8 13  1  0  0  0
  8  3  1  0  0  0
 13 14  1  0  0  0
M  END
>  <minimizedAffinity>
-1.04694

>  <minimizedRMSD>
1.42665

$$$$
CHEMBL2392195 103147032 MolPort-039-056-948 PubChem-71524158 ZINC000103147032


 40 44  0  0  0  0  0  0  0  0999 V2000
   14.0194   -6.2538   21.0133 C   0  0  0  0  0  0  0  0  0  0  0  0
   12.9138   -5.3976   20.7659 C   0  0  0  0  0  0  0  0  0  0  0  0
   12.4572   -4.5316   21.7563 O   0  0  0  0  0  0  0  0  0  0  0  0
   12.2625   -5.4064   19.5109 C   0  0  0  0  0  0  0  0  0  0  0  0
   11.0863   -4.5163   19.2758 C   0  0  0  0  0  0  0  0  0  0  0  0
   12.7060   -6.2586   18.4850 C   0  0  0  0  0  0  0  0  0  0  0  0
   12.0375   -6.3113   17.2659 O   0  0  0  0  0  0  0  0  0  0  0  0
   13.8216   -7.0654   18.7190 C   0  0  0  0  0  0  0  0  0  0  0  0
   14.4384   -7.0840   19.9590 C   0  0  0  0  0  0  0  0  0  0  0  0
   15.4721   -8.0078   19.9915 O   0  0  0  0  0  0  0  0  0  0  0  0
   15.5647   -8.5477   18.7171 C   0  0  0  0  0  0  0  0  0  0  0  0
   16.6303   -9.2127   18.2721 C   0  0  0  0  0  0  0  0  0  0  0  0
   16.7883   -9.4251   16.8213 C   0  0  0  0  0  0  0  0  0  0  0  0
   17.6243  -10.2796   16.4249 O   0  0  0  0  0  0  0  0  0  0  0  0
   15.9967   -8.5796   15.8637 C   0  0  0  0  0  0  0  0  0  0  0  0
   16.2181   -8.5977   14.5244 C   0  0  0  0  0  0  0  0  0  0  0  0
   15.3608   -7.8067   13.5816 C   0  0  0  0  0  0  0  0  0  0  0  0
   14.9484   -7.7136   16.4951 C   0  0  0  0  0  0  0  0  0  0  0  0
   14.5167   -6.6724   15.9299 O   0  0  0  0  0  0  0  0  0  0  0  0
   14.4165   -8.1317   17.8424 C   0  0  0  0  0  0  0  0  0  0  0  0
   13.4348   -9.2848   17.6860 C   0  0  0  0  0  0  0  0  0  0  0  0
   12.8780   -4.5136   22.5934 H   0  0  0  0  0  0  0  0  0  0  0  0
   11.2898   -5.7664   17.1176 H   0  0  0  0  0  0  0  0  0  0  0  0
   16.1914   -6.2954   22.4473 C   0  0  0  0  0  0  0  0  0  0  0  0
   14.7045   -6.2773   22.3350 C   0  0  0  0  0  0  0  0  0  0  0  0
   14.0352   -6.2776   23.4019 O   0  0  0  0  0  0  0  0  0  0  0  0
   17.2636   -9.4096   13.9711 N   0  0  0  0  0  0  0  0  0  0  0  0
   18.0446   -9.6099   14.5361 H   0  0  0  0  0  0  0  0  0  0  0  0
   17.2345   -9.9539   12.6214 C   0  0  0  0  0  0  0  0  0  0  0  0
   18.6515  -10.1362   12.1052 C   0  0  0  0  0  0  0  0  0  0  0  0
   18.8739   -9.2924   10.8959 C   0  0  0  0  0  0  0  0  0  0  0  0
   19.9032   -8.3761   10.7145 C   0  0  0  0  0  0  0  0  0  0  0  0
   19.7832   -7.7688    9.5063 N   0  0  0  0  0  0  0  0  0  0  0  0
   18.6826   -8.3033    8.9462 C   0  0  0  0  0  0  0  0  0  0  0  0
   18.1463   -7.9891    7.6989 C   0  0  0  0  0  0  0  0  0  0  0  0
   16.9761   -8.6623    7.3024 C   0  0  0  0  0  0  0  0  0  0  0  0
   16.3761   -9.6192    8.1498 C   0  0  0  0  0  0  0  0  0  0  0  0
   16.9394   -9.9157    9.4039 C   0  0  0  0  0  0  0  0  0  0  0  0
   18.0999   -9.2323    9.7634 C   0  0  0  0  0  0  0  0  0  0  0  0
   20.3757   -7.0831    9.1216 H   0  0  0  0  0  0  0  0  0  0  0  0
 24 25  1  0  0  0
 25 26  2  0  0  0
 25  1  1  0  0  0
  1  2  2  0  0  0
  2  3  1  0  0  0
  2  4  1  0  0  0
  4  5  1  0  0  0
  4  6  2  0  0  0
  6  7  1  0  0  0
  6  8  1  0  0  0
  8  9  2  0  0  0
  9 10  1  0  0  0
 10 11  1  0  0  0
 11 12  2  0  0  0
 12 13  1  0  0  0
 13 14  2  0  0  0
 13 15  1  0  0  0
 15 16  2  0  0  0
 16 17  1  0  0  0
 16 27  1  0  0  0
 27 29  1  0  0  0
 29 30  1  0  0  0
 30 31  1  0  0  0
 31 32  2  0  0  0
 32 33  1  0  0  0
 33 34  1  0  0  0
 34 35  2  0  0  0
 35 36  1  0  0  0
 36 37  2  0  0  0
 37 38  1  0  0  0
 38 39  2  0  0  0
 15 18  1  0  0  0
 18 19  2  0  0  0
 18 20  1  0  0  0
 20 21  1  0  0  0
  9  1  1  0  0  0
 20 11  1  0  0  0
 20  8  1  0  0  0
 39 31  1  0  0  0
 39 34  1  0  0  0
  3 22  1  0  0  0
  7 23  1  0  0  0
 27 28  1  0  0  0
 33 40  1  0  0  0
M  END
>  <minimizedAffinity>
-0.99361

>  <minimizedRMSD>
1.29653

$$$$
CHEMBL3653945 PubChem-89886869


 36 40  0  0  0  0  0  0  0  0999 V2000
   16.2095   -8.6541   17.3035 C   0  0  0  0  0  0  0  0  0  0  0  0
   17.2862   -9.5252   17.5301 C   0  0  0  0  0  0  0  0  0  0  0  0
   18.0118  -10.0656   16.4723 C   0  0  0  0  0  0  0  0  0  0  0  0
   17.6736   -9.7452   15.1611 C   0  0  0  0  0  0  0  0  0  0  0  0
   16.6089   -8.8793   14.8823 C   0  0  0  0  0  0  0  0  0  0  0  0
   16.2618   -8.5273   13.5513 C   0  0  0  0  0  0  0  0  0  0  0  0
   15.2194   -7.6116   13.3539 C   0  0  0  0  0  0  0  0  0  0  0  0
   14.5373   -7.0733   14.4394 C   0  0  0  0  0  0  0  0  0  0  0  0
   14.8755   -7.4326   15.7020 N   0  0  0  0  0  0  0  0  0  0  0  0
   15.8763   -8.3173   15.9646 C   0  0  0  0  0  0  0  0  0  0  0  0
   13.3740   -7.6511   19.6551 C   0  0  0  0  0  0  0  0  0  0  0  0
   14.0978   -7.1539   20.7656 C   0  0  0  0  0  0  0  0  0  0  0  0
   15.4990   -7.1595   20.7157 C   0  0  0  0  0  0  0  0  0  0  0  0
   16.1768   -7.6394   19.5948 C   0  0  0  0  0  0  0  0  0  0  0  0
   15.4718   -8.1243   18.4853 C   0  0  0  0  0  0  0  0  0  0  0  0
   14.0718   -8.1310   18.5365 C   0  0  0  0  0  0  0  0  0  0  0  0
   13.4413   -6.6264   21.9875 C   0  0  0  0  0  0  0  0  0  0  0  0
   12.2950   -6.1074   21.9393 O   0  0  0  0  0  0  0  0  0  0  0  0
   14.1073   -6.7007   23.2455 N   0  0  0  0  0  0  0  0  0  0  0  0
   15.0040   -7.1027   23.3047 H   0  0  0  0  0  0  0  0  0  0  0  0
   13.6707   -6.3499   24.0551 H   0  0  0  0  0  0  0  0  0  0  0  0
   11.9412   -7.6692   19.6586 N   0  0  0  0  0  0  0  0  0  0  0  0
   11.4665   -7.0384   20.2469 H   0  0  0  0  0  0  0  0  0  0  0  0
   10.5120   -7.7986   17.7044 C   0  0  0  0  0  0  0  0  0  0  0  0
   11.1536   -8.5740   18.8355 C   0  0  0  0  0  0  0  0  0  0  0  0
   16.9370   -9.0633   12.3900 N   0  0  0  0  0  0  0  0  0  0  0  0
   16.9885   -8.4789   11.1771 C   0  0  0  0  0  0  0  0  0  0  0  0
   17.6923   -9.3326   10.3561 C   0  0  0  0  0  0  0  0  0  0  0  0
   18.0690  -10.4344   11.0320 N   0  0  0  0  0  0  0  0  0  0  0  0
   17.5871  -10.2414   12.2759 C   0  0  0  0  0  0  0  0  0  0  0  0
   17.9962   -9.0988    8.9400 C   0  0  0  0  0  0  0  0  0  0  0  0
   18.8555   -8.1435    8.4365 C   0  0  0  0  0  0  0  0  0  0  0  0
   18.8291   -8.2862    7.1014 N   0  0  0  0  0  0  0  0  0  0  0  0
   18.0135   -9.2631    6.7426 N   0  0  0  0  0  0  0  0  0  0  0  0
   17.4775   -9.7916    7.8599 C   0  0  0  0  0  0  0  0  0  0  0  0
   19.5883   -7.4837    6.1611 C   0  0  0  0  0  0  0  0  0  0  0  0
 24 25  1  0  0  0
 25 22  1  0  0  0
 22 11  1  0  0  0
 11 12  2  0  0  0
 12 13  1  0  0  0
 12 17  1  0  0  0
 13 14  2  0  0  0
 14 15  1  0  0  0
 15 16  2  0  0  0
 15  1  1  0  0  0
 16 11  1  0  0  0
  1  2  2  0  0  0
  2  3  1  0  0  0
  3  4  2  0  0  0
  4  5  1  0  0  0
  5  6  2  0  0  0
  6  7  1  0  0  0
  6 26  1  0  0  0
  7  8  2  0  0  0
  8  9  1  0  0  0
  9 10  2  0  0  0
 10  1  1  0  0  0
 10  5  1  0  0  0
 26 27  1  0  0  0
 27 28  2  0  0  0
 28 29  1  0  0  0
 28 31  1  0  0  0
 29 30  2  0  0  0
 30 26  1  0  0  0
 31 32  2  0  0  0
 32 33  1  0  0  0
 33 34  1  0  0  0
 33 36  1  0  0  0
 34 35  2  0  0  0
 35 31  1  0  0  0
 17 18  2  0  0  0
 17 19  1  0  0  0
 22 23  1  0  0  0
 19 20  1  0  0  0
 19 21  1  0  0  0
M  END
>  <minimizedAffinity>
-0.95551

>  <minimizedRMSD>
1.33824

$$$$
CHEMBL2431228 PubChem-72711735


 30 33  0  0  0  0  0  0  0  0999 V2000
   13.1809   -5.8616   20.7261 C   0  0  0  0  0  0  0  0  0  0  0  0
   14.5314   -6.2418   20.6821 C   0  0  0  0  0  0  0  0  0  0  0  0
   15.0140   -7.0405   19.6434 C   0  0  0  0  0  0  0  0  0  0  0  0
   14.1470   -7.4495   18.6106 C   0  0  0  0  0  0  0  0  0  0  0  0
   12.7977   -7.0809   18.6646 C   0  0  0  0  0  0  0  0  0  0  0  0
   12.3081   -6.2875   19.7142 C   0  0  0  0  0  0  0  0  0  0  0  0
   14.6288   -8.3212   17.4740 C   0  0  0  0  0  0  0  0  0  0  0  0
   14.4558   -7.5949   16.1374 C   0  0  0  0  0  0  0  0  0  0  0  0
   14.9252   -8.4396   15.0443 N   0  0  0  0  0  0  0  0  0  0  0  0
   16.1272   -9.2059   15.1784 C   0  0  0  0  0  0  0  0  0  0  0  0
   16.6766   -9.8388   14.1348 C   0  0  0  0  0  0  0  0  0  0  0  0
   16.7308   -9.3128   16.5185 C   0  0  0  0  0  0  0  0  0  0  0  0
   17.8449   -9.8836   16.6805 O   0  0  0  0  0  0  0  0  0  0  0  0
   16.0325   -8.7441   17.6384 N   0  0  0  0  0  0  0  0  0  0  0  0
   16.6467   -8.7669   18.9629 C   0  0  0  0  0  0  0  0  0  0  0  0
   16.4626   -7.4116   19.6264 C   0  0  0  0  0  0  0  0  0  0  0  0
   14.4104   -8.4831   14.2063 H   0  0  0  0  0  0  0  0  0  0  0  0
   12.9676   -3.6756   21.8690 C   0  0  0  0  0  0  0  0  0  0  0  0
   12.6861   -5.0646   21.7643 O   0  0  0  0  0  0  0  0  0  0  0  0
   10.9617   -5.9110   19.7700 O   0  0  0  0  0  0  0  0  0  0  0  0
    9.9380   -6.6095   19.0743 C   0  0  0  0  0  0  0  0  0  0  0  0
   16.1687   -9.8302   12.7459 C   0  0  0  0  0  0  0  0  0  0  0  0
   14.9433  -10.0167   12.5116 O   0  0  0  0  0  0  0  0  0  0  0  0
   17.0968   -9.6009   11.6199 C   0  0  0  0  0  0  0  0  0  0  0  0
   18.4805   -9.5014   11.8369 C   0  0  0  0  0  0  0  0  0  0  0  0
   19.3523   -9.2843   10.7659 C   0  0  0  0  0  0  0  0  0  0  0  0
   18.8485   -9.1648    9.4684 C   0  0  0  0  0  0  0  0  0  0  0  0
   17.4734   -9.2623    9.2416 C   0  0  0  0  0  0  0  0  0  0  0  0
   16.8417   -9.1128    7.6165 Cl  0  0  0  0  0  0  0  0  0  0  0  0
   16.6017   -9.4793   10.3125 C   0  0  0  0  0  0  0  0  0  0  0  0
 18 19  1  0  0  0
 19  1  1  0  0  0
  1  2  2  0  0  0
  2  3  1  0  0  0
  3  4  2  0  0  0
  4  5  1  0  0  0
  5  6  2  0  0  0
  6 20  1  0  0  0
  6  1  1  0  0  0
 20 21  1  0  0  0
  7  4  1  0  0  0
  7  8  1  0  0  0
  8  9  1  0  0  0
  9 10  1  0  0  0
 10 11  2  0  0  0
 10 12  1  0  0  0
 11 22  1  0  0  0
 22 23  2  0  0  0
 22 24  1  0  0  0
 24 25  2  0  0  0
 25 26  1  0  0  0
 26 27  2  0  0  0
 27 28  1  0  0  0
 28 29  1  0  0  0
 28 30  2  0  0  0
 30 24  1  0  0  0
 12 13  2  0  0  0
 12 14  1  0  0  0
 14 15  1  0  0  0
 14  7  1  0  0  0
 15 16  1  0  0  0
 16  3  1  0  0  0
  9 17  1  0  0  0
M  END
>  <minimizedAffinity>
-0.90281

>  <minimizedRMSD>
1.43421

$$$$
CHEMBL382052 PubChem-157247898 PubChem-9870370


 36 40  0  0  0  0  0  0  0  0999 V2000
   17.2537  -10.1683   11.0598 C   0  0  0  0  0  0  0  0  0  0  0  0
   15.9540  -10.1401   10.5298 C   0  0  0  0  0  0  0  0  0  0  0  0
   14.8853   -9.6758   11.2965 C   0  0  0  0  0  0  0  0  0  0  0  0
   15.1015   -9.2426   12.6044 C   0  0  0  0  0  0  0  0  0  0  0  0
   16.3859   -9.2769   13.1611 C   0  0  0  0  0  0  0  0  0  0  0  0
   17.4748   -9.7198   12.3742 C   0  0  0  0  0  0  0  0  0  0  0  0
   18.8636   -9.7612   12.9475 C   0  0  0  0  0  0  0  0  0  0  0  0
   19.0462   -8.6585   13.9775 C   0  0  0  0  0  0  0  0  0  0  0  0
   18.0075   -8.7868   14.9917 N   0  0  0  0  0  0  0  0  0  0  0  0
   18.3743   -8.8703   16.3824 C   0  0  0  0  0  0  0  0  0  0  0  0
   19.5464   -8.5974   16.7559 O   0  0  0  0  0  0  0  0  0  0  0  0
   17.3755   -9.3736   17.3829 C   0  0  0  0  0  0  0  0  0  0  0  0
   17.4332  -10.9043   17.4413 C   0  0  0  0  0  0  0  0  0  0  0  0
   17.0510  -11.5258   16.0904 C   0  0  0  0  0  0  0  0  0  0  0  0
   15.7139  -10.9813   15.5739 C   0  0  0  0  0  0  0  0  0  0  0  0
   15.6589   -9.4425   15.6072 C   0  0  0  0  0  0  0  0  0  0  0  0
   16.5900   -8.7695   14.5738 C   0  0  0  0  0  0  0  0  0  0  0  0
   16.0404   -8.9848   16.9393 N   0  0  0  0  0  0  0  0  0  0  0  0
   15.1099   -8.2742   17.7754 C   0  0  0  0  0  0  0  0  0  0  0  0
   13.9026   -8.1967   17.4190 O   0  0  0  0  0  0  0  0  0  0  0  0
   18.7407  -10.0148    9.0840 C   0  0  0  0  0  0  0  0  0  0  0  0
   18.3324  -10.6324   10.2971 O   0  0  0  0  0  0  0  0  0  0  0  0
   15.5435   -7.6060   19.0288 C   0  0  0  0  0  0  0  0  0  0  0  0
   16.7767   -7.4552   19.2454 O   0  0  0  0  0  0  0  0  0  0  0  0
   14.5770   -7.0869   20.0264 C   0  0  0  0  0  0  0  0  0  0  0  0
   13.3176   -6.6149   19.6460 C   0  0  0  0  0  0  0  0  0  0  0  0
   12.4036   -6.1404   20.5971 C   0  0  0  0  0  0  0  0  0  0  0  0
   12.7443   -6.1382   21.9600 C   0  0  0  0  0  0  0  0  0  0  0  0
   14.0152   -6.6229   22.3594 C   0  0  0  0  0  0  0  0  0  0  0  0
   14.9100   -7.0912   21.3842 C   0  0  0  0  0  0  0  0  0  0  0  0
   11.1459   -5.6643   20.2092 O   0  0  0  0  0  0  0  0  0  0  0  0
   10.9740   -4.4921   19.4242 C   0  0  0  0  0  0  0  0  0  0  0  0
   11.7860   -5.6478   22.8633 O   0  0  0  0  0  0  0  0  0  0  0  0
   11.7330   -4.3160   23.3539 C   0  0  0  0  0  0  0  0  0  0  0  0
   14.3816   -6.6392   23.7104 O   0  0  0  0  0  0  0  0  0  0  0  0
   15.5030   -7.3623   24.2008 C   0  0  0  0  0  0  0  0  0  0  0  0
 21 22  1  0  0  0
 22  1  1  0  0  0
  1  2  2  0  0  0
  2  3  1  0  0  0
  3  4  2  0  0  0
  4  5  1  0  0  0
  5  6  2  0  0  0
  6  7  1  0  0  0
  6  1  1  0  0  0
  7  8  1  0  0  0
  8  9  1  0  0  0
  9 10  1  0  0  0
 10 11  2  0  0  0
 12 10  1  0  0  0
 12 13  1  0  0  0
 13 14  1  0  0  0
 14 15  1  0  0  0
 16 15  1  0  0  0
 16 17  1  0  0  0
 16 18  1  0  0  0
 17  9  1  0  0  0
 17  5  1  0  0  0
 18 19  1  0  0  0
 18 12  1  0  0  0
 19 20  2  0  0  0
 19 23  1  0  0  0
 23 24  2  0  0  0
 23 25  1  0  0  0
 25 26  2  0  0  0
 26 27  1  0  0  0
 27 31  1  0  0  0
 27 28  2  0  0  0
 31 32  1  0  0  0
 28 33  1  0  0  0
 28 29  1  0  0  0
 33 34  1  0  0  0
 29 35  1  0  0  0
 29 30  2  0  0  0
 35 36  1  0  0  0
 30 25  1  0  0  0
M  END
>  <minimizedAffinity>
-0.88332

>  <minimizedRMSD>
1.91103

$$$$
CHEMBL3634155 PubChem-137028538


 38 40  0  0  0  0  0  0  0  0999 V2000
   16.8222   -8.9700   13.8961 C   0  0  0  0  0  0  0  0  0  0  0  0
   18.0344   -9.6432   13.6908 C   0  0  0  0  0  0  0  0  0  0  0  0
   18.3278  -10.2088   12.4468 C   0  0  0  0  0  0  0  0  0  0  0  0
   17.4155  -10.1084   11.3922 C   0  0  0  0  0  0  0  0  0  0  0  0
   16.1996   -9.4372   11.5957 C   0  0  0  0  0  0  0  0  0  0  0  0
   15.9062   -8.8716   12.8393 C   0  0  0  0  0  0  0  0  0  0  0  0
   16.0545   -9.2006   16.2800 N   0  0  0  0  0  0  0  0  0  0  0  0
   16.5139   -8.3751   15.2081 C   0  0  0  0  0  0  0  0  0  0  0  0
   16.6557   -7.1352   15.3893 O   0  0  0  0  0  0  0  0  0  0  0  0
   15.9615  -10.1705   16.1389 H   0  0  0  0  0  0  0  0  0  0  0  0
   14.6502   -7.9642   17.6721 C   0  0  0  0  0  0  0  0  0  0  0  0
   15.7347   -8.6524   17.5272 N   0  0  0  0  0  0  0  0  0  0  0  0
   14.8572   -6.9313   21.2867 C   0  0  0  0  0  0  0  0  0  0  0  0
   15.1746   -7.4833   20.0354 C   0  0  0  0  0  0  0  0  0  0  0  0
   14.2874   -7.3715   18.9634 C   0  0  0  0  0  0  0  0  0  0  0  0
   13.0705   -6.7019   19.1410 C   0  0  0  0  0  0  0  0  0  0  0  0
   12.7375   -6.1442   20.3852 C   0  0  0  0  0  0  0  0  0  0  0  0
   13.6357   -6.2627   21.4560 C   0  0  0  0  0  0  0  0  0  0  0  0
   13.3133   -5.7140   22.6926 O   0  0  0  0  0  0  0  0  0  0  0  0
   12.4980   -5.2669   22.8085 H   0  0  0  0  0  0  0  0  0  0  0  0
   17.0202   -6.4229   22.3786 C   0  0  0  0  0  0  0  0  0  0  0  0
   15.7370   -7.0337   22.3697 O   0  0  0  0  0  0  0  0  0  0  0  0
   11.5262   -5.4712   20.5787 O   0  0  0  0  0  0  0  0  0  0  0  0
   10.9569   -4.6150   19.5978 C   0  0  0  0  0  0  0  0  0  0  0  0
   17.7392  -10.6870   10.1602 O   0  0  0  0  0  0  0  0  0  0  0  0
   16.8520  -10.7040    9.0455 C   0  0  0  0  0  0  0  0  0  0  0  0
   17.2564   -9.6775    8.0425 C   0  0  0  0  0  0  0  0  0  0  0  0
   16.5637   -8.4722    7.9622 C   0  0  0  0  0  0  0  0  0  0  0  0
   16.9331   -7.4975    7.0329 C   0  0  0  0  0  0  0  0  0  0  0  0
   18.0680   -7.7100    6.2061 C   0  0  0  0  0  0  0  0  0  0  0  0
   18.7292   -8.9649    6.2471 C   0  0  0  0  0  0  0  0  0  0  0  0
   18.3188   -9.9258    7.1753 C   0  0  0  0  0  0  0  0  0  0  0  0
   16.1357   -6.3517    6.9513 O   0  0  0  0  0  0  0  0  0  0  0  0
   14.7805   -6.3890    6.5253 C   0  0  0  0  0  0  0  0  0  0  0  0
   18.5660   -6.6946    5.3837 O   0  0  0  0  0  0  0  0  0  0  0  0
   19.9455   -6.3556    5.3512 C   0  0  0  0  0  0  0  0  0  0  0  0
   19.8095   -9.3044    5.4184 O   0  0  0  0  0  0  0  0  0  0  0  0
   19.8189   -9.1794    4.0036 C   0  0  0  0  0  0  0  0  0  0  0  0
 21 22  1  0  0  0
 22 13  1  0  0  0
 13 14  2  0  0  0
 14 15  1  0  0  0
 15 11  1  0  0  0
 11 12  2  0  0  0
 12  7  1  0  0  0
  7  8  1  0  0  0
  8  9  2  0  0  0
  8  1  1  0  0  0
  1  2  2  0  0  0
  2  3  1  0  0  0
  3  4  2  0  0  0
  4 25  1  0  0  0
 25 26  1  0  0  0
 26 27  1  0  0  0
 27 28  2  0  0  0
 28 29  1  0  0  0
 29 33  1  0  0  0
 33 34  1  0  0  0
 29 30  2  0  0  0
 30 35  1  0  0  0
 35 36  1  0  0  0
 30 31  1  0  0  0
 31 37  1  0  0  0
 37 38  1  0  0  0
 31 32  2  0  0  0
  4  5  1  0  0  0
  5  6  2  0  0  0
 15 16  2  0  0  0
 16 17  1  0  0  0
 17 23  1  0  0  0
 23 24  1  0  0  0
 17 18  2  0  0  0
 18 19  1  0  0  0
 18 13  1  0  0  0
  6  1  1  0  0  0
 32 27  1  0  0  0
  7 10  1  0  0  0
 19 20  1  0  0  0
M  END
>  <minimizedAffinity>
-0.80672

>  <minimizedRMSD>
1.47155

$$$$
CHEMBL1195207 CHEMBL554038


 32 36  0  0  0  0  0  0  0  0999 V2000
   14.8971   -7.8598   19.6279 N   0  0  0  0  0  0  0  0  0  0  0  0
   14.3199   -7.2672   18.5594 C   0  0  0  0  0  0  0  0  0  0  0  0
   14.9364   -7.7466   17.3521 C   0  0  0  0  0  0  0  0  0  0  0  0
   15.9076   -8.6488   17.7103 C   0  0  0  0  0  0  0  0  0  0  0  0
   15.9529   -8.7873   19.2031 C   0  0  0  0  0  0  0  0  0  0  0  0
   16.6755   -9.2827   16.7382 C   0  0  0  0  0  0  0  0  0  0  0  0
   16.4184   -8.9646   15.3948 C   0  0  0  0  0  0  0  0  0  0  0  0
   15.3991   -8.0216   15.0713 C   0  0  0  0  0  0  0  0  0  0  0  0
   14.6717   -7.4259   16.0611 N   0  0  0  0  0  0  0  0  0  0  0  0
   15.1475   -7.7094   13.7341 C   0  0  0  0  0  0  0  0  0  0  0  0
   15.8930   -8.3202   12.7217 C   0  0  0  0  0  0  0  0  0  0  0  0
   16.8999   -9.2513   13.0350 C   0  0  0  0  0  0  0  0  0  0  0  0
   17.1559   -9.5676   14.3737 C   0  0  0  0  0  0  0  0  0  0  0  0
   13.2826   -6.3518   18.7015 C   0  0  0  0  0  0  0  0  0  0  0  0
   12.8463   -6.0404   20.0020 C   0  0  0  0  0  0  0  0  0  0  0  0
   13.4622   -6.6704   21.1126 C   0  0  0  0  0  0  0  0  0  0  0  0
   14.5000   -7.5978   20.9018 C   0  0  0  0  0  0  0  0  0  0  0  0
   15.0542   -8.1788   21.8743 O   0  0  0  0  0  0  0  0  0  0  0  0
   12.9585   -6.3764   22.4947 C   0  0  0  0  0  0  0  0  0  0  0  0
   12.5295   -5.0206   22.5920 O   0  0  0  0  0  0  0  0  0  0  0  0
   11.8378   -4.3931   21.5511 C   0  0  0  0  0  0  0  0  0  0  0  0
   11.3217   -3.2607   21.7479 O   0  0  0  0  0  0  0  0  0  0  0  0
   11.6932   -5.0734   20.2123 C   0  0  0  0  0  0  0  0  0  0  0  0
   11.6959   -4.0980   19.2073 O   0  0  0  0  0  0  0  0  0  0  0  0
   10.9572   -3.4856   19.3492 H   0  0  0  0  0  0  0  0  0  0  0  0
   17.6758   -9.8889   12.0139 N   0  0  0  0  0  0  0  0  0  0  0  0
   17.6882   -9.4910   10.7800 C   0  0  0  0  0  0  0  0  0  0  0  0
   18.4789  -10.1600    9.7962 N   0  0  0  0  0  0  0  0  0  0  0  0
   19.6323  -10.9658   10.1625 C   0  0  0  0  0  0  0  0  0  0  0  0
   18.1222  -10.0321    8.3966 C   0  0  0  0  0  0  0  0  0  0  0  0
   10.3568   -5.8214   20.2032 C   0  0  0  0  0  0  0  0  0  0  0  0
   10.2359   -6.7981   19.0427 C   0  0  0  0  0  0  0  0  0  0  0  0
  1  2  1  0  0  0
  2  3  1  0  0  0
  3  4  2  0  0  0
  4  5  1  0  0  0
  4  6  1  0  0  0
  6  7  2  0  0  0
  7  8  1  0  0  0
  8  9  2  0  0  0
  8 10  1  0  0  0
 10 11  2  0  0  0
 11 12  1  0  0  0
 12 26  1  0  0  0
 26 27  2  0  0  0
 27 28  1  0  0  0
 28 29  1  0  0  0
 28 30  1  0  0  0
 12 13  2  0  0  0
  2 14  2  0  0  0
 14 15  1  0  0  0
 15 16  2  0  0  0
 16 17  1  0  0  0
 17 18  2  0  0  0
 16 19  1  0  0  0
 19 20  1  0  0  0
 20 21  1  0  0  0
 21 22  2  0  0  0
 21 23  1  0  0  0
 23 24  1  0  0  0
 23 31  1  0  0  0
 31 32  1  0  0  0
 17  1  1  0  0  0
  5  1  1  0  0  0
 13  7  1  0  0  0
 23 15  1  0  0  0
  9  3  1  0  0  0
 24 25  1  0  0  0
M  END
>  <minimizedAffinity>
-0.54953

>  <minimizedRMSD>
1.63708

$$$$
CHEMBL5308023 19237436 MCULE-3320739293 PubChem-92562163 ZINC000019237436


 34 38  0  0  0  0  0  0  0  0999 V2000
   17.1194  -10.1900   15.4465 N   0  0  0  0  0  0  0  0  0  0  0  0
   16.9653  -11.1352   16.5405 C   0  0  0  0  0  0  0  0  0  0  0  0
   16.3387  -10.3953   17.7047 C   0  0  0  0  0  0  0  0  0  0  0  0
   14.8342  -10.6111   17.7012 C   0  0  0  0  0  0  0  0  0  0  0  0
   14.2197   -9.3639   17.1011 C   0  0  0  0  0  0  0  0  0  0  0  0
   15.1994   -8.2414   17.3905 C   0  0  0  0  0  0  0  0  0  0  0  0
   16.5821   -8.9242   17.4251 C   0  0  0  0  0  0  0  0  0  0  0  0
   17.3067   -8.8954   16.0852 C   0  0  0  0  0  0  0  0  0  0  0  0
   15.1348   -7.2875   16.3689 O   0  0  0  0  0  0  0  0  0  0  0  0
   15.3580   -7.7049   15.5222 H   0  0  0  0  0  0  0  0  0  0  0  0
   14.8475   -7.5756   18.7133 C   0  0  0  0  0  0  0  0  0  0  0  0
   15.7181   -7.6305   19.8115 C   0  0  0  0  0  0  0  0  0  0  0  0
   15.3939   -7.0287   20.9836 N   0  0  0  0  0  0  0  0  0  0  0  0
   14.2234   -6.3576   21.1235 C   0  0  0  0  0  0  0  0  0  0  0  0
   13.3593   -6.2832   20.0758 N   0  0  0  0  0  0  0  0  0  0  0  0
   13.6393   -6.8701   18.8797 C   0  0  0  0  0  0  0  0  0  0  0  0
   12.7327   -6.7725   17.8203 O   0  0  0  0  0  0  0  0  0  0  0  0
   11.3554   -7.0814   17.9739 C   0  0  0  0  0  0  0  0  0  0  0  0
   13.9227   -5.7514   22.3434 O   0  0  0  0  0  0  0  0  0  0  0  0
   12.5854   -5.5715   22.7852 C   0  0  0  0  0  0  0  0  0  0  0  0
   18.3613  -10.5236   14.7673 C   0  0  0  0  0  0  0  0  0  0  0  0
   18.0550   -9.5744   10.5803 C   0  0  0  0  0  0  0  0  0  0  0  0
   19.2454  -10.0970   11.1113 C   0  0  0  0  0  0  0  0  0  0  0  0
   19.3428  -10.4140   12.4688 C   0  0  0  0  0  0  0  0  0  0  0  0
   18.2495  -10.2102   13.3144 C   0  0  0  0  0  0  0  0  0  0  0  0
   17.0654   -9.6720   12.8037 C   0  0  0  0  0  0  0  0  0  0  0  0
   16.9700   -9.3553   11.4459 C   0  0  0  0  0  0  0  0  0  0  0  0
   19.6856   -7.3368    9.3115 C   0  0  0  0  0  0  0  0  0  0  0  0
   18.6801   -8.1390    8.5560 C   0  0  0  0  0  0  0  0  0  0  0  0
   18.5137   -7.8432    7.1986 C   0  0  0  0  0  0  0  0  0  0  0  0
   17.6305   -8.5839    6.4127 C   0  0  0  0  0  0  0  0  0  0  0  0
   16.9109   -9.6357    6.9776 C   0  0  0  0  0  0  0  0  0  0  0  0
   17.0708   -9.9424    8.3298 C   0  0  0  0  0  0  0  0  0  0  0  0
   17.9462   -9.2024    9.1439 C   0  0  0  0  0  0  0  0  0  0  0  0
 28 29  1  0  0  0
 29 30  2  0  0  0
 30 31  1  0  0  0
 31 32  2  0  0  0
 32 33  1  0  0  0
 33 34  2  0  0  0
 34 22  1  0  0  0
 22 23  2  0  0  0
 23 24  1  0  0  0
 24 25  2  0  0  0
 25 26  1  0  0  0
 26 27  2  0  0  0
 25 21  1  0  0  0
 21  1  1  0  0  0
  1  2  1  0  0  0
  3  2  1  0  0  0
  3  4  1  0  0  0
  4  5  1  0  0  0
  5  6  1  0  0  0
  6  7  1  0  0  0
  7  8  1  0  0  0
  6 11  1  0  0  0
 11 12  2  0  0  0
 12 13  1  0  0  0
 13 14  2  0  0  0
 14 15  1  0  0  0
 15 16  2  0  0  0
 16 17  1  0  0  0
 17 18  1  0  0  0
 14 19  1  0  0  0
 19 20  1  0  0  0
  6  9  1  0  0  0
 34 29  1  0  0  0
 27 22  1  0  0  0
  8  1  1  0  0  0
  7  3  1  0  0  0
 16 11  1  0  0  0
  9 10  1  0  0  0
M  END
>  <minimizedAffinity>
-0.44724

>  <minimizedRMSD>
0.99510

$$$$
CHEMBL4866153 PubChem-164625591


 33 36  0  0  0  0  0  0  0  0999 V2000
   16.8263   -9.6466   12.0723 C   0  0  0  0  0  0  0  0  0  0  0  0
   16.7778   -8.5235   12.9190 C   0  0  0  0  0  0  0  0  0  0  0  0
   16.5852   -8.7170   14.2864 C   0  0  0  0  0  0  0  0  0  0  0  0
   16.4432   -9.9758   14.8136 C   0  0  0  0  0  0  0  0  0  0  0  0
   16.2487   -9.9541   16.2788 C   0  0  0  0  0  0  0  0  0  0  0  0
   16.3011   -8.4552   16.6203 C   0  0  0  0  0  0  0  0  0  0  0  0
   16.5072   -7.6619   15.3187 C   0  0  0  0  0  0  0  0  0  0  0  0
   15.0669   -8.0113   17.3420 C   0  0  0  0  0  0  0  0  0  0  0  0
   13.9017   -8.0987   16.8688 O   0  0  0  0  0  0  0  0  0  0  0  0
   15.3551   -7.4963   18.6434 N   0  0  0  0  0  0  0  0  0  0  0  0
   16.7731   -7.6163   18.7650 C   0  0  0  0  0  0  0  0  0  0  0  0
   17.6617   -6.8553   19.9175 S   0  0  0  0  0  0  0  0  0  0  0  0
   17.3579   -8.1707   17.5878 N   0  0  0  0  0  0  0  0  0  0  0  0
   18.7816   -8.3859   17.3664 C   0  0  0  0  0  0  0  0  0  0  0  0
   16.4862  -11.1082   14.0018 C   0  0  0  0  0  0  0  0  0  0  0  0
   16.6793  -10.9372   12.6230 C   0  0  0  0  0  0  0  0  0  0  0  0
   14.3990   -7.0499   19.6256 C   0  0  0  0  0  0  0  0  0  0  0  0
   13.3224   -6.2368   19.2461 C   0  0  0  0  0  0  0  0  0  0  0  0
   12.3713   -5.7989   20.1802 C   0  0  0  0  0  0  0  0  0  0  0  0
   12.5091   -6.1944   21.5301 C   0  0  0  0  0  0  0  0  0  0  0  0
   13.5784   -7.0095   21.9105 C   0  0  0  0  0  0  0  0  0  0  0  0
   14.5139   -7.4349   20.9667 C   0  0  0  0  0  0  0  0  0  0  0  0
   11.2310   -4.9224   19.7206 C   0  0  0  0  0  0  0  0  0  0  0  0
   10.0340   -5.5993   19.8687 F   0  0  0  0  0  0  0  0  0  0  0  0
   11.1975   -3.7657   20.4783 F   0  0  0  0  0  0  0  0  0  0  0  0
   11.3763   -4.5718   18.3884 F   0  0  0  0  0  0  0  0  0  0  0  0
   11.5717   -5.7832   22.5445 C   0  0  0  0  0  0  0  0  0  0  0  0
   10.8188   -5.4530   23.3591 N   0  0  0  0  0  0  0  0  0  0  0  0
   18.3280   -8.4467    8.7215 C   0  0  0  0  0  0  0  0  0  0  0  0
   18.0894   -8.6458   10.1410 N   0  0  0  0  0  0  0  0  0  0  0  0
   17.0288   -9.4753   10.6231 C   0  0  0  0  0  0  0  0  0  0  0  0
   16.2660  -10.0605    9.8059 O   0  0  0  0  0  0  0  0  0  0  0  0
   18.6761   -8.1958   10.7910 H   0  0  0  0  0  0  0  0  0  0  0  0
 29 30  1  0  0  0
 30 31  1  0  0  0
 31 32  2  0  0  0
 31  1  1  0  0  0
  1  2  2  0  0  0
  2  3  1  0  0  0
  3  4  2  0  0  0
  4  5  1  0  0  0
  5  6  1  0  0  0
  6  7  1  0  0  0
  6  8  1  0  0  0
  8  9  2  0  0  0
  8 10  1  0  0  0
 10 11  1  0  0  0
 11 12  2  0  0  0
 11 13  1  0  0  0
 13 14  1  0  0  0
 10 17  1  0  0  0
 17 18  2  0  0  0
 18 19  1  0  0  0
 19 20  2  0  0  0
 20 21  1  0  0  0
 21 22  2  0  0  0
 20 27  1  0  0  0
 27 28  3  0  0  0
 19 23  1  0  0  0
 23 24  1  0  0  0
 23 25  1  0  0  0
 23 26  1  0  0  0
  4 15  1  0  0  0
 15 16  2  0  0  0
 16  1  1  0  0  0
  7  3  1  0  0  0
 13  6  1  0  0  0
 22 17  1  0  0  0
 30 33  1  0  0  0
M  END
>  <minimizedAffinity>
-0.29095

>  <minimizedRMSD>
1.19791

$$$$
CHEMBL272242 PubChem-44456935


 36 39  0  0  0  0  0  0  0  0999 V2000
   16.7213   -9.8286    8.5226 C   0  0  0  0  0  0  0  0  0  0  0  0
   16.3429  -10.7414    7.7388 O   0  0  0  0  0  0  0  0  0  0  0  0
   16.0362   -9.6300    9.7708 N   0  0  0  0  0  0  0  0  0  0  0  0
   16.1754   -8.3663   10.5029 C   0  0  0  0  0  0  0  0  0  0  0  0
   15.3721   -8.3832   11.8042 C   0  0  0  0  0  0  0  0  0  0  0  0
   15.6195   -9.6781   12.5916 C   0  0  0  0  0  0  0  0  0  0  0  0
   15.4235  -10.9474   11.7463 C   0  0  0  0  0  0  0  0  0  0  0  0
   15.1312  -10.6633   10.2716 C   0  0  0  0  0  0  0  0  0  0  0  0
   18.9353   -8.6439    8.9655 C   0  0  0  0  0  0  0  0  0  0  0  0
   19.9073   -7.7378    8.5153 C   0  0  0  0  0  0  0  0  0  0  0  0
   19.8260   -7.1701    7.2432 C   0  0  0  0  0  0  0  0  0  0  0  0
   18.7687   -7.5038    6.3982 C   0  0  0  0  0  0  0  0  0  0  0  0
   17.7838   -8.3914    6.8321 C   0  0  0  0  0  0  0  0  0  0  0  0
   17.8420   -8.9578    8.1129 C   0  0  0  0  0  0  0  0  0  0  0  0
   18.8744  -10.4776   10.4947 O   0  0  0  0  0  0  0  0  0  0  0  0
   19.1425   -9.2640   10.2940 C   0  0  0  0  0  0  0  0  0  0  0  0
   19.6873   -8.5150   11.3307 O   0  0  0  0  0  0  0  0  0  0  0  0
   19.8926   -7.6105   11.1976 H   0  0  0  0  0  0  0  0  0  0  0  0
   17.0139   -9.6940   13.2039 C   0  0  0  0  0  0  0  0  0  0  0  0
   16.9467   -9.3936   14.6237 N   0  0  0  0  0  0  0  0  0  0  0  0
   18.3176   -9.1669   15.0732 C   0  0  0  0  0  0  0  0  0  0  0  0
   18.3390   -8.7248   16.5415 C   0  0  0  0  0  0  0  0  0  0  0  0
   17.0985   -9.1817   17.3186 C   0  0  0  0  0  0  0  0  0  0  0  0
   16.6026  -10.5452   16.8174 C   0  0  0  0  0  0  0  0  0  0  0  0
   16.4311  -10.5937   15.2881 C   0  0  0  0  0  0  0  0  0  0  0  0
   16.0714   -8.2005   17.1928 O   0  0  0  0  0  0  0  0  0  0  0  0
   15.2329   -7.8217   18.2467 C   0  0  0  0  0  0  0  0  0  0  0  0
   15.6802   -7.8087   19.5768 C   0  0  0  0  0  0  0  0  0  0  0  0
   14.8177   -7.4245   20.6060 C   0  0  0  0  0  0  0  0  0  0  0  0
   13.5000   -7.0532   20.3196 C   0  0  0  0  0  0  0  0  0  0  0  0
   13.0500   -7.0544   18.9867 C   0  0  0  0  0  0  0  0  0  0  0  0
   11.4093   -6.5861   18.5681 Cl  0  0  0  0  0  0  0  0  0  0  0  0
   13.9187   -7.4404   17.9610 C   0  0  0  0  0  0  0  0  0  0  0  0
   12.6114   -6.6279   21.4401 C   0  0  0  0  0  0  0  0  0  0  0  0
   12.7199   -5.2503   21.6308 O   0  0  0  0  0  0  0  0  0  0  0  0
   13.6381   -5.0254   21.8482 H   0  0  0  0  0  0  0  0  0  0  0  0
 15 16  2  0  0  0
 16 17  1  0  0  0
 16  9  1  0  0  0
  9 10  2  0  0  0
 10 11  1  0  0  0
 11 12  2  0  0  0
 12 13  1  0  0  0
 13 14  2  0  0  0
 14  1  1  0  0  0
 14  9  1  0  0  0
  1  2  2  0  0  0
  1  3  1  0  0  0
  3  4  1  0  0  0
  4  5  1  0  0  0
  5  6  1  0  0  0
  6 19  1  0  0  0
  6  7  1  0  0  0
 19 20  1  0  0  0
 20 21  1  0  0  0
 21 22  1  0  0  0
 22 23  1  0  0  0
 23 26  1  0  0  0
 23 24  1  0  0  0
 26 27  1  0  0  0
 27 28  2  0  0  0
 28 29  1  0  0  0
 29 30  2  0  0  0
 30 34  1  0  0  0
 30 31  1  0  0  0
 34 35  1  0  0  0
 31 32  1  0  0  0
 31 33  2  0  0  0
 33 27  1  0  0  0
 24 25  1  0  0  0
 25 20  1  0  0  0
  7  8  1  0  0  0
  8  3  1  0  0  0
 17 18  1  0  0  0
 35 36  1  0  0  0
M  END
>  <minimizedAffinity>
-0.12845

>  <minimizedRMSD>
1.26447

$$$$
CHEMBL5184564 Z4087466774


 37 40  0  0  0  0  0  0  0  0999 V2000
   16.0878   -9.5214   13.2338 N   0  0  0  0  0  0  0  0  0  0  0  0
   15.1886   -8.8018   12.3315 C   0  0  0  0  0  0  0  0  0  0  0  0
   14.5908   -9.7675   11.3131 C   0  0  0  0  0  0  0  0  0  0  0  0
   15.6592  -10.4914   10.6316 N   0  0  0  0  0  0  0  0  0  0  0  0
   16.3142  -11.3597   11.6083 C   0  0  0  0  0  0  0  0  0  0  0  0
   17.0088  -10.5267   12.6902 C   0  0  0  0  0  0  0  0  0  0  0  0
   16.3350   -9.8303   10.2485 H   0  0  0  0  0  0  0  0  0  0  0  0
   15.5099   -8.3026   16.5872 C   0  0  0  0  0  0  0  0  0  0  0  0
   16.8309   -8.6034   16.9327 C   0  0  0  0  0  0  0  0  0  0  0  0
   17.5623   -9.2480   15.5592 S   0  0  0  0  0  0  0  0  0  0  0  0
   16.1877   -9.1151   14.6054 C   0  0  0  0  0  0  0  0  0  0  0  0
   15.1601   -8.5886   15.3022 N   0  0  0  0  0  0  0  0  0  0  0  0
   14.6763   -7.5470   18.8977 C   0  0  0  0  0  0  0  0  0  0  0  0
   14.5328   -7.7145   17.5250 C   0  0  0  0  0  0  0  0  0  0  0  0
   13.3295   -7.2636   17.1162 N   0  0  0  0  0  0  0  0  0  0  0  0
   12.7083   -6.8046   18.2187 C   0  0  0  0  0  0  0  0  0  0  0  0
   11.3462   -6.2012   18.1746 C   0  0  0  0  0  0  0  0  0  0  0  0
   13.5031   -6.9519   19.3467 C   0  0  0  0  0  0  0  0  0  0  0  0
   12.9766   -7.2690   16.1971 H   0  0  0  0  0  0  0  0  0  0  0  0
   13.1633   -6.5282   20.7267 C   0  0  0  0  0  0  0  0  0  0  0  0
   12.8840   -7.3899   21.6020 O   0  0  0  0  0  0  0  0  0  0  0  0
   13.1189   -5.0904   21.1141 C   0  0  0  0  0  0  0  0  0  0  0  0
   16.2722   -6.8053   20.6344 C   0  0  0  0  0  0  0  0  0  0  0  0
   15.8613   -7.9446   19.7198 C   0  0  0  0  0  0  0  0  0  0  0  0
   18.2715   -9.9076   12.1651 C   0  0  0  0  0  0  0  0  0  0  0  0
   19.2461   -9.6810   12.9341 O   0  0  0  0  0  0  0  0  0  0  0  0
   18.3500   -9.5608   10.7808 N   0  0  0  0  0  0  0  0  0  0  0  0
   17.6085   -9.8197   10.1872 H   0  0  0  0  0  0  0  0  0  0  0  0
   19.4804   -8.8407   10.2112 C   0  0  0  0  0  0  0  0  0  0  0  0
   18.9941   -7.7618    9.3012 C   0  0  0  0  0  0  0  0  0  0  0  0
   18.8724   -6.4709    9.6594 N   0  0  0  0  0  0  0  0  0  0  0  0
   18.3471   -5.8786    8.5622 C   0  0  0  0  0  0  0  0  0  0  0  0
   18.1442   -6.7435    7.5892 O   0  0  0  0  0  0  0  0  0  0  0  0
   18.5322   -7.9180    8.0185 C   0  0  0  0  0  0  0  0  0  0  0  0
   18.4562   -9.1905    7.2401 C   0  0  0  0  0  0  0  0  0  0  0  0
   18.6500   -8.9141    5.7612 C   0  0  0  0  0  0  0  0  0  0  0  0
   17.1138   -9.8598    7.4651 C   0  0  0  0  0  0  0  0  0  0  0  0
 23 24  1  0  0  0
 24 13  1  0  0  0
 13 14  2  0  0  0
 14 15  1  0  0  0
 15 16  1  0  0  0
 16 17  1  0  0  0
 16 18  2  0  0  0
 18 20  1  0  0  0
 20 21  2  0  0  0
 20 22  1  0  0  0
 14  8  1  0  0  0
  8  9  2  0  0  0
  9 10  1  0  0  0
 10 11  1  0  0  0
 11 12  2  0  0  0
 11  1  1  0  0  0
  1  2  1  0  0  0
  2  3  1  0  0  0
  3  4  1  0  0  0
  4  5  1  0  0  0
  5  6  1  0  0  0
  6 25  1  0  0  0
 25 26  2  0  0  0
 25 27  1  0  0  0
 27 29  1  0  0  0
 29 30  1  0  0  0
 30 31  1  0  0  0
 31 32  2  0  0  0
 32 33  1  0  0  0
 33 34  1  0  0  0
 34 35  1  0  0  0
 35 36  1  0  0  0
 35 37  1  0  0  0
 18 13  1  0  0  0
 12  8  1  0  0  0
  6  1  1  0  0  0
 34 30  2  0  0  0
 15 19  1  0  0  0
  4  7  1  0  0  0
 27 28  1  0  0  0
M  END
>  <minimizedAffinity>
-0.07753

>  <minimizedRMSD>
1.66926

$$$$
CHEMBL4861204 PubChem-164617079


 33 36  0  0  0  0  0  0  0  0999 V2000
   16.8292   -9.6393   12.0724 C   0  0  0  0  0  0  0  0  0  0  0  0
   16.7828   -8.5168   12.9199 C   0  0  0  0  0  0  0  0  0  0  0  0
   16.5811   -8.7105   14.2861 C   0  0  0  0  0  0  0  0  0  0  0  0
   16.4281   -9.9690   14.8111 C   0  0  0  0  0  0  0  0  0  0  0  0
   16.2253   -9.9476   16.2752 C   0  0  0  0  0  0  0  0  0  0  0  0
   16.2852   -8.4495   16.6186 C   0  0  0  0  0  0  0  0  0  0  0  0
   16.5037   -7.6561   15.3190 C   0  0  0  0  0  0  0  0  0  0  0  0
   15.0496   -7.9986   17.3337 C   0  0  0  0  0  0  0  0  0  0  0  0
   13.8867   -8.0773   16.8531 O   0  0  0  0  0  0  0  0  0  0  0  0
   15.3335   -7.4869   18.6374 N   0  0  0  0  0  0  0  0  0  0  0  0
   16.7500   -7.6158   18.7668 C   0  0  0  0  0  0  0  0  0  0  0  0
   17.6370   -6.8654   19.9275 S   0  0  0  0  0  0  0  0  0  0  0  0
   17.3382   -8.1726   17.5924 N   0  0  0  0  0  0  0  0  0  0  0  0
   18.7617   -8.3969   17.3791 C   0  0  0  0  0  0  0  0  0  0  0  0
   16.4686  -11.1008   13.9982 C   0  0  0  0  0  0  0  0  0  0  0  0
   16.6709  -10.9295   12.6208 C   0  0  0  0  0  0  0  0  0  0  0  0
   14.3742   -7.0350   19.6141 C   0  0  0  0  0  0  0  0  0  0  0  0
   13.2991   -6.2251   19.2343 C   0  0  0  0  0  0  0  0  0  0  0  0
   12.3537   -5.7900   20.1714 C   0  0  0  0  0  0  0  0  0  0  0  0
   12.5110   -6.1937   21.5149 C   0  0  0  0  0  0  0  0  0  0  0  0
   13.5595   -6.9857   21.8645 N   0  0  0  0  0  0  0  0  0  0  0  0
   14.4778   -7.4092   20.9574 C   0  0  0  0  0  0  0  0  0  0  0  0
   11.2074   -4.9150   19.7253 C   0  0  0  0  0  0  0  0  0  0  0  0
   10.0130   -5.5938   19.8855 F   0  0  0  0  0  0  0  0  0  0  0  0
   11.1805   -3.7592   20.4846 F   0  0  0  0  0  0  0  0  0  0  0  0
   11.3385   -4.5630   18.3920 F   0  0  0  0  0  0  0  0  0  0  0  0
   11.5827   -5.7895   22.5402 C   0  0  0  0  0  0  0  0  0  0  0  0
   10.8374   -5.4650   23.3640 N   0  0  0  0  0  0  0  0  0  0  0  0
   18.3499   -8.4348    8.7318 C   0  0  0  0  0  0  0  0  0  0  0  0
   18.1020   -8.6345   10.1496 N   0  0  0  0  0  0  0  0  0  0  0  0
   17.0412   -9.4677   10.6244 C   0  0  0  0  0  0  0  0  0  0  0  0
   16.2864  -10.0561    9.8022 O   0  0  0  0  0  0  0  0  0  0  0  0
   18.6824   -8.1821   10.8036 H   0  0  0  0  0  0  0  0  0  0  0  0
 29 30  1  0  0  0
 30 31  1  0  0  0
 31 32  2  0  0  0
 31  1  1  0  0  0
  1  2  2  0  0  0
  2  3  1  0  0  0
  3  4  2  0  0  0
  4  5  1  0  0  0
  5  6  1  0  0  0
  6  7  1  0  0  0
  6  8  1  0  0  0
  8  9  2  0  0  0
  8 10  1  0  0  0
 10 11  1  0  0  0
 11 12  2  0  0  0
 11 13  1  0  0  0
 13 14  1  0  0  0
 10 17  1  0  0  0
 17 18  2  0  0  0
 18 19  1  0  0  0
 19 20  2  0  0  0
 20 21  1  0  0  0
 21 22  2  0  0  0
 20 27  1  0  0  0
 27 28  3  0  0  0
 19 23  1  0  0  0
 23 24  1  0  0  0
 23 25  1  0  0  0
 23 26  1  0  0  0
  4 15  1  0  0  0
 15 16  2  0  0  0
 16  1  1  0  0  0
  7  3  1  0  0  0
 13  6  1  0  0  0
 22 17  1  0  0  0
 30 33  1  0  0  0
M  END
>  <minimizedAffinity>
-0.02434

>  <minimizedRMSD>
1.19683

$$$$
