CSC026553207 CSSS00026553207 MCULE-1957173949 MolPort-009-346-474 PubChem-51123697 Z772172560


 29 32  0  0  0  0  0  0  0  0999 V2000
   16.0826   -9.9184   13.9590 C   0  0  0  0  0  0  0  0  0  0  0  0
   15.9096   -8.5267   14.5749 C   0  0  0  0  0  0  0  0  0  0  0  0
   16.3818   -8.5271   15.9592 N   0  0  0  0  0  0  0  0  0  0  0  0
   15.5285   -8.0516   17.0089 C   0  0  0  0  0  0  0  0  0  0  0  0
   15.9886   -8.0788   18.3691 N   0  0  0  0  0  0  0  0  0  0  0  0
   14.3795   -7.6116   16.7306 O   0  0  0  0  0  0  0  0  0  0  0  0
   17.7083   -9.0633   16.2800 C   0  0  0  0  0  0  0  0  0  0  0  0
   18.3857   -9.6486   15.0417 C   0  0  0  0  0  0  0  0  0  0  0  0
   17.4236  -10.5867   14.3127 C   0  0  0  0  0  0  0  0  0  0  0  0
   16.8953   -8.4313   18.5197 H   0  0  0  0  0  0  0  0  0  0  0  0
   15.2677   -7.6470   19.5313 C   0  0  0  0  0  0  0  0  0  0  0  0
   15.9753   -7.0387   20.5742 C   0  0  0  0  0  0  0  0  0  0  0  0
   15.3081   -6.6044   21.7237 C   0  0  0  0  0  0  0  0  0  0  0  0
   13.9259   -6.7767   21.8366 C   0  0  0  0  0  0  0  0  0  0  0  0
   13.2113   -7.3832   20.8003 C   0  0  0  0  0  0  0  0  0  0  0  0
   13.8796   -7.8169   19.6516 C   0  0  0  0  0  0  0  0  0  0  0  0
   14.7362   -9.9286   12.0021 O   0  0  0  0  0  0  0  0  0  0  0  0
   15.8994   -9.8583   12.4803 C   0  0  0  0  0  0  0  0  0  0  0  0
   17.0398   -9.7216   11.6235 N   0  0  0  0  0  0  0  0  0  0  0  0
   17.9262   -9.6709   12.0489 H   0  0  0  0  0  0  0  0  0  0  0  0
   16.9852   -9.6531   10.1945 C   0  0  0  0  0  0  0  0  0  0  0  0
   17.8172   -8.9159    9.4479 N   0  0  0  0  0  0  0  0  0  0  0  0
   17.4099   -9.1489    8.1945 C   0  0  0  0  0  0  0  0  0  0  0  0
   18.0413   -8.5484    7.1093 C   0  0  0  0  0  0  0  0  0  0  0  0
   19.1199   -7.6917    7.3926 C   0  0  0  0  0  0  0  0  0  0  0  0
   19.5286   -7.4637    8.7233 C   0  0  0  0  0  0  0  0  0  0  0  0
   18.8494   -8.1003    9.7737 C   0  0  0  0  0  0  0  0  0  0  0  0
   16.3650   -9.9975    8.1552 N   0  0  0  0  0  0  0  0  0  0  0  0
   16.0965  -10.3162    9.4197 N   0  0  0  0  0  0  0  0  0  0  0  0
 17 18  2  0  0  0
 18  1  1  0  0  0
  1  2  1  0  0  0
  2  3  1  0  0  0
  3  4  1  0  0  0
  4  5  1  0  0  0
  5 11  1  0  0  0
 11 12  2  0  0  0
 12 13  1  0  0  0
 13 14  2  0  0  0
 14 15  1  0  0  0
 15 16  2  0  0  0
  4  6  2  0  0  0
  3  7  1  0  0  0
  7  8  1  0  0  0
  8  9  1  0  0  0
 18 19  1  0  0  0
 19 21  1  0  0  0
 21 22  1  0  0  0
 22 23  1  0  0  0
 23 24  1  0  0  0
 24 25  2  0  0  0
 25 26  1  0  0  0
 26 27  2  0  0  0
 23 28  2  0  0  0
 28 29  1  0  0  0
  9  1  1  0  0  0
 29 21  2  0  0  0
 16 11  1  0  0  0
 27 22  1  0  0  0
  5 10  1  0  0  0
 19 20  1  0  0  0
M  END
>  <minimizedAffinity>
-11.22524

>  <minimizedRMSD>
0.65944

$$$$
CSSS06741703322 LN01783549 MCULE-1942544608 MolPort-039-346-252 PubChem-75357123


 37 41  0  0  0  0  0  0  0  0999 V2000
   15.5667   -8.3577   18.4750 N   0  0  0  0  0  0  0  0  0  0  0  0
   15.8996   -8.4476   17.0835 C   0  0  0  0  0  0  0  0  0  0  0  0
   15.4057   -7.6533   16.2398 O   0  0  0  0  0  0  0  0  0  0  0  0
   16.0009   -9.0060   19.0754 H   0  0  0  0  0  0  0  0  0  0  0  0
   12.6899   -4.5717   25.4874 C   0  0  0  0  0  0  0  0  0  0  0  0
   11.5678   -5.1806   24.6575 C   0  0  0  0  0  0  0  0  0  0  0  0
   12.1450   -5.4407   23.2720 C   0  0  0  0  0  0  0  0  0  0  0  0
   11.6564   -4.4631   22.2517 C   0  0  0  0  0  0  0  0  0  0  0  0
   10.9038   -3.5063   22.5791 O   0  0  0  0  0  0  0  0  0  0  0  0
   12.0311   -4.6136   20.8835 N   0  0  0  0  0  0  0  0  0  0  0  0
   12.9372   -5.5885   20.3478 C   0  0  0  0  0  0  0  0  0  0  0  0
   14.0885   -6.0670   21.0344 C   0  0  0  0  0  0  0  0  0  0  0  0
   14.9346   -6.9758   20.3780 C   0  0  0  0  0  0  0  0  0  0  0  0
   14.6668   -7.4214   19.0831 C   0  0  0  0  0  0  0  0  0  0  0  0
   13.5418   -6.9325   18.4138 C   0  0  0  0  0  0  0  0  0  0  0  0
   12.6939   -6.0205   19.0395 C   0  0  0  0  0  0  0  0  0  0  0  0
   14.5142   -5.6087   22.3804 C   0  0  0  0  0  0  0  0  0  0  0  0
   15.7480   -5.5456   22.6378 O   0  0  0  0  0  0  0  0  0  0  0  0
   13.5733   -5.2850   23.4118 N   0  0  0  0  0  0  0  0  0  0  0  0
   13.9766   -4.8388   24.7305 C   0  0  0  0  0  0  0  0  0  0  0  0
   11.6273   -3.9852   20.2422 H   0  0  0  0  0  0  0  0  0  0  0  0
   16.8721   -9.4787   16.6326 C   0  0  0  0  0  0  0  0  0  0  0  0
   17.6985   -8.9381   15.4788 C   0  0  0  0  0  0  0  0  0  0  0  0
   17.7208   -9.9324   14.3320 C   0  0  0  0  0  0  0  0  0  0  0  0
   16.7288   -9.5243   13.2597 C   0  0  0  0  0  0  0  0  0  0  0  0
   16.6943  -10.5837   12.1724 C   0  0  0  0  0  0  0  0  0  0  0  0
   16.8744   -9.9733   10.8601 N   0  0  0  0  0  0  0  0  0  0  0  0
   15.8889  -10.1489    9.9380 C   0  0  0  0  0  0  0  0  0  0  0  0
   16.0025   -9.6171    8.6934 N   0  0  0  0  0  0  0  0  0  0  0  0
   17.1000   -8.9043    8.3382 C   0  0  0  0  0  0  0  0  0  0  0  0
   17.1990   -8.3632    7.0530 C   0  0  0  0  0  0  0  0  0  0  0  0
   18.3334   -7.6319    6.6877 C   0  0  0  0  0  0  0  0  0  0  0  0
   19.3711   -7.4402    7.6053 C   0  0  0  0  0  0  0  0  0  0  0  0
   19.2783   -7.9790    8.8921 C   0  0  0  0  0  0  0  0  0  0  0  0
   18.1431   -8.7129    9.2660 C   0  0  0  0  0  0  0  0  0  0  0  0
   18.0076   -9.2725   10.5445 C   0  0  0  0  0  0  0  0  0  0  0  0
   18.9286   -9.1322   11.3976 O   0  0  0  0  0  0  0  0  0  0  0  0
  5  6  1  0  0  0
  6  7  1  0  0  0
  7  8  1  0  0  0
  8  9  2  0  0  0
  8 10  1  0  0  0
 10 11  1  0  0  0
 11 12  2  0  0  0
 12 13  1  0  0  0
 13 14  2  0  0  0
 14 15  1  0  0  0
 15 16  2  0  0  0
 14  1  1  0  0  0
  1  2  1  0  0  0
  2  3  2  0  0  0
  2 22  1  0  0  0
 22 23  1  0  0  0
 23 24  1  0  0  0
 24 25  1  0  0  0
 25 26  1  0  0  0
 26 27  1  0  0  0
 27 28  1  0  0  0
 28 29  2  0  0  0
 29 30  1  0  0  0
 30 31  2  0  0  0
 31 32  1  0  0  0
 32 33  2  0  0  0
 33 34  1  0  0  0
 34 35  2  0  0  0
 35 36  1  0  0  0
 36 37  2  0  0  0
 12 17  1  0  0  0
 17 18  2  0  0  0
 17 19  1  0  0  0
 19 20  1  0  0  0
 20  5  1  0  0  0
 19  7  1  0  0  0
 16 11  1  0  0  0
 36 27  1  0  0  0
 35 30  1  0  0  0
 10 21  1  0  0  0
  1  4  1  0  0  0
M  END
>  <minimizedAffinity>
-10.56029

>  <minimizedRMSD>
2.20898

$$$$
CSC026167255 25042817 CSSS00026167255 MCULE-2532117279 MolPort-009-023-585 PubChem-32352548 Z24132828 ZINC000025042817 ZINC25042817


 29 31  0  0  0  0  0  0  0  0999 V2000
   17.9861  -10.8630   13.2843 C   0  0  0  0  0  0  0  0  0  0  0  0
   18.2135  -12.1045   13.2658 O   0  0  0  0  0  0  0  0  0  0  0  0
   17.4870  -10.2229   14.5118 C   0  0  0  0  0  0  0  0  0  0  0  0
   16.8515   -8.9764   14.4457 C   0  0  0  0  0  0  0  0  0  0  0  0
   16.3754   -8.3648   15.6085 C   0  0  0  0  0  0  0  0  0  0  0  0
   16.5287   -8.9921   16.8538 C   0  0  0  0  0  0  0  0  0  0  0  0
   17.1634  -10.2366   16.9187 C   0  0  0  0  0  0  0  0  0  0  0  0
   17.6400  -10.8496   15.7563 C   0  0  0  0  0  0  0  0  0  0  0  0
   16.0535   -8.3957   18.0685 N   0  0  0  0  0  0  0  0  0  0  0  0
   14.8455   -7.6436   18.2397 C   0  0  0  0  0  0  0  0  0  0  0  0
   14.5259   -7.1205   19.5229 N   0  0  0  0  0  0  0  0  0  0  0  0
   14.0625   -7.4376   17.2753 O   0  0  0  0  0  0  0  0  0  0  0  0
   16.6155   -8.5155   18.8679 H   0  0  0  0  0  0  0  0  0  0  0  0
   15.1320   -7.2764   20.2829 H   0  0  0  0  0  0  0  0  0  0  0  0
   13.6986   -6.6025   19.6512 H   0  0  0  0  0  0  0  0  0  0  0  0
   18.2052  -10.0905   12.1417 O   0  0  0  0  0  0  0  0  0  0  0  0
   17.1819   -9.2899   11.5685 C   0  0  0  0  0  0  0  0  0  0  0  0
   19.2981   -7.9006    4.0379 C   0  0  0  0  0  0  0  0  0  0  0  0
   19.0901   -8.0427    5.5023 C   0  0  0  0  0  0  0  0  0  0  0  0
   19.9924   -7.4548    6.3959 C   0  0  0  0  0  0  0  0  0  0  0  0
   19.8021   -7.5851    7.7755 C   0  0  0  0  0  0  0  0  0  0  0  0
   18.7075   -8.3051    8.2609 C   0  0  0  0  0  0  0  0  0  0  0  0
   18.4994   -8.4463    9.6317 C   0  0  0  0  0  0  0  0  0  0  0  0
   17.4023   -9.1742   10.0985 C   0  0  0  0  0  0  0  0  0  0  0  0
   16.5100   -9.7439    9.1719 C   0  0  0  0  0  0  0  0  0  0  0  0
   15.1029  -10.6538    9.7005 Cl  0  0  0  0  0  0  0  0  0  0  0  0
   16.7305   -9.5942    7.8371 N   0  0  0  0  0  0  0  0  0  0  0  0
   17.7963   -8.8979    7.3616 C   0  0  0  0  0  0  0  0  0  0  0  0
   17.9923   -8.7636    5.9843 C   0  0  0  0  0  0  0  0  0  0  0  0
 18 19  1  0  0  0
 19 20  2  0  0  0
 20 21  1  0  0  0
 21 22  2  0  0  0
 22 23  1  0  0  0
 23 24  2  0  0  0
 24 17  1  0  0  0
 24 25  1  0  0  0
 17 16  1  0  0  0
 16  1  1  0  0  0
  1  2  2  0  0  0
  1  3  1  0  0  0
  3  4  2  0  0  0
  4  5  1  0  0  0
  5  6  2  0  0  0
  6  9  1  0  0  0
  6  7  1  0  0  0
  9 10  1  0  0  0
 10 11  1  0  0  0
 10 12  2  0  0  0
  7  8  2  0  0  0
  8  3  1  0  0  0
 25 26  1  0  0  0
 25 27  2  0  0  0
 27 28  1  0  0  0
 28 29  2  0  0  0
 28 22  1  0  0  0
 29 19  1  0  0  0
  9 13  1  0  0  0
 11 14  1  0  0  0
 11 15  1  0  0  0
M  END
>  <minimizedAffinity>
-10.48171

>  <minimizedRMSD>
1.11566

$$$$
556617280 CSSS00671418460 PubChem-166189794 Z442575170


 38 42  0  0  0  0  0  0  0  0999 V2000
   16.7499   -8.6973   16.5089 C   0  0  0  0  0  0  0  0  0  0  0  0
   18.0494   -8.8421   17.0085 C   0  0  0  0  0  0  0  0  0  0  0  0
   19.0002   -9.4797   16.2748 N   0  0  0  0  0  0  0  0  0  0  0  0
   18.7268   -9.9930   15.0457 C   0  0  0  0  0  0  0  0  0  0  0  0
   17.4427   -9.8751   14.5001 C   0  0  0  0  0  0  0  0  0  0  0  0
   16.4551   -9.2211   15.2449 C   0  0  0  0  0  0  0  0  0  0  0  0
   15.8670   -7.8709   18.7141 N   0  0  0  0  0  0  0  0  0  0  0  0
   15.7145   -8.0082   17.2974 C   0  0  0  0  0  0  0  0  0  0  0  0
   14.6952   -7.5346   16.7241 O   0  0  0  0  0  0  0  0  0  0  0  0
   16.6827   -8.2259   19.1359 H   0  0  0  0  0  0  0  0  0  0  0  0
   13.5865   -8.0432   19.5690 C   0  0  0  0  0  0  0  0  0  0  0  0
   14.8694   -7.2296   19.5593 C   0  0  0  0  0  0  0  0  0  0  0  0
   15.3983   -7.0910   20.9474 C   0  0  0  0  0  0  0  0  0  0  0  0
   16.6132   -6.5422   21.2087 N   0  0  0  0  0  0  0  0  0  0  0  0
   16.6843   -6.6224   22.5447 C   0  0  0  0  0  0  0  0  0  0  0  0
   15.5550   -7.1971   23.0432 C   0  0  0  0  0  0  0  0  0  0  0  0
   15.3687   -7.4022   24.4079 C   0  0  0  0  0  0  0  0  0  0  0  0
   16.4016   -6.9897   25.2705 C   0  0  0  0  0  0  0  0  0  0  0  0
   17.5736   -6.3932   24.7532 C   0  0  0  0  0  0  0  0  0  0  0  0
   17.7266   -6.2022   23.3672 C   0  0  0  0  0  0  0  0  0  0  0  0
   14.7145   -7.5083   22.0470 N   0  0  0  0  0  0  0  0  0  0  0  0
   13.8271   -7.9317   22.0980 H   0  0  0  0  0  0  0  0  0  0  0  0
   17.1367  -10.4257   13.1690 C   0  0  0  0  0  0  0  0  0  0  0  0
   17.8286  -11.3723   12.7031 O   0  0  0  0  0  0  0  0  0  0  0  0
   16.0530   -9.8877   12.4039 N   0  0  0  0  0  0  0  0  0  0  0  0
   15.5053   -9.1724   12.8010 H   0  0  0  0  0  0  0  0  0  0  0  0
   15.7260  -10.3531   11.0634 C   0  0  0  0  0  0  0  0  0  0  0  0
   14.2673  -10.0635   10.7687 C   0  0  0  0  0  0  0  0  0  0  0  0
   16.5959   -9.6781   10.0528 C   0  0  0  0  0  0  0  0  0  0  0  0
   16.3974   -9.8184    8.7162 N   0  0  0  0  0  0  0  0  0  0  0  0
   17.3863   -9.0766    8.1987 C   0  0  0  0  0  0  0  0  0  0  0  0
   18.1339   -8.5264    9.1949 C   0  0  0  0  0  0  0  0  0  0  0  0
   19.2309   -7.7096    8.9331 C   0  0  0  0  0  0  0  0  0  0  0  0
   19.5477   -7.4657    7.5835 C   0  0  0  0  0  0  0  0  0  0  0  0
   18.7719   -8.0366    6.5497 C   0  0  0  0  0  0  0  0  0  0  0  0
   17.6700   -8.8581    6.8529 C   0  0  0  0  0  0  0  0  0  0  0  0
   17.6544   -8.8932   10.3912 N   0  0  0  0  0  0  0  0  0  0  0  0
   17.9843   -8.6551   11.2876 H   0  0  0  0  0  0  0  0  0  0  0  0
 12 11  1  0  0  0
 12  7  1  0  0  0
  7  8  1  0  0  0
  8  9  2  0  0  0
  8  1  1  0  0  0
  1  2  2  0  0  0
  2  3  1  0  0  0
  3  4  2  0  0  0
  4  5  1  0  0  0
  5 23  1  0  0  0
 23 24  2  0  0  0
 23 25  1  0  0  0
 25 27  1  0  0  0
 27 28  1  0  0  0
 27 29  1  0  0  0
 29 30  2  0  0  0
 30 31  1  0  0  0
 31 32  2  0  0  0
 32 33  1  0  0  0
 33 34  2  0  0  0
 34 35  1  0  0  0
 35 36  2  0  0  0
 32 37  1  0  0  0
  5  6  2  0  0  0
 12 13  1  0  0  0
 13 14  2  0  0  0
 14 15  1  0  0  0
 15 16  2  0  0  0
 16 17  1  0  0  0
 17 18  2  0  0  0
 18 19  1  0  0  0
 19 20  2  0  0  0
 16 21  1  0  0  0
  6  1  1  0  0  0
 21 13  1  0  0  0
 37 29  1  0  0  0
 20 15  1  0  0  0
 36 31  1  0  0  0
  7 10  1  0  0  0
 25 26  1  0  0  0
 37 38  1  0  0  0
 21 22  1  0  0  0
M  END
>  <minimizedAffinity>
-10.45785

>  <minimizedRMSD>
1.45411

$$$$
CSC026108765 54060305 CSSS00026108765 MCULE-1180554928 MolPort-009-084-100 PubChem-47059506 Z729052334 ZINC000054060305


 27 29  0  0  0  0  0  0  0  0999 V2000
   16.8763   -9.0876   16.4678 C   0  0  0  0  0  0  0  0  0  0  0  0
   18.1668   -9.6226   16.3858 C   0  0  0  0  0  0  0  0  0  0  0  0
   18.6770  -10.0559   15.1583 C   0  0  0  0  0  0  0  0  0  0  0  0
   17.8964   -9.9586   14.0034 C   0  0  0  0  0  0  0  0  0  0  0  0
   16.6031   -9.4329   14.0766 C   0  0  0  0  0  0  0  0  0  0  0  0
   16.0976   -8.9930   15.3042 C   0  0  0  0  0  0  0  0  0  0  0  0
   15.2248   -7.8523   17.9904 C   0  0  0  0  0  0  0  0  0  0  0  0
   14.5094   -7.4306   17.0437 O   0  0  0  0  0  0  0  0  0  0  0  0
   16.3897   -8.6518   17.7443 N   0  0  0  0  0  0  0  0  0  0  0  0
   16.9088   -8.9301   18.5331 H   0  0  0  0  0  0  0  0  0  0  0  0
   14.8579   -7.5023   19.3919 C   0  0  0  0  0  0  0  0  0  0  0  0
   13.0917   -7.8533   20.8705 C   0  0  0  0  0  0  0  0  0  0  0  0
   13.4127   -7.4147   19.5250 N   0  0  0  0  0  0  0  0  0  0  0  0
   13.0628   -6.0066   19.4550 C   0  0  0  0  0  0  0  0  0  0  0  0
   15.7793   -9.3066   12.8444 C   0  0  0  0  0  0  0  0  0  0  0  0
   16.2445  -10.2544   11.8427 N   0  0  0  0  0  0  0  0  0  0  0  0
   16.2759  -11.2099   12.0777 H   0  0  0  0  0  0  0  0  0  0  0  0
   16.6577   -9.8592   10.5329 C   0  0  0  0  0  0  0  0  0  0  0  0
   16.0120  -10.3478    9.3874 C   0  0  0  0  0  0  0  0  0  0  0  0
   16.4300   -9.9515    8.1558 N   0  0  0  0  0  0  0  0  0  0  0  0
   17.4672   -9.0863    8.0150 C   0  0  0  0  0  0  0  0  0  0  0  0
   17.8908   -8.6839    6.7457 C   0  0  0  0  0  0  0  0  0  0  0  0
   18.9613   -7.7919    6.6203 C   0  0  0  0  0  0  0  0  0  0  0  0
   19.6076   -7.3026    7.7615 C   0  0  0  0  0  0  0  0  0  0  0  0
   19.1870   -7.7027    9.0344 C   0  0  0  0  0  0  0  0  0  0  0  0
   18.1184   -8.5935    9.1647 C   0  0  0  0  0  0  0  0  0  0  0  0
   17.6967   -8.9927   10.3925 N   0  0  0  0  0  0  0  0  0  0  0  0
 12 13  1  0  0  0
 13 14  1  0  0  0
 13 11  1  0  0  0
 11  7  1  0  0  0
  7  8  2  0  0  0
  7  9  1  0  0  0
  9  1  1  0  0  0
  1  2  2  0  0  0
  2  3  1  0  0  0
  3  4  2  0  0  0
  4  5  1  0  0  0
  5 15  1  0  0  0
  5  6  2  0  0  0
 15 16  1  0  0  0
 16 18  1  0  0  0
 18 19  2  0  0  0
 19 20  1  0  0  0
 20 21  2  0  0  0
 21 22  1  0  0  0
 22 23  2  0  0  0
 23 24  1  0  0  0
 24 25  2  0  0  0
 25 26  1  0  0  0
 26 27  2  0  0  0
 26 21  1  0  0  0
 27 18  1  0  0  0
  6  1  1  0  0  0
  9 10  1  0  0  0
 16 17  1  0  0  0
M  END
>  <minimizedAffinity>
-10.31438

>  <minimizedRMSD>
1.13147

$$$$
CSC027136251 24211769 CSSS00027136251 MCULE-4416610620 MolPort-009-170-673 PubChem-31663862 Z285906212 ZINC000024211769 ZINC24211769


 26 28  0  0  0  0  0  0  0  0999 V2000
   16.6137   -8.9027   16.6980 C   0  0  0  0  0  0  0  0  0  0  0  0
   17.9153   -9.4153   16.7349 C   0  0  0  0  0  0  0  0  0  0  0  0
   18.5186   -9.9005   15.5706 C   0  0  0  0  0  0  0  0  0  0  0  0
   17.8210   -9.8774   14.3601 C   0  0  0  0  0  0  0  0  0  0  0  0
   16.5174   -9.3740   14.3146 C   0  0  0  0  0  0  0  0  0  0  0  0
   15.9188   -8.8823   15.4790 C   0  0  0  0  0  0  0  0  0  0  0  0
   14.8158   -7.6610   18.0386 C   0  0  0  0  0  0  0  0  0  0  0  0
   14.1277   -7.3604   17.0249 O   0  0  0  0  0  0  0  0  0  0  0  0
   16.0311   -8.4106   17.9125 N   0  0  0  0  0  0  0  0  0  0  0  0
   16.5161   -8.6081   18.7461 H   0  0  0  0  0  0  0  0  0  0  0  0
   12.9792   -7.7645   19.6934 C   0  0  0  0  0  0  0  0  0  0  0  0
   14.3697   -7.2356   19.3987 C   0  0  0  0  0  0  0  0  0  0  0  0
   15.3420   -7.7235   20.4556 C   0  0  0  0  0  0  0  0  0  0  0  0
   15.7819   -9.3263   13.0225 C   0  0  0  0  0  0  0  0  0  0  0  0
   16.3999  -10.2378   12.0710 N   0  0  0  0  0  0  0  0  0  0  0  0
   16.5998  -11.1570   12.3616 H   0  0  0  0  0  0  0  0  0  0  0  0
   16.7294   -9.8576   10.7334 C   0  0  0  0  0  0  0  0  0  0  0  0
   16.0056  -10.3501    9.6373 C   0  0  0  0  0  0  0  0  0  0  0  0
   16.3449   -9.9678    8.3774 N   0  0  0  0  0  0  0  0  0  0  0  0
   17.3779   -9.1132    8.1609 C   0  0  0  0  0  0  0  0  0  0  0  0
   17.7203   -8.7252    6.8629 C   0  0  0  0  0  0  0  0  0  0  0  0
   18.7875   -7.8438    6.6594 C   0  0  0  0  0  0  0  0  0  0  0  0
   19.5116   -7.3506    7.7512 C   0  0  0  0  0  0  0  0  0  0  0  0
   19.1723   -7.7362    9.0526 C   0  0  0  0  0  0  0  0  0  0  0  0
   18.1073   -8.6164    9.2607 C   0  0  0  0  0  0  0  0  0  0  0  0
   17.7639   -9.0014   10.5172 N   0  0  0  0  0  0  0  0  0  0  0  0
 11 12  1  0  0  0
 12 13  1  0  0  0
 12  7  1  0  0  0
  7  8  2  0  0  0
  7  9  1  0  0  0
  9  1  1  0  0  0
  1  2  2  0  0  0
  2  3  1  0  0  0
  3  4  2  0  0  0
  4  5  1  0  0  0
  5 14  1  0  0  0
  5  6  2  0  0  0
 14 15  1  0  0  0
 15 17  1  0  0  0
 17 18  2  0  0  0
 18 19  1  0  0  0
 19 20  2  0  0  0
 20 21  1  0  0  0
 21 22  2  0  0  0
 22 23  1  0  0  0
 23 24  2  0  0  0
 24 25  1  0  0  0
 25 26  2  0  0  0
 25 20  1  0  0  0
 26 17  1  0  0  0
  6  1  1  0  0  0
  9 10  1  0  0  0
 15 16  1  0  0  0
M  END
>  <minimizedAffinity>
-10.23957

>  <minimizedRMSD>
1.46977

$$$$
72144053 CSSS00159807787 MCULE-9912747456 MolPort-020-198-406 PubChem-56866689 ZINC000072144053


 29 32  0  0  0  0  0  0  0  0999 V2000
   16.1786   -8.8334   16.6306 C   0  0  0  0  0  0  0  0  0  0  0  0
   16.0967   -8.6984   15.2386 C   0  0  0  0  0  0  0  0  0  0  0  0
   16.9263   -9.4658   14.4189 C   0  0  0  0  0  0  0  0  0  0  0  0
   17.8310  -10.3618   15.0015 C   0  0  0  0  0  0  0  0  0  0  0  0
   17.8869  -10.4717   16.3918 C   0  0  0  0  0  0  0  0  0  0  0  0
   17.0682   -9.7134   17.1690 N   0  0  0  0  0  0  0  0  0  0  0  0
   14.3387   -7.3923   17.0316 O   0  0  0  0  0  0  0  0  0  0  0  0
   15.3133   -8.0341   17.5114 C   0  0  0  0  0  0  0  0  0  0  0  0
   15.5806   -7.9868   18.9143 N   0  0  0  0  0  0  0  0  0  0  0  0
   16.3453   -8.4936   19.2715 H   0  0  0  0  0  0  0  0  0  0  0  0
   14.7584   -7.2134   19.8305 C   0  0  0  0  0  0  0  0  0  0  0  0
   15.4650   -7.0617   21.1305 C   0  0  0  0  0  0  0  0  0  0  0  0
   16.7166   -6.5280   21.1661 N   0  0  0  0  0  0  0  0  0  0  0  0
   17.4015   -6.3955   22.3341 C   0  0  0  0  0  0  0  0  0  0  0  0
   16.8259   -6.8165   23.5351 C   0  0  0  0  0  0  0  0  0  0  0  0
   15.5461   -7.3741   23.5187 C   0  0  0  0  0  0  0  0  0  0  0  0
   14.8588   -7.5021   22.3104 C   0  0  0  0  0  0  0  0  0  0  0  0
   16.8353   -9.3198   13.0001 N   0  0  0  0  0  0  0  0  0  0  0  0
   16.0895   -8.7959   12.6280 H   0  0  0  0  0  0  0  0  0  0  0  0
   17.7961   -9.9111   12.0813 C   0  0  0  0  0  0  0  0  0  0  0  0
   17.3271   -9.7267   10.6800 C   0  0  0  0  0  0  0  0  0  0  0  0
   17.9095   -8.9732    9.6905 C   0  0  0  0  0  0  0  0  0  0  0  0
   19.0908   -8.2343    9.7018 C   0  0  0  0  0  0  0  0  0  0  0  0
   19.4307   -7.5548    8.5208 C   0  0  0  0  0  0  0  0  0  0  0  0
   18.5982   -7.6296    7.3872 C   0  0  0  0  0  0  0  0  0  0  0  0
   17.4200   -8.3894    7.4441 C   0  0  0  0  0  0  0  0  0  0  0  0
   17.1296   -9.0304    8.6036 N   0  0  0  0  0  0  0  0  0  0  0  0
   16.0641   -9.7760    8.8409 N   0  0  0  0  0  0  0  0  0  0  0  0
   16.1511  -10.2181   10.1207 C   0  0  0  0  0  0  0  0  0  0  0  0
  7  8  2  0  0  0
  8  9  1  0  0  0
  8  1  1  0  0  0
  9 11  1  0  0  0
 11 12  1  0  0  0
 12 13  2  0  0  0
 13 14  1  0  0  0
 14 15  2  0  0  0
 15 16  1  0  0  0
 16 17  2  0  0  0
 17 12  1  0  0  0
  1  2  2  0  0  0
  2  3  1  0  0  0
  3 18  1  0  0  0
  3  4  2  0  0  0
 18 20  1  0  0  0
 20 21  1  0  0  0
 21 22  2  0  0  0
 22 23  1  0  0  0
 23 24  2  0  0  0
 24 25  1  0  0  0
 25 26  2  0  0  0
 26 27  1  0  0  0
 27 28  1  0  0  0
 27 22  1  0  0  0
 28 29  2  0  0  0
 29 21  1  0  0  0
  4  5  1  0  0  0
  5  6  2  0  0  0
  6  1  1  0  0  0
  9 10  1  0  0  0
 18 19  1  0  0  0
M  END
>  <minimizedAffinity>
-10.20570

>  <minimizedRMSD>
1.10452

$$$$
CSC027693430 408513110 CSSS00027693430 MCULE-6797655081 MolPort-042-599-143 Z1375235785 ZINC000408513110


 25 27  0  0  0  0  0  0  0  0999 V2000
   17.7132   -9.7473   12.7681 N   0  0  0  0  0  0  0  0  0  0  0  0
   16.6568   -9.8317   11.8043 C   0  0  0  0  0  0  0  0  0  0  0  0
   15.4795  -10.0951   12.1734 O   0  0  0  0  0  0  0  0  0  0  0  0
   18.5671   -9.3558   12.4735 H   0  0  0  0  0  0  0  0  0  0  0  0
   18.7732  -12.3904   13.6204 C   0  0  0  0  0  0  0  0  0  0  0  0
   18.0915  -11.4489   14.5538 C   0  0  0  0  0  0  0  0  0  0  0  0
   17.6218  -10.1898   14.1302 C   0  0  0  0  0  0  0  0  0  0  0  0
   17.1045   -9.3231   15.0997 C   0  0  0  0  0  0  0  0  0  0  0  0
   17.0219   -9.7213   16.3952 N   0  0  0  0  0  0  0  0  0  0  0  0
   17.4522  -10.9503   16.7775 C   0  0  0  0  0  0  0  0  0  0  0  0
   17.9898  -11.7972   15.8631 N   0  0  0  0  0  0  0  0  0  0  0  0
   17.3525  -11.3373   18.1067 O   0  0  0  0  0  0  0  0  0  0  0  0
   16.6615   -8.0549   14.7432 O   0  0  0  0  0  0  0  0  0  0  0  0
   16.9815  -10.7530   18.7382 H   0  0  0  0  0  0  0  0  0  0  0  0
   16.7154   -7.7735   13.8511 H   0  0  0  0  0  0  0  0  0  0  0  0
   16.9432   -9.5659   10.3870 C   0  0  0  0  0  0  0  0  0  0  0  0
   17.9635   -8.7325   10.0425 N   0  0  0  0  0  0  0  0  0  0  0  0
   18.2501   -8.4713    8.7410 C   0  0  0  0  0  0  0  0  0  0  0  0
   19.2999   -7.6138    8.4020 C   0  0  0  0  0  0  0  0  0  0  0  0
   19.5806   -7.3566    7.0558 C   0  0  0  0  0  0  0  0  0  0  0  0
   18.8131   -7.9553    6.0497 C   0  0  0  0  0  0  0  0  0  0  0  0
   17.7610   -8.8146    6.3845 C   0  0  0  0  0  0  0  0  0  0  0  0
   17.4772   -9.0745    7.7278 C   0  0  0  0  0  0  0  0  0  0  0  0
   16.4600   -9.9058    8.0715 N   0  0  0  0  0  0  0  0  0  0  0  0
   16.1773  -10.1639    9.3761 C   0  0  0  0  0  0  0  0  0  0  0  0
  5  6  1  0  0  0
  6  7  2  0  0  0
  7  8  1  0  0  0
  8  9  2  0  0  0
  9 10  1  0  0  0
 10 11  2  0  0  0
 10 12  1  0  0  0
  8 13  1  0  0  0
  7  1  1  0  0  0
  1  2  1  0  0  0
  2  3  2  0  0  0
  2 16  1  0  0  0
 16 17  2  0  0  0
 17 18  1  0  0  0
 18 19  2  0  0  0
 19 20  1  0  0  0
 20 21  2  0  0  0
 21 22  1  0  0  0
 22 23  2  0  0  0
 23 24  1  0  0  0
 24 25  2  0  0  0
 11  6  1  0  0  0
 25 16  1  0  0  0
 23 18  1  0  0  0
 12 14  1  0  0  0
 13 15  1  0  0  0
  1  4  1  0  0  0
M  END
>  <minimizedAffinity>
-10.14155

>  <minimizedRMSD>
1.92802

$$$$
828147247 CSSS00161103485 MCULE-3654722714 MolPort-044-562-615 PubChem-132285366 ZINC000828147247


 28 31  0  0  0  0  0  0  0  0999 V2000
   17.8302  -10.4373   13.4835 C   0  0  0  0  0  0  0  0  0  0  0  0
   17.9188  -11.6575   13.7903 O   0  0  0  0  0  0  0  0  0  0  0  0
   17.9413   -9.4337   14.4978 N   0  0  0  0  0  0  0  0  0  0  0  0
   17.9035   -8.4870   14.2304 H   0  0  0  0  0  0  0  0  0  0  0  0
   19.4648   -7.6624    8.2111 C   0  0  0  0  0  0  0  0  0  0  0  0
   18.3715   -7.9427    7.3939 C   0  0  0  0  0  0  0  0  0  0  0  0
   17.3016   -8.6877    7.8902 C   0  0  0  0  0  0  0  0  0  0  0  0
   17.3036   -9.1664    9.2108 C   0  0  0  0  0  0  0  0  0  0  0  0
   18.4307   -8.8756   10.0478 C   0  0  0  0  0  0  0  0  0  0  0  0
   19.4914   -8.1263    9.5266 C   0  0  0  0  0  0  0  0  0  0  0  0
   18.5585   -9.2940   11.3858 C   0  0  0  0  0  0  0  0  0  0  0  0
   17.6137  -10.0459   12.0820 C   0  0  0  0  0  0  0  0  0  0  0  0
   16.2084  -10.4846   11.2499 S   0  0  0  0  0  0  0  0  0  0  0  0
   16.2014   -9.9115    9.6613 C   0  0  0  0  0  0  0  0  0  0  0  0
   15.2180  -10.1580    8.9116 O   0  0  0  0  0  0  0  0  0  0  0  0
   18.1079   -9.7538   15.9093 C   0  0  0  0  0  0  0  0  0  0  0  0
   16.7616   -9.7759   16.6148 C   0  0  0  0  0  0  0  0  0  0  0  0
   15.9650   -8.5301   16.2696 C   0  0  0  0  0  0  0  0  0  0  0  0
   15.2784   -8.0083   17.4837 C   0  0  0  0  0  0  0  0  0  0  0  0
   14.0596   -7.4107   17.4300 N   0  0  0  0  0  0  0  0  0  0  0  0
   13.8371   -7.0965   18.7138 C   0  0  0  0  0  0  0  0  0  0  0  0
   12.7224   -6.4581   19.2518 C   0  0  0  0  0  0  0  0  0  0  0  0
   12.7148   -6.2321   20.6409 C   0  0  0  0  0  0  0  0  0  0  0  0
   13.8043   -6.6435   21.4412 C   0  0  0  0  0  0  0  0  0  0  0  0
   14.9146   -7.2859   20.8618 C   0  0  0  0  0  0  0  0  0  0  0  0
   14.8871   -7.4929   19.4850 C   0  0  0  0  0  0  0  0  0  0  0  0
   15.8250   -8.0772   18.7266 N   0  0  0  0  0  0  0  0  0  0  0  0
   16.6901   -8.4594   19.0001 H   0  0  0  0  0  0  0  0  0  0  0  0
  5  6  2  0  0  0
  6  7  1  0  0  0
  7  8  2  0  0  0
  8  9  1  0  0  0
  9 10  2  0  0  0
  9 11  1  0  0  0
 11 12  2  0  0  0
 12  1  1  0  0  0
  1  2  2  0  0  0
  1  3  1  0  0  0
  3 16  1  0  0  0
 16 17  1  0  0  0
 17 18  1  0  0  0
 18 19  1  0  0  0
 19 20  2  0  0  0
 20 21  1  0  0  0
 21 22  2  0  0  0
 22 23  1  0  0  0
 23 24  2  0  0  0
 24 25  1  0  0  0
 25 26  2  0  0  0
 26 27  1  0  0  0
 12 13  1  0  0  0
 13 14  1  0  0  0
 14 15  2  0  0  0
 10  5  1  0  0  0
 14  8  1  0  0  0
 27 19  1  0  0  0
 26 21  1  0  0  0
  3  4  1  0  0  0
 27 28  1  0  0  0
M  END
>  <minimizedAffinity>
-10.10427

>  <minimizedRMSD>
1.49787

$$$$
CSC025999166 7981614 CSSS00025999166 MCULE-9218784628 MolPort-004-498-990 PubChem-9109954 Z18263241 ZINC000007981614 ZINC07981614


 28 30  0  0  0  0  0  0  0  0999 V2000
   17.1883   -9.3113   11.5883 C   0  0  0  0  0  0  0  0  0  0  0  0
   19.0384   -8.0128    5.5075 C   0  0  0  0  0  0  0  0  0  0  0  0
   19.9571   -7.4427    6.4064 C   0  0  0  0  0  0  0  0  0  0  0  0
   19.7815   -7.5871    7.7860 C   0  0  0  0  0  0  0  0  0  0  0  0
   18.6867   -8.3022    8.2753 C   0  0  0  0  0  0  0  0  0  0  0  0
   18.4928   -8.4573    9.6468 C   0  0  0  0  0  0  0  0  0  0  0  0
   17.3930   -9.1793   10.1175 C   0  0  0  0  0  0  0  0  0  0  0  0
   16.4867   -9.7321    9.1945 C   0  0  0  0  0  0  0  0  0  0  0  0
   15.0807  -10.6404    9.7282 Cl  0  0  0  0  0  0  0  0  0  0  0  0
   16.6941   -9.5691    7.8592 N   0  0  0  0  0  0  0  0  0  0  0  0
   17.7603   -8.8757    7.3799 C   0  0  0  0  0  0  0  0  0  0  0  0
   17.9418   -8.7282    6.0024 C   0  0  0  0  0  0  0  0  0  0  0  0
   20.4526   -7.9943    3.4782 C   0  0  0  0  0  0  0  0  0  0  0  0
   19.1917   -7.8847    4.1245 O   0  0  0  0  0  0  0  0  0  0  0  0
   18.2170  -10.1191   12.1417 O   0  0  0  0  0  0  0  0  0  0  0  0
   18.0160  -10.8867   13.2907 C   0  0  0  0  0  0  0  0  0  0  0  0
   18.2622  -12.1246   13.2796 O   0  0  0  0  0  0  0  0  0  0  0  0
   17.5117  -10.2460   14.5159 C   0  0  0  0  0  0  0  0  0  0  0  0
   16.8809   -8.9972   14.4474 C   0  0  0  0  0  0  0  0  0  0  0  0
   16.3991   -8.3854   15.6079 C   0  0  0  0  0  0  0  0  0  0  0  0
   16.5411   -9.0152   16.8532 C   0  0  0  0  0  0  0  0  0  0  0  0
   17.1706  -10.2624   16.9202 C   0  0  0  0  0  0  0  0  0  0  0  0
   17.6537  -10.8752   15.7603 C   0  0  0  0  0  0  0  0  0  0  0  0
   16.0583   -8.4193   18.0652 N   0  0  0  0  0  0  0  0  0  0  0  0
   14.8500   -7.6663   18.2282 C   0  0  0  0  0  0  0  0  0  0  0  0
   14.5052   -7.1261   19.5689 C   0  0  0  0  0  0  0  0  0  0  0  0
   14.0757   -7.4522   17.2586 O   0  0  0  0  0  0  0  0  0  0  0  0
   16.6146   -8.5401   18.8684 H   0  0  0  0  0  0  0  0  0  0  0  0
 13 14  1  0  0  0
 14  2  1  0  0  0
  2  3  2  0  0  0
  3  4  1  0  0  0
  4  5  2  0  0  0
  5  6  1  0  0  0
  6  7  2  0  0  0
  7  1  1  0  0  0
  7  8  1  0  0  0
  1 15  1  0  0  0
 15 16  1  0  0  0
 16 17  2  0  0  0
 16 18  1  0  0  0
 18 19  2  0  0  0
 19 20  1  0  0  0
 20 21  2  0  0  0
 21 24  1  0  0  0
 21 22  1  0  0  0
 24 25  1  0  0  0
 25 26  1  0  0  0
 25 27  2  0  0  0
 22 23  2  0  0  0
 23 18  1  0  0  0
  8  9  1  0  0  0
  8 10  2  0  0  0
 10 11  1  0  0  0
 11 12  2  0  0  0
 11  5  1  0  0  0
 12  2  1  0  0  0
 24 28  1  0  0  0
M  END
>  <minimizedAffinity>
-10.02201

>  <minimizedRMSD>
1.23165

$$$$
CSSS14948284068


 37 40  0  0  0  0  0  0  0  0999 V2000
   19.1355   -7.4503    6.6673 C   0  0  0  0  0  0  0  0  0  0  0  0
   19.4003   -7.3813    8.0374 C   0  0  0  0  0  0  0  0  0  0  0  0
   18.4591   -8.2388    8.5656 C   0  0  0  0  0  0  0  0  0  0  0  0
   17.7249   -8.7454    7.5369 C   0  0  0  0  0  0  0  0  0  0  0  0
   18.1334   -8.2668    6.3948 O   0  0  0  0  0  0  0  0  0  0  0  0
   16.7132   -9.6259    7.7309 N   0  0  0  0  0  0  0  0  0  0  0  0
   16.4166  -10.0190    9.0058 C   0  0  0  0  0  0  0  0  0  0  0  0
   17.1503   -9.5170   10.1095 C   0  0  0  0  0  0  0  0  0  0  0  0
   18.1991   -8.6028    9.8809 C   0  0  0  0  0  0  0  0  0  0  0  0
   16.8170   -9.9388   11.4805 C   0  0  0  0  0  0  0  0  0  0  0  0
   15.6237  -10.2129   11.7838 O   0  0  0  0  0  0  0  0  0  0  0  0
   17.8468  -10.0347   12.4702 N   0  0  0  0  0  0  0  0  0  0  0  0
   18.7753   -9.8456   12.2029 H   0  0  0  0  0  0  0  0  0  0  0  0
   17.5818  -10.3994   13.8543 C   0  0  0  0  0  0  0  0  0  0  0  0
   18.4414   -9.5393   14.7743 C   0  0  0  0  0  0  0  0  0  0  0  0
   18.1910   -9.9073   16.2370 C   0  0  0  0  0  0  0  0  0  0  0  0
   16.7063   -9.7964   16.6066 C   0  0  0  0  0  0  0  0  0  0  0  0
   15.8150  -10.5668   15.6261 C   0  0  0  0  0  0  0  0  0  0  0  0
   16.1050  -10.1795   14.1767 C   0  0  0  0  0  0  0  0  0  0  0  0
   16.2601   -8.3775   16.7924 C   0  0  0  0  0  0  0  0  0  0  0  0
   15.8648   -7.9318   18.0838 N   0  0  0  0  0  0  0  0  0  0  0  0
   16.2165   -7.5807   15.8179 O   0  0  0  0  0  0  0  0  0  0  0  0
   15.8969   -8.5502   18.8491 H   0  0  0  0  0  0  0  0  0  0  0  0
   15.5592   -7.0048   18.2124 H   0  0  0  0  0  0  0  0  0  0  0  0
   19.8872   -6.6860    5.6311 C   0  0  0  0  0  0  0  0  0  0  0  0
   20.0748   -7.6571    3.2982 C   0  0  0  0  0  0  0  0  0  0  0  0
   19.1550   -6.8990    2.8869 O   0  0  0  0  0  0  0  0  0  0  0  0
   20.4874   -7.5971    4.6664 N   0  0  0  0  0  0  0  0  0  0  0  0
   21.2073   -8.1969    4.9687 H   0  0  0  0  0  0  0  0  0  0  0  0
   22.0115   -9.0027    2.2031 C   0  0  0  0  0  0  0  0  0  0  0  0
   20.6668   -8.6404    2.3719 C   0  0  0  0  0  0  0  0  0  0  0  0
   19.7486   -9.6410    1.3840 S   0  0  0  0  0  0  0  0  0  0  0  0
   21.0048  -10.5538    0.7424 C   0  0  0  0  0  0  0  0  0  0  0  0
   22.1833  -10.0688    1.3011 C   0  0  0  0  0  0  0  0  0  0  0  0
   24.5212   -8.9798    2.7950 C   0  0  0  0  0  0  0  0  0  0  0  0
   23.1773   -8.3286    2.8132 C   0  0  0  0  0  0  0  0  0  0  0  0
   23.0725   -7.1744    3.3055 O   0  0  0  0  0  0  0  0  0  0  0  0
 35 36  1  0  0  0
 36 37  2  0  0  0
 36 30  1  0  0  0
 30 31  2  0  0  0
 31 32  1  0  0  0
 32 33  1  0  0  0
 33 34  2  0  0  0
 31 26  1  0  0  0
 26 27  2  0  0  0
 26 28  1  0  0  0
 28 25  1  0  0  0
 25  1  1  0  0  0
  1  2  2  0  0  0
  2  3  1  0  0  0
  3  4  2  0  0  0
  4  5  1  0  0  0
  4  6  1  0  0  0
  6  7  2  0  0  0
  7  8  1  0  0  0
  8  9  2  0  0  0
  8 10  1  0  0  0
 10 11  2  0  0  0
 10 12  1  0  0  0
 14 12  1  0  0  0
 14 15  1  0  0  0
 15 16  1  0  0  0
 16 17  1  0  0  0
 17 18  1  0  0  0
 18 19  1  0  0  0
 17 20  1  0  0  0
 20 21  1  0  0  0
 20 22  2  0  0  0
 34 30  1  0  0  0
  5  1  1  0  0  0
 19 14  1  0  0  0
  9  3  1  0  0  0
 28 29  1  0  0  0
 12 13  1  0  0  0
 21 23  1  0  0  0
 21 24  1  0  0  0
M  END
>  <minimizedAffinity>
-9.98825

>  <minimizedRMSD>
0.90009

$$$$
2325748490 CSSS01768738731 PubChem-166231513 Z1785775443


 28 31  0  0  0  0  0  0  0  0999 V2000
   18.6050  -12.4490   14.0989 C   0  0  0  0  0  0  0  0  0  0  0  0
   17.8615  -11.3837   14.8294 C   0  0  0  0  0  0  0  0  0  0  0  0
   17.1442  -10.3929   14.1371 C   0  0  0  0  0  0  0  0  0  0  0  0
   16.4581   -9.4072   14.8630 C   0  0  0  0  0  0  0  0  0  0  0  0
   16.4808   -9.4014   16.2644 C   0  0  0  0  0  0  0  0  0  0  0  0
   17.1996  -10.3952   16.9407 C   0  0  0  0  0  0  0  0  0  0  0  0
   17.8857  -11.3802   16.2268 C   0  0  0  0  0  0  0  0  0  0  0  0
   15.7572   -8.3621   17.0174 C   0  0  0  0  0  0  0  0  0  0  0  0
   15.0835   -7.4906   16.4023 O   0  0  0  0  0  0  0  0  0  0  0  0
   15.8182   -8.3399   18.4458 N   0  0  0  0  0  0  0  0  0  0  0  0
   16.3475   -9.0271   18.9115 H   0  0  0  0  0  0  0  0  0  0  0  0
   15.1229   -7.3342   19.2313 C   0  0  0  0  0  0  0  0  0  0  0  0
   14.8472   -7.8768   20.6179 C   0  0  0  0  0  0  0  0  0  0  0  0
   13.4307   -7.5192   21.0156 C   0  0  0  0  0  0  0  0  0  0  0  0
   14.5942   -6.7205   21.5629 C   0  0  0  0  0  0  0  0  0  0  0  0
   17.1186  -10.3940   12.7054 N   0  0  0  0  0  0  0  0  0  0  0  0
   16.4502  -10.9538   12.2481 H   0  0  0  0  0  0  0  0  0  0  0  0
   18.0351   -9.6057   11.8953 C   0  0  0  0  0  0  0  0  0  0  0  0
   17.5083   -9.4952   10.5055 C   0  0  0  0  0  0  0  0  0  0  0  0
   18.1589   -8.7422    9.5278 C   0  0  0  0  0  0  0  0  0  0  0  0
   19.3011   -7.9756    9.5807 C   0  0  0  0  0  0  0  0  0  0  0  0
   19.4332   -7.4771    8.2812 C   0  0  0  0  0  0  0  0  0  0  0  0
   18.4353   -7.9069    7.4684 N   0  0  0  0  0  0  0  0  0  0  0  0
   17.6745   -8.6762    8.2572 C   0  0  0  0  0  0  0  0  0  0  0  0
   16.5508   -9.3345    7.8762 N   0  0  0  0  0  0  0  0  0  0  0  0
   15.8797  -10.0920    8.7951 C   0  0  0  0  0  0  0  0  0  0  0  0
   16.3471  -10.1887   10.1236 C   0  0  0  0  0  0  0  0  0  0  0  0
   18.3011   -7.7001    6.5153 H   0  0  0  0  0  0  0  0  0  0  0  0
  1  2  1  0  0  0
  2  3  2  0  0  0
  3 16  1  0  0  0
 16 18  1  0  0  0
 18 19  1  0  0  0
 19 20  2  0  0  0
 20 21  1  0  0  0
 21 22  2  0  0  0
 22 23  1  0  0  0
 23 24  1  0  0  0
 24 25  2  0  0  0
 25 26  1  0  0  0
 26 27  2  0  0  0
  3  4  1  0  0  0
  4  5  2  0  0  0
  5  8  1  0  0  0
  8  9  2  0  0  0
  8 10  1  0  0  0
 10 12  1  0  0  0
 12 13  1  0  0  0
 13 14  1  0  0  0
 14 15  1  0  0  0
  5  6  1  0  0  0
  6  7  2  0  0  0
  7  2  1  0  0  0
 27 19  1  0  0  0
 15 13  1  0  0  0
 24 20  1  0  0  0
 16 17  1  0  0  0
 23 28  1  0  0  0
 10 11  1  0  0  0
M  END
>  <minimizedAffinity>
-9.96596

>  <minimizedRMSD>
0.89671

$$$$
1875279562 CSSS00161132086 MCULE-4986327282 MolPort-047-333-833 PubChem-146143586 Z3289908072


 26 29  0  0  0  0  0  0  0  0999 V2000
   16.3137   -9.0749   16.5338 C   0  0  0  0  0  0  0  0  0  0  0  0
   17.2456   -9.9962   17.0309 C   0  0  0  0  0  0  0  0  0  0  0  0
   18.0567  -10.7219   16.1544 C   0  0  0  0  0  0  0  0  0  0  0  0
   17.9408  -10.5305   14.7753 C   0  0  0  0  0  0  0  0  0  0  0  0
   17.0117   -9.6114   14.2663 C   0  0  0  0  0  0  0  0  0  0  0  0
   16.2029   -8.8883   15.1486 C   0  0  0  0  0  0  0  0  0  0  0  0
   14.6084   -6.9393   20.6378 C   0  0  0  0  0  0  0  0  0  0  0  0
   14.7342   -7.3957   19.2261 C   0  0  0  0  0  0  0  0  0  0  0  0
   13.8559   -7.1413   18.2022 C   0  0  0  0  0  0  0  0  0  0  0  0
   12.5940   -6.3559   18.2893 C   0  0  0  0  0  0  0  0  0  0  0  0
   14.3048   -7.7163   17.0745 N   0  0  0  0  0  0  0  0  0  0  0  0
   15.4592   -8.3103   17.4568 C   0  0  0  0  0  0  0  0  0  0  0  0
   15.7555   -8.1366   18.7657 N   0  0  0  0  0  0  0  0  0  0  0  0
   16.5354   -8.4736   19.2630 H   0  0  0  0  0  0  0  0  0  0  0  0
   16.8747   -9.3972   12.8601 N   0  0  0  0  0  0  0  0  0  0  0  0
   16.0684   -8.9386   12.5304 H   0  0  0  0  0  0  0  0  0  0  0  0
   17.8740   -9.8268   11.8940 C   0  0  0  0  0  0  0  0  0  0  0  0
   17.3344   -9.6704   10.5134 C   0  0  0  0  0  0  0  0  0  0  0  0
   16.1464  -10.2026   10.0352 C   0  0  0  0  0  0  0  0  0  0  0  0
   15.9735   -9.7929    8.7521 N   0  0  0  0  0  0  0  0  0  0  0  0
   17.0507   -9.0231    8.5001 C   0  0  0  0  0  0  0  0  0  0  0  0
   17.3202   -8.3620    7.3040 C   0  0  0  0  0  0  0  0  0  0  0  0
   18.4958   -7.5957    7.2417 C   0  0  0  0  0  0  0  0  0  0  0  0
   19.3549   -7.5092    8.3544 C   0  0  0  0  0  0  0  0  0  0  0  0
   19.0296   -8.1975    9.5320 C   0  0  0  0  0  0  0  0  0  0  0  0
   17.8853   -8.9270    9.5450 N   0  0  0  0  0  0  0  0  0  0  0  0
  7  8  1  0  0  0
  8  9  2  0  0  0
  9 10  1  0  0  0
  9 11  1  0  0  0
 11 12  2  0  0  0
 12 13  1  0  0  0
 12  1  1  0  0  0
  1  2  2  0  0  0
  2  3  1  0  0  0
  3  4  2  0  0  0
  4  5  1  0  0  0
  5 15  1  0  0  0
 15 17  1  0  0  0
 17 18  1  0  0  0
 18 19  2  0  0  0
 19 20  1  0  0  0
 20 21  2  0  0  0
 21 22  1  0  0  0
 22 23  2  0  0  0
 23 24  1  0  0  0
 24 25  2  0  0  0
 25 26  1  0  0  0
  5  6  2  0  0  0
 13  8  1  0  0  0
  6  1  1  0  0  0
 26 18  1  0  0  0
 26 21  1  0  0  0
 13 14  1  0  0  0
 15 16  1  0  0  0
M  END
>  <minimizedAffinity>
-9.92272

>  <minimizedRMSD>
0.84990

$$$$
CSSS00574054635 PubChem-166213208 Z1682827849


 30 34  0  0  0  0  0  0  0  0999 V2000
   17.1194   -8.9752   16.4438 C   0  0  0  0  0  0  0  0  0  0  0  0
   16.3907   -9.1841   15.2631 C   0  0  0  0  0  0  0  0  0  0  0  0
   17.0168   -9.6935   14.1188 C   0  0  0  0  0  0  0  0  0  0  0  0
   18.3838   -9.9957   14.1581 C   0  0  0  0  0  0  0  0  0  0  0  0
   19.1156   -9.7902   15.3304 C   0  0  0  0  0  0  0  0  0  0  0  0
   18.4838   -9.2815   16.4686 C   0  0  0  0  0  0  0  0  0  0  0  0
   16.2415   -9.9066   12.8891 C   0  0  0  0  0  0  0  0  0  0  0  0
   16.7718  -10.3203   11.7208 N   0  0  0  0  0  0  0  0  0  0  0  0
   15.6756  -10.3603   10.9366 C   0  0  0  0  0  0  0  0  0  0  0  0
   14.5565   -9.9825   11.5823 N   0  0  0  0  0  0  0  0  0  0  0  0
   14.9480   -9.7142   12.7903 O   0  0  0  0  0  0  0  0  0  0  0  0
   15.7106  -10.7176    9.4907 C   0  0  0  0  0  0  0  0  0  0  0  0
   16.7294   -9.8926    8.7830 C   0  0  0  0  0  0  0  0  0  0  0  0
   17.5683   -8.9717    9.3975 C   0  0  0  0  0  0  0  0  0  0  0  0
   18.2815   -8.4273    8.4020 N   0  0  0  0  0  0  0  0  0  0  0  0
   19.2432   -7.4738    8.4635 C   0  0  0  0  0  0  0  0  0  0  0  0
   19.8423   -7.0644    7.2634 C   0  0  0  0  0  0  0  0  0  0  0  0
   19.4304   -7.6474    6.0497 C   0  0  0  0  0  0  0  0  0  0  0  0
   18.4285   -8.6314    6.0339 C   0  0  0  0  0  0  0  0  0  0  0  0
   17.8724   -8.9972    7.2575 C   0  0  0  0  0  0  0  0  0  0  0  0
   16.9043   -9.9123    7.4395 N   0  0  0  0  0  0  0  0  0  0  0  0
   14.5538   -7.5499   16.6920 O   0  0  0  0  0  0  0  0  0  0  0  0
   15.2545   -7.7596   17.7173 C   0  0  0  0  0  0  0  0  0  0  0  0
   16.5071   -8.4549   17.6313 N   0  0  0  0  0  0  0  0  0  0  0  0
   16.9965   -8.5884   18.4750 H   0  0  0  0  0  0  0  0  0  0  0  0
   14.7587   -7.2880   19.0426 C   0  0  0  0  0  0  0  0  0  0  0  0
   13.2477   -7.2346   19.0544 C   0  0  0  0  0  0  0  0  0  0  0  0
   12.8793   -7.7692   20.4051 C   0  0  0  0  0  0  0  0  0  0  0  0
   14.2104   -8.0490   21.0623 C   0  0  0  0  0  0  0  0  0  0  0  0
   15.1861   -8.1537   20.0606 O   0  0  0  0  0  0  0  0  0  0  0  0
 22 23  2  0  0  0
 23 24  1  0  0  0
 24  1  1  0  0  0
  1  2  2  0  0  0
  2  3  1  0  0  0
  3  7  1  0  0  0
  7  8  2  0  0  0
  8  9  1  0  0  0
  9 12  1  0  0  0
 12 13  1  0  0  0
 13 14  2  0  0  0
 14 15  1  0  0  0
 15 16  1  0  0  0
 16 17  2  0  0  0
 17 18  1  0  0  0
 18 19  2  0  0  0
 19 20  1  0  0  0
 20 21  2  0  0  0
  9 10  2  0  0  0
 10 11  1  0  0  0
  3  4  2  0  0  0
  4  5  1  0  0  0
  5  6  2  0  0  0
 23 26  1  0  0  0
 26 27  1  0  0  0
 27 28  1  0  0  0
 28 29  1  0  0  0
 29 30  1  0  0  0
  6  1  1  0  0  0
 30 26  1  0  0  0
 11  7  1  0  0  0
 21 13  1  0  0  0
 20 15  1  0  0  0
 24 25  1  0  0  0
M  END
>  <minimizedAffinity>
-9.82512

>  <minimizedRMSD>
1.35565

$$$$
1264017533 CSSS00133081079 MCULE-9922021281 MolPort-046-141-870 PubChem-136576108 Z3214698943


 34 37  0  0  0  0  0  0  0  0999 V2000
   16.2510   -8.9849   16.7947 C   0  0  0  0  0  0  0  0  0  0  0  0
   17.0838   -9.9557   17.3690 C   0  0  0  0  0  0  0  0  0  0  0  0
   17.8539  -10.7948   16.5595 C   0  0  0  0  0  0  0  0  0  0  0  0
   17.7966  -10.6691   15.1694 C   0  0  0  0  0  0  0  0  0  0  0  0
   16.9677   -9.7022   14.5823 C   0  0  0  0  0  0  0  0  0  0  0  0
   16.1996   -8.8655   15.3979 C   0  0  0  0  0  0  0  0  0  0  0  0
   15.6634   -8.0798   19.0676 N   0  0  0  0  0  0  0  0  0  0  0  0
   15.4393   -8.1004   17.6493 C   0  0  0  0  0  0  0  0  0  0  0  0
   14.5539   -7.3684   17.1284 O   0  0  0  0  0  0  0  0  0  0  0  0
   16.3685   -8.6750   19.4108 H   0  0  0  0  0  0  0  0  0  0  0  0
   13.0104   -6.0360   20.7790 C   0  0  0  0  0  0  0  0  0  0  0  0
   13.6699   -5.7311   21.9776 C   0  0  0  0  0  0  0  0  0  0  0  0
   14.9672   -6.1969   22.2060 C   0  0  0  0  0  0  0  0  0  0  0  0
   15.6126   -6.9704   21.2378 C   0  0  0  0  0  0  0  0  0  0  0  0
   14.9682   -7.2836   20.0367 C   0  0  0  0  0  0  0  0  0  0  0  0
   13.6657   -6.8122   19.8142 C   0  0  0  0  0  0  0  0  0  0  0  0
   11.6438   -5.5497   20.5303 C   0  0  0  0  0  0  0  0  0  0  0  0
   11.0103   -4.9501   21.4429 O   0  0  0  0  0  0  0  0  0  0  0  0
   11.0524   -5.7555   19.2812 O   0  0  0  0  0  0  0  0  0  0  0  0
   10.7452   -7.5485   17.7204 C   0  0  0  0  0  0  0  0  0  0  0  0
   10.2639   -6.9029   19.0030 C   0  0  0  0  0  0  0  0  0  0  0  0
   16.8917   -9.5539   13.1629 N   0  0  0  0  0  0  0  0  0  0  0  0
   16.1269   -9.0654   12.7812 H   0  0  0  0  0  0  0  0  0  0  0  0
   17.8949  -10.0929   12.2567 C   0  0  0  0  0  0  0  0  0  0  0  0
   17.5228   -9.7779   10.8514 C   0  0  0  0  0  0  0  0  0  0  0  0
   16.2724  -10.2014   10.3377 C   0  0  0  0  0  0  0  0  0  0  0  0
   15.9065   -9.8996    9.0541 N   0  0  0  0  0  0  0  0  0  0  0  0
   16.7652   -9.1830    8.2889 C   0  0  0  0  0  0  0  0  0  0  0  0
   16.5963   -8.7978    7.0491 O   0  0  0  0  0  0  0  0  0  0  0  0
   17.6434   -8.1219    6.6495 N   0  0  0  0  0  0  0  0  0  0  0  0
   18.5166   -8.0768    7.6855 C   0  0  0  0  0  0  0  0  0  0  0  0
   19.8395   -7.3970    7.6437 C   0  0  0  0  0  0  0  0  0  0  0  0
   17.9703   -8.7541    8.7488 C   0  0  0  0  0  0  0  0  0  0  0  0
   18.3982   -9.0276   10.0424 C   0  0  0  0  0  0  0  0  0  0  0  0
 20 21  1  0  0  0
 21 19  1  0  0  0
 19 17  1  0  0  0
 17 18  2  0  0  0
 17 11  1  0  0  0
 11 12  2  0  0  0
 12 13  1  0  0  0
 13 14  2  0  0  0
 14 15  1  0  0  0
 15  7  1  0  0  0
  7  8  1  0  0  0
  8  9  2  0  0  0
  8  1  1  0  0  0
  1  2  2  0  0  0
  2  3  1  0  0  0
  3  4  2  0  0  0
  4  5  1  0  0  0
  5 22  1  0  0  0
 22 24  1  0  0  0
 24 25  1  0  0  0
 25 26  2  0  0  0
 26 27  1  0  0  0
 27 28  2  0  0  0
 28 29  1  0  0  0
 29 30  1  0  0  0
 30 31  2  0  0  0
 31 32  1  0  0  0
 31 33  1  0  0  0
 33 34  2  0  0  0
  5  6  2  0  0  0
 15 16  2  0  0  0
 16 11  1  0  0  0
  6  1  1  0  0  0
 34 25  1  0  0  0
 33 28  1  0  0  0
  7 10  1  0  0  0
 22 23  1  0  0  0
M  END
>  <minimizedAffinity>
-9.79647

>  <minimizedRMSD>
1.74176

$$$$
CSC027771241 2661167 CSSS00027771241 MCULE-6663157839 MolPort-004-272-949 PubChem-2125082 Z24134251 ZINC000002661167 ZINC02661167


 28 30  0  0  0  0  0  0  0  0999 V2000
   17.8159  -10.7571   13.1553 C   0  0  0  0  0  0  0  0  0  0  0  0
   18.1937  -11.9615   13.1400 O   0  0  0  0  0  0  0  0  0  0  0  0
   16.4941   -8.9600   16.8146 C   0  0  0  0  0  0  0  0  0  0  0  0
   16.3071   -8.3011   15.5905 C   0  0  0  0  0  0  0  0  0  0  0  0
   16.7387   -8.8887   14.3983 C   0  0  0  0  0  0  0  0  0  0  0  0
   17.3629  -10.1426   14.4135 C   0  0  0  0  0  0  0  0  0  0  0  0
   17.5497  -10.8008   15.6369 C   0  0  0  0  0  0  0  0  0  0  0  0
   17.1175  -10.2119   16.8286 C   0  0  0  0  0  0  0  0  0  0  0  0
   14.5930   -7.1450   19.5947 N   0  0  0  0  0  0  0  0  0  0  0  0
   14.8642   -7.6414   18.2901 C   0  0  0  0  0  0  0  0  0  0  0  0
   14.0454   -7.4163   17.3603 O   0  0  0  0  0  0  0  0  0  0  0  0
   16.0648   -8.3890   18.0583 N   0  0  0  0  0  0  0  0  0  0  0  0
   13.7711   -6.6303   19.7646 H   0  0  0  0  0  0  0  0  0  0  0  0
   15.2272   -7.3159   20.3281 H   0  0  0  0  0  0  0  0  0  0  0  0
   16.6564   -8.5247   18.8334 H   0  0  0  0  0  0  0  0  0  0  0  0
   17.8259  -10.0015   11.9809 O   0  0  0  0  0  0  0  0  0  0  0  0
   16.6811   -9.8935   11.1473 C   0  0  0  0  0  0  0  0  0  0  0  0
   17.0956   -9.5834    9.7868 N   0  0  0  0  0  0  0  0  0  0  0  0
   16.3849  -10.0851    8.7744 N   0  0  0  0  0  0  0  0  0  0  0  0
   16.6951   -9.8236    7.5047 N   0  0  0  0  0  0  0  0  0  0  0  0
   17.7473   -9.0292    7.1964 C   0  0  0  0  0  0  0  0  0  0  0  0
   18.0636   -8.7616    5.8615 C   0  0  0  0  0  0  0  0  0  0  0  0
   19.1510   -7.9377    5.5543 C   0  0  0  0  0  0  0  0  0  0  0  0
   19.9217   -7.3809    6.5802 C   0  0  0  0  0  0  0  0  0  0  0  0
   19.6077   -7.6466    7.9168 C   0  0  0  0  0  0  0  0  0  0  0  0
   18.5185   -8.4729    8.2304 C   0  0  0  0  0  0  0  0  0  0  0  0
   18.1649   -8.7678    9.5503 C   0  0  0  0  0  0  0  0  0  0  0  0
   18.8276   -8.2857   10.5115 O   0  0  0  0  0  0  0  0  0  0  0  0
  9 10  1  0  0  0
 10 11  2  0  0  0
 10 12  1  0  0  0
 12  3  1  0  0  0
  3  4  2  0  0  0
  4  5  1  0  0  0
  5  6  2  0  0  0
  6  7  1  0  0  0
  6  1  1  0  0  0
  7  8  2  0  0  0
  8  3  1  0  0  0
  1  2  2  0  0  0
  1 16  1  0  0  0
 16 17  1  0  0  0
 17 18  1  0  0  0
 18 19  1  0  0  0
 19 20  2  0  0  0
 20 21  1  0  0  0
 21 22  2  0  0  0
 22 23  1  0  0  0
 23 24  2  0  0  0
 24 25  1  0  0  0
 25 26  2  0  0  0
 26 27  1  0  0  0
 26 21  1  0  0  0
 27 28  2  0  0  0
 27 18  1  0  0  0
  9 13  1  0  0  0
  9 14  1  0  0  0
 12 15  1  0  0  0
M  END
>  <minimizedAffinity>
-9.75483

>  <minimizedRMSD>
1.03836

$$$$
CSSS01421353470 MolPort-047-845-576 PubChem-166337721 Z5032999937


 25 27  0  0  0  0  0  0  0  0999 V2000
   17.1074  -10.3690   12.6816 N   0  0  0  0  0  0  0  0  0  0  0  0
   16.4257  -10.9125   12.2243 H   0  0  0  0  0  0  0  0  0  0  0  0
   16.4859   -9.4126   16.2534 C   0  0  0  0  0  0  0  0  0  0  0  0
   17.2168  -10.4068   16.9162 C   0  0  0  0  0  0  0  0  0  0  0  0
   17.9056  -11.3802   16.1890 C   0  0  0  0  0  0  0  0  0  0  0  0
   17.8721  -11.3717   14.7918 C   0  0  0  0  0  0  0  0  0  0  0  0
   18.6189  -12.4247   14.0469 C   0  0  0  0  0  0  0  0  0  0  0  0
   17.1426  -10.3803   14.1130 C   0  0  0  0  0  0  0  0  0  0  0  0
   16.4539   -9.4063   14.8522 C   0  0  0  0  0  0  0  0  0  0  0  0
   15.1174   -7.3917   19.2478 C   0  0  0  0  0  0  0  0  0  0  0  0
   15.8168   -8.3839   18.4491 N   0  0  0  0  0  0  0  0  0  0  0  0
   15.7593   -8.3855   17.0202 C   0  0  0  0  0  0  0  0  0  0  0  0
   15.0854   -7.5060   16.4162 O   0  0  0  0  0  0  0  0  0  0  0  0
   16.3468   -9.0765   18.9059 H   0  0  0  0  0  0  0  0  0  0  0  0
   18.0329   -9.5911   11.8716 C   0  0  0  0  0  0  0  0  0  0  0  0
   17.5153   -9.4880   10.4778 C   0  0  0  0  0  0  0  0  0  0  0  0
   18.1683   -8.7339    9.5025 C   0  0  0  0  0  0  0  0  0  0  0  0
   19.3053   -7.9603    9.5613 C   0  0  0  0  0  0  0  0  0  0  0  0
   19.4438   -7.4647    8.2613 C   0  0  0  0  0  0  0  0  0  0  0  0
   18.4543   -7.9030    7.4427 N   0  0  0  0  0  0  0  0  0  0  0  0
   17.6926   -8.6745    8.2284 C   0  0  0  0  0  0  0  0  0  0  0  0
   16.5756   -9.3407    7.8412 N   0  0  0  0  0  0  0  0  0  0  0  0
   15.9026  -10.0996    8.7575 C   0  0  0  0  0  0  0  0  0  0  0  0
   16.3610  -10.1897   10.0897 C   0  0  0  0  0  0  0  0  0  0  0  0
   18.3257   -7.6998    6.4880 H   0  0  0  0  0  0  0  0  0  0  0  0
 10 11  1  0  0  0
 11 12  1  0  0  0
 12 13  2  0  0  0
 12  3  1  0  0  0
  3  4  2  0  0  0
  4  5  1  0  0  0
  5  6  2  0  0  0
  6  7  1  0  0  0
  6  8  1  0  0  0
  8  1  1  0  0  0
  1 15  1  0  0  0
 15 16  1  0  0  0
 16 17  2  0  0  0
 17 18  1  0  0  0
 18 19  2  0  0  0
 19 20  1  0  0  0
 20 21  1  0  0  0
 21 22  2  0  0  0
 22 23  1  0  0  0
 23 24  2  0  0  0
  8  9  2  0  0  0
  9  3  1  0  0  0
 24 16  1  0  0  0
 21 17  1  0  0  0
 11 14  1  0  0  0
  1  2  1  0  0  0
 20 25  1  0  0  0
M  END
>  <minimizedAffinity>
-9.74539

>  <minimizedRMSD>
0.68483

$$$$
CSSS00485520112 Z873291360


 29 32  0  0  0  0  0  0  0  0999 V2000
   16.5442   -9.2046   16.8722 C   0  0  0  0  0  0  0  0  0  0  0  0
   17.6575  -10.0413   17.0091 C   0  0  0  0  0  0  0  0  0  0  0  0
   18.1561  -10.7424   15.9070 C   0  0  0  0  0  0  0  0  0  0  0  0
   17.5409  -10.6113   14.6588 C   0  0  0  0  0  0  0  0  0  0  0  0
   16.4243   -9.7829   14.5134 C   0  0  0  0  0  0  0  0  0  0  0  0
   15.9324   -9.0773   15.6160 C   0  0  0  0  0  0  0  0  0  0  0  0
   14.1482   -7.5099   17.0991 O   0  0  0  0  0  0  0  0  0  0  0  0
   14.9073   -7.6577   18.0955 C   0  0  0  0  0  0  0  0  0  0  0  0
   16.0689   -8.4946   18.0239 N   0  0  0  0  0  0  0  0  0  0  0  0
   16.5945   -8.5920   18.8507 H   0  0  0  0  0  0  0  0  0  0  0  0
   14.5995   -6.9601   19.3786 C   0  0  0  0  0  0  0  0  0  0  0  0
   14.8697   -7.8821   20.5678 C   0  0  0  0  0  0  0  0  0  0  0  0
   14.5565   -7.1583   21.8749 C   0  0  0  0  0  0  0  0  0  0  0  0
   13.1021   -6.6925   21.8830 C   0  0  0  0  0  0  0  0  0  0  0  0
   12.8426   -5.7612   20.7026 C   0  0  0  0  0  0  0  0  0  0  0  0
   13.1482   -6.4791   19.3907 C   0  0  0  0  0  0  0  0  0  0  0  0
   15.7791   -9.6293   13.1799 C   0  0  0  0  0  0  0  0  0  0  0  0
   16.6518   -8.8867   12.2849 N   0  0  0  0  0  0  0  0  0  0  0  0
   17.2761   -8.2873   12.8247 H   0  0  0  0  0  0  0  0  0  0  0  0
   17.4263   -9.8579   11.5278 C   0  0  0  0  0  0  0  0  0  0  0  0
   17.2125   -9.6536   10.0633 C   0  0  0  0  0  0  0  0  0  0  0  0
   16.2233  -10.2487    9.2948 C   0  0  0  0  0  0  0  0  0  0  0  0
   16.3622   -9.8310    8.0095 N   0  0  0  0  0  0  0  0  0  0  0  0
   17.4267   -9.0041    8.0404 C   0  0  0  0  0  0  0  0  0  0  0  0
   17.9692   -8.3302    6.9484 C   0  0  0  0  0  0  0  0  0  0  0  0
   19.0927   -7.5199    7.1836 C   0  0  0  0  0  0  0  0  0  0  0  0
   19.6365   -7.4066    8.4784 C   0  0  0  0  0  0  0  0  0  0  0  0
   19.0461   -8.1108    9.5388 C   0  0  0  0  0  0  0  0  0  0  0  0
   17.9606   -8.8788    9.2647 N   0  0  0  0  0  0  0  0  0  0  0  0
  7  8  2  0  0  0
  8  9  1  0  0  0
  9  1  1  0  0  0
  1  2  2  0  0  0
  2  3  1  0  0  0
  3  4  2  0  0  0
  4  5  1  0  0  0
  5 17  1  0  0  0
 17 18  1  0  0  0
 18 20  1  0  0  0
 20 21  1  0  0  0
 21 22  2  0  0  0
 22 23  1  0  0  0
 23 24  2  0  0  0
 24 25  1  0  0  0
 25 26  2  0  0  0
 26 27  1  0  0  0
 27 28  2  0  0  0
 28 29  1  0  0  0
  5  6  2  0  0  0
  8 11  1  0  0  0
 11 12  1  0  0  0
 12 13  1  0  0  0
 13 14  1  0  0  0
 14 15  1  0  0  0
 15 16  1  0  0  0
  6  1  1  0  0  0
 16 11  1  0  0  0
 29 21  1  0  0  0
 29 24  1  0  0  0
  9 10  1  0  0  0
 18 19  1  0  0  0
M  END
>  <minimizedAffinity>
-9.69256

>  <minimizedRMSD>
1.67138

$$$$
CSC059412042 CSSS00059412042 PubChem-154737484 Z2302815193


 29 31  0  0  0  0  0  0  0  0999 V2000
   17.0181   -9.1731   16.8856 C   0  0  0  0  0  0  0  0  0  0  0  0
   18.1787   -8.3661   16.3069 C   0  0  0  0  0  0  0  0  0  0  0  0
   19.3802   -9.2750   16.0506 C   0  0  0  0  0  0  0  0  0  0  0  0
   19.0148  -10.4328   15.1190 C   0  0  0  0  0  0  0  0  0  0  0  0
   17.8229  -11.2178   15.6801 C   0  0  0  0  0  0  0  0  0  0  0  0
   16.6260  -10.3032   15.9358 C   0  0  0  0  0  0  0  0  0  0  0  0
   14.0583   -7.0853   20.2972 N   0  0  0  0  0  0  0  0  0  0  0  0
   14.3487   -7.2307   18.9128 C   0  0  0  0  0  0  0  0  0  0  0  0
   13.6359   -6.6333   18.0634 O   0  0  0  0  0  0  0  0  0  0  0  0
   15.4470   -8.0540   18.5065 N   0  0  0  0  0  0  0  0  0  0  0  0
   15.8476   -8.2861   17.1518 C   0  0  0  0  0  0  0  0  0  0  0  0
   15.2261   -7.7526   16.1921 O   0  0  0  0  0  0  0  0  0  0  0  0
   13.3048   -6.5210   20.5855 H   0  0  0  0  0  0  0  0  0  0  0  0
   14.6107   -7.5489   20.9674 H   0  0  0  0  0  0  0  0  0  0  0  0
   15.9684   -8.4958   19.2152 H   0  0  0  0  0  0  0  0  0  0  0  0
   18.7263   -9.9301   13.7801 N   0  0  0  0  0  0  0  0  0  0  0  0
   18.1174  -10.7289   12.7603 C   0  0  0  0  0  0  0  0  0  0  0  0
   17.8546  -11.9427   12.9823 O   0  0  0  0  0  0  0  0  0  0  0  0
   18.9615   -8.9980   13.5682 H   0  0  0  0  0  0  0  0  0  0  0  0
   17.8016  -10.1338   11.4508 C   0  0  0  0  0  0  0  0  0  0  0  0
   16.5782  -10.4022   10.8199 C   0  0  0  0  0  0  0  0  0  0  0  0
   16.2879   -9.8494    9.6109 N   0  0  0  0  0  0  0  0  0  0  0  0
   17.1645   -9.0256    8.9782 C   0  0  0  0  0  0  0  0  0  0  0  0
   16.8403   -8.4714    7.7366 C   0  0  0  0  0  0  0  0  0  0  0  0
   17.7479   -7.6242    7.0922 C   0  0  0  0  0  0  0  0  0  0  0  0
   18.9800   -7.3296    7.6869 C   0  0  0  0  0  0  0  0  0  0  0  0
   19.3108   -7.8808    8.9290 C   0  0  0  0  0  0  0  0  0  0  0  0
   18.4074   -8.7276    9.5764 C   0  0  0  0  0  0  0  0  0  0  0  0
   18.7180   -9.2871   10.8151 C   0  0  0  0  0  0  0  0  0  0  0  0
  7  8  1  0  0  0
  8  9  2  0  0  0
  8 10  1  0  0  0
 10 11  1  0  0  0
 11 12  2  0  0  0
 11  1  1  0  0  0
  1  2  1  0  0  0
  2  3  1  0  0  0
  3  4  1  0  0  0
  4  5  1  0  0  0
  5  6  1  0  0  0
  4 16  1  0  0  0
 16 17  1  0  0  0
 17 18  2  0  0  0
 17 20  1  0  0  0
 20 21  2  0  0  0
 21 22  1  0  0  0
 22 23  2  0  0  0
 23 24  1  0  0  0
 24 25  2  0  0  0
 25 26  1  0  0  0
 26 27  2  0  0  0
 27 28  1  0  0  0
 28 29  2  0  0  0
  6  1  1  0  0  0
 29 20  1  0  0  0
 28 23  1  0  0  0
  7 13  1  0  0  0
  7 14  1  0  0  0
 10 15  1  0  0  0
 16 19  1  0  0  0
M  END
>  <minimizedAffinity>
-9.69171

>  <minimizedRMSD>
1.43885

$$$$
CSC027211634 CSSS00027211634 MCULE-1325594152 MolPort-005-692-693 PubChem-42924961 Z188897276


 35 38  0  0  0  0  0  0  0  0999 V2000
   17.5733  -10.8865   13.0192 C   0  0  0  0  0  0  0  0  0  0  0  0
   18.3385  -11.7658   12.5390 O   0  0  0  0  0  0  0  0  0  0  0  0
   17.2890  -10.8707   14.4254 N   0  0  0  0  0  0  0  0  0  0  0  0
   17.8338  -11.9048   15.3019 C   0  0  0  0  0  0  0  0  0  0  0  0
   18.4395  -11.2600   16.5450 C   0  0  0  0  0  0  0  0  0  0  0  0
   17.4132  -10.3531   17.2184 C   0  0  0  0  0  0  0  0  0  0  0  0
   16.9436   -9.2734   16.2438 C   0  0  0  0  0  0  0  0  0  0  0  0
   16.3444   -9.9099   14.9909 C   0  0  0  0  0  0  0  0  0  0  0  0
   15.9478   -8.3762   16.8981 C   0  0  0  0  0  0  0  0  0  0  0  0
   15.2593   -7.6029   16.1811 O   0  0  0  0  0  0  0  0  0  0  0  0
   15.7860   -8.4057   18.3244 N   0  0  0  0  0  0  0  0  0  0  0  0
   16.3533   -9.0399   18.8196 H   0  0  0  0  0  0  0  0  0  0  0  0
   14.8842   -7.6076   19.1029 C   0  0  0  0  0  0  0  0  0  0  0  0
   13.6985   -7.0851   18.5632 C   0  0  0  0  0  0  0  0  0  0  0  0
   12.8444   -6.3093   19.3525 C   0  0  0  0  0  0  0  0  0  0  0  0
   13.1697   -6.0506   20.6865 C   0  0  0  0  0  0  0  0  0  0  0  0
   14.3487   -6.5676   21.2303 C   0  0  0  0  0  0  0  0  0  0  0  0
   15.2023   -7.3431   20.4398 C   0  0  0  0  0  0  0  0  0  0  0  0
   16.9586   -9.8750   12.1019 C   0  0  0  0  0  0  0  0  0  0  0  0
   18.0181   -9.0122   11.4236 C   0  0  0  0  0  0  0  0  0  0  0  0
   15.6684  -10.2639   10.1035 C   0  0  0  0  0  0  0  0  0  0  0  0
   16.7433   -9.6131    9.2999 C   0  0  0  0  0  0  0  0  0  0  0  0
   16.6279   -9.6084    7.9396 N   0  0  0  0  0  0  0  0  0  0  0  0
   17.5927   -9.0125    7.2008 C   0  0  0  0  0  0  0  0  0  0  0  0
   17.6183   -8.9367    5.8597 N   0  0  0  0  0  0  0  0  0  0  0  0
   18.7753   -8.2467    5.6662 C   0  0  0  0  0  0  0  0  0  0  0  0
   19.4215   -7.9427    6.8194 N   0  0  0  0  0  0  0  0  0  0  0  0
   18.6480   -8.4313    7.7684 N   0  0  0  0  0  0  0  0  0  0  0  0
   18.8394   -8.3932    9.1101 C   0  0  0  0  0  0  0  0  0  0  0  0
   20.0445   -7.7201    9.6858 C   0  0  0  0  0  0  0  0  0  0  0  0
   17.8643   -9.0048    9.9279 C   0  0  0  0  0  0  0  0  0  0  0  0
   19.3275   -7.9356    4.3132 C   0  0  0  0  0  0  0  0  0  0  0  0
   18.3041   -7.8865    3.3842 F   0  0  0  0  0  0  0  0  0  0  0  0
   20.2275   -8.9188    3.9482 F   0  0  0  0  0  0  0  0  0  0  0  0
   19.9727   -6.7128    4.3379 F   0  0  0  0  0  0  0  0  0  0  0  0
 21 22  1  0  0  0
 22 23  2  0  0  0
 23 24  1  0  0  0
 24 25  2  0  0  0
 25 26  1  0  0  0
 26 27  2  0  0  0
 26 32  1  0  0  0
 27 28  1  0  0  0
 28 29  1  0  0  0
 28 24  1  0  0  0
 29 30  1  0  0  0
 29 31  2  0  0  0
 31 20  1  0  0  0
 31 22  1  0  0  0
 20 19  1  0  0  0
 19  1  1  0  0  0
  1  2  2  0  0  0
  1  3  1  0  0  0
  3  4  1  0  0  0
  4  5  1  0  0  0
  5  6  1  0  0  0
  6  7  1  0  0  0
  7  8  1  0  0  0
  7  9  1  0  0  0
  8  3  1  0  0  0
  9 10  2  0  0  0
  9 11  1  0  0  0
 11 13  1  0  0  0
 13 14  2  0  0  0
 14 15  1  0  0  0
 15 16  2  0  0  0
 16 17  1  0  0  0
 17 18  2  0  0  0
 18 13  1  0  0  0
 32 33  1  0  0  0
 32 34  1  0  0  0
 32 35  1  0  0  0
 11 12  1  0  0  0
M  END
>  <minimizedAffinity>
-9.65932

>  <minimizedRMSD>
1.77533

$$$$
CSSS00132809693 MCULE-3948733909 MolPort-000-812-661


 33 35  0  0  0  0  0  0  0  0999 V2000
   16.1010   -9.4399   15.3915 C   0  0  0  0  0  0  0  0  0  0  0  0
   16.6874   -8.9086   16.6880 C   0  0  0  0  0  0  0  0  0  0  0  0
   15.6449   -8.2334   18.8815 N   0  0  0  0  0  0  0  0  0  0  0  0
   15.6432   -8.1725   17.4493 C   0  0  0  0  0  0  0  0  0  0  0  0
   14.7585   -7.5311   16.8229 O   0  0  0  0  0  0  0  0  0  0  0  0
   16.3564   -8.7705   19.2994 H   0  0  0  0  0  0  0  0  0  0  0  0
   12.9612   -6.3142   21.5569 C   0  0  0  0  0  0  0  0  0  0  0  0
   12.4640   -6.9588   20.4148 C   0  0  0  0  0  0  0  0  0  0  0  0
   13.3362   -7.5936   19.5267 C   0  0  0  0  0  0  0  0  0  0  0  0
   14.7178   -7.5932   19.7684 C   0  0  0  0  0  0  0  0  0  0  0  0
   15.2116   -6.9482   20.9067 C   0  0  0  0  0  0  0  0  0  0  0  0
   14.3392   -6.3123   21.7946 C   0  0  0  0  0  0  0  0  0  0  0  0
   10.6169   -3.8285   23.4039 C   0  0  0  0  0  0  0  0  0  0  0  0
   11.4571   -4.3797   22.3095 C   0  0  0  0  0  0  0  0  0  0  0  0
   11.5893   -3.7242   21.2429 O   0  0  0  0  0  0  0  0  0  0  0  0
   12.0991   -5.6485   22.4898 N   0  0  0  0  0  0  0  0  0  0  0  0
   11.9308   -6.1110   23.3425 H   0  0  0  0  0  0  0  0  0  0  0  0
   16.7583   -8.7689   14.1990 C   0  0  0  0  0  0  0  0  0  0  0  0
   16.1221   -9.2461   12.9080 C   0  0  0  0  0  0  0  0  0  0  0  0
   17.1121  -10.1092   12.1461 C   0  0  0  0  0  0  0  0  0  0  0  0
   17.1934   -9.6819   10.7499 N   0  0  0  0  0  0  0  0  0  0  0  0
   16.1891  -10.0047    9.8772 C   0  0  0  0  0  0  0  0  0  0  0  0
   15.0819  -10.7284   10.3090 O   0  0  0  0  0  0  0  0  0  0  0  0
   16.2632   -9.6253    8.5750 N   0  0  0  0  0  0  0  0  0  0  0  0
   17.3263   -8.9282    8.1064 C   0  0  0  0  0  0  0  0  0  0  0  0
   17.3778   -8.5479    6.7622 C   0  0  0  0  0  0  0  0  0  0  0  0
   18.4771   -7.8308    6.2801 C   0  0  0  0  0  0  0  0  0  0  0  0
   19.5267   -7.4927    7.1402 C   0  0  0  0  0  0  0  0  0  0  0  0
   19.4805   -7.8708    8.4854 C   0  0  0  0  0  0  0  0  0  0  0  0
   18.3804   -8.5901    8.9758 C   0  0  0  0  0  0  0  0  0  0  0  0
   18.2919   -8.9890   10.3166 C   0  0  0  0  0  0  0  0  0  0  0  0
   19.2237   -8.7049   11.1213 O   0  0  0  0  0  0  0  0  0  0  0  0
   15.0176  -10.9966   11.2044 H   0  0  0  0  0  0  0  0  0  0  0  0
 13 14  1  0  0  0
 14 15  2  0  0  0
 14 16  1  0  0  0
 16  7  1  0  0  0
  7  8  2  0  0  0
  8  9  1  0  0  0
  9 10  2  0  0  0
 10  3  1  0  0  0
 10 11  1  0  0  0
  3  4  1  0  0  0
  4  5  2  0  0  0
  4  2  1  0  0  0
  2  1  1  0  0  0
  1 18  1  0  0  0
 18 19  1  0  0  0
 19 20  1  0  0  0
 20 21  1  0  0  0
 21 22  1  0  0  0
 22 23  1  0  0  0
 22 24  2  0  0  0
 24 25  1  0  0  0
 25 26  2  0  0  0
 26 27  1  0  0  0
 27 28  2  0  0  0
 28 29  1  0  0  0
 29 30  2  0  0  0
 30 31  1  0  0  0
 30 25  1  0  0  0
 31 32  2  0  0  0
 31 21  1  0  0  0
 11 12  2  0  0  0
 12  7  1  0  0  0
 16 17  1  0  0  0
  3  6  1  0  0  0
 23 33  1  0  0  0
M  END
>  <minimizedAffinity>
-9.57975

>  <minimizedRMSD>
1.11437

$$$$
CSC026474154 58023171 CSSS00026474154 MCULE-6222926157 MolPort-009-086-787 PubChem-47061825 Z735500832 ZINC000058023171 ZINC58023171


 27 30  0  0  0  0  0  0  0  0999 V2000
   16.8518   -9.3440   15.3519 C   0  0  0  0  0  0  0  0  0  0  0  0
   17.4316  -10.2670   16.2345 C   0  0  0  0  0  0  0  0  0  0  0  0
   18.1630  -11.3521   15.7431 C   0  0  0  0  0  0  0  0  0  0  0  0
   18.3186  -11.5234   14.3651 C   0  0  0  0  0  0  0  0  0  0  0  0
   17.7376  -10.6130   13.4775 C   0  0  0  0  0  0  0  0  0  0  0  0
   17.0132   -9.5229   13.9699 C   0  0  0  0  0  0  0  0  0  0  0  0
   16.2420   -7.0530   15.3621 O   0  0  0  0  0  0  0  0  0  0  0  0
   16.0863   -8.1972   15.8706 C   0  0  0  0  0  0  0  0  0  0  0  0
   15.1633   -8.3809   16.9494 N   0  0  0  0  0  0  0  0  0  0  0  0
   15.0314   -9.2887   17.3070 H   0  0  0  0  0  0  0  0  0  0  0  0
   14.4111   -7.2834   17.5407 C   0  0  0  0  0  0  0  0  0  0  0  0
   14.2796   -7.4827   19.0121 C   0  0  0  0  0  0  0  0  0  0  0  0
   13.0906   -7.6524   19.6846 C   0  0  0  0  0  0  0  0  0  0  0  0
   13.4560   -7.7858   21.0130 C   0  0  0  0  0  0  0  0  0  0  0  0
   14.8368   -7.6870   21.0567 C   0  0  0  0  0  0  0  0  0  0  0  0
   15.2913   -7.5055   19.8404 O   0  0  0  0  0  0  0  0  0  0  0  0
   17.9265  -10.7791   12.0119 C   0  0  0  0  0  0  0  0  0  0  0  0
   16.8225  -10.2131   11.3217 O   0  0  0  0  0  0  0  0  0  0  0  0
   16.8979   -9.9141    9.9778 N   0  0  0  0  0  0  0  0  0  0  0  0
   16.1060  -10.4055    9.0295 N   0  0  0  0  0  0  0  0  0  0  0  0
   16.4441   -9.9140    7.8367 N   0  0  0  0  0  0  0  0  0  0  0  0
   17.4848   -9.0882    8.0629 C   0  0  0  0  0  0  0  0  0  0  0  0
   18.2084   -8.3255    7.1517 C   0  0  0  0  0  0  0  0  0  0  0  0
   19.2602   -7.5414    7.6677 C   0  0  0  0  0  0  0  0  0  0  0  0
   19.5514   -7.5435    9.0538 C   0  0  0  0  0  0  0  0  0  0  0  0
   18.7959   -8.3295    9.9464 C   0  0  0  0  0  0  0  0  0  0  0  0
   17.7685   -9.0870    9.3934 C   0  0  0  0  0  0  0  0  0  0  0  0
  7  8  2  0  0  0
  8  9  1  0  0  0
  8  1  1  0  0  0
  9 11  1  0  0  0
 11 12  1  0  0  0
 12 13  2  0  0  0
 13 14  1  0  0  0
 14 15  2  0  0  0
 15 16  1  0  0  0
 16 12  1  0  0  0
  1  2  2  0  0  0
  2  3  1  0  0  0
  3  4  2  0  0  0
  4  5  1  0  0  0
  5 17  1  0  0  0
  5  6  2  0  0  0
 17 18  1  0  0  0
 18 19  1  0  0  0
 19 20  1  0  0  0
 20 21  2  0  0  0
 21 22  1  0  0  0
 22 23  2  0  0  0
 23 24  1  0  0  0
 24 25  2  0  0  0
 25 26  1  0  0  0
 26 27  2  0  0  0
 27 19  1  0  0  0
 27 22  1  0  0  0
  6  1  1  0  0  0
  9 10  1  0  0  0
M  END
>  <minimizedAffinity>
-9.56872

>  <minimizedRMSD>
2.12323

$$$$
CSC025824068 48448647 CSSS00025824068 MCULE-4214970103 MolPort-009-040-572 PubChem-47027868 Z371811930 ZINC000048448647 ZINC48448647


 22 24  0  0  0  0  0  0  0  0999 V2000
   16.4819   -8.7805   16.0698 C   0  0  0  0  0  0  0  0  0  0  0  0
   17.7588   -9.2490   16.4120 C   0  0  0  0  0  0  0  0  0  0  0  0
   18.5671   -9.8645   15.4516 C   0  0  0  0  0  0  0  0  0  0  0  0
   18.1034  -10.0177   14.1423 C   0  0  0  0  0  0  0  0  0  0  0  0
   16.8288   -9.5612   13.7941 C   0  0  0  0  0  0  0  0  0  0  0  0
   16.0242   -8.9379   14.7532 C   0  0  0  0  0  0  0  0  0  0  0  0
   15.9831   -8.1799   18.4610 N   0  0  0  0  0  0  0  0  0  0  0  0
   15.6321   -8.1280   17.0811 C   0  0  0  0  0  0  0  0  0  0  0  0
   14.5858   -7.5174   16.7350 O   0  0  0  0  0  0  0  0  0  0  0  0
   15.4105   -7.7416   19.1314 H   0  0  0  0  0  0  0  0  0  0  0  0
   16.7981   -8.6540   18.7441 H   0  0  0  0  0  0  0  0  0  0  0  0
   16.3457   -9.6993   12.3945 C   0  0  0  0  0  0  0  0  0  0  0  0
   17.4115   -9.4376   11.4940 O   0  0  0  0  0  0  0  0  0  0  0  0
   17.2232   -9.4937   10.1292 N   0  0  0  0  0  0  0  0  0  0  0  0
   16.3077  -10.2272    9.5033 N   0  0  0  0  0  0  0  0  0  0  0  0
   16.3920  -10.0540    8.1836 N   0  0  0  0  0  0  0  0  0  0  0  0
   17.3993   -9.1793    7.9929 C   0  0  0  0  0  0  0  0  0  0  0  0
   17.8947   -8.6647    6.7990 C   0  0  0  0  0  0  0  0  0  0  0  0
   18.9680   -7.7554    6.8919 C   0  0  0  0  0  0  0  0  0  0  0  0
   19.5038   -7.3947    8.1523 C   0  0  0  0  0  0  0  0  0  0  0  0
   18.9753   -7.9373    9.3406 C   0  0  0  0  0  0  0  0  0  0  0  0
   17.9174   -8.8299    9.2013 C   0  0  0  0  0  0  0  0  0  0  0  0
  7  8  1  0  0  0
  8  9  2  0  0  0
  8  1  1  0  0  0
  1  2  2  0  0  0
  2  3  1  0  0  0
  3  4  2  0  0  0
  4  5  1  0  0  0
  5 12  1  0  0  0
  5  6  2  0  0  0
 12 13  1  0  0  0
 13 14  1  0  0  0
 14 15  1  0  0  0
 15 16  2  0  0  0
 16 17  1  0  0  0
 17 18  2  0  0  0
 18 19  1  0  0  0
 19 20  2  0  0  0
 20 21  1  0  0  0
 21 22  2  0  0  0
 22 14  1  0  0  0
 22 17  1  0  0  0
  6  1  1  0  0  0
  7 10  1  0  0  0
  7 11  1  0  0  0
M  END
>  <minimizedAffinity>
-9.55588

>  <minimizedRMSD>
0.71151

$$$$
CSC027467419 26775235 CSSS00027467419 MCULE-2461327276 MolPort-020-098-855 PubChem-34059318 Z354368618 ZINC000026775235 ZINC26775235


 27 30  0  0  0  0  0  0  0  0999 V2000
   17.0377   -9.8093   16.6496 C   0  0  0  0  0  0  0  0  0  0  0  0
   17.2630  -11.1397   17.0201 C   0  0  0  0  0  0  0  0  0  0  0  0
   17.8396  -12.0383   16.1174 C   0  0  0  0  0  0  0  0  0  0  0  0
   18.1956  -11.6099   14.8359 C   0  0  0  0  0  0  0  0  0  0  0  0
   17.9795  -10.2812   14.4582 C   0  0  0  0  0  0  0  0  0  0  0  0
   17.3957   -9.3861   15.3603 C   0  0  0  0  0  0  0  0  0  0  0  0
   14.8846   -7.8580   16.1984 O   0  0  0  0  0  0  0  0  0  0  0  0
   15.3539   -8.0081   17.3592 C   0  0  0  0  0  0  0  0  0  0  0  0
   16.4358   -8.9205   17.6004 N   0  0  0  0  0  0  0  0  0  0  0  0
   16.8027   -8.9378   18.5138 H   0  0  0  0  0  0  0  0  0  0  0  0
   14.8392   -7.1551   18.4831 C   0  0  0  0  0  0  0  0  0  0  0  0
   13.3207   -7.0956   18.4769 C   0  0  0  0  0  0  0  0  0  0  0  0
   13.2780   -7.8712   19.7773 C   0  0  0  0  0  0  0  0  0  0  0  0
   14.7914   -7.9352   19.7859 C   0  0  0  0  0  0  0  0  0  0  0  0
   18.3348   -9.8293   13.0862 C   0  0  0  0  0  0  0  0  0  0  0  0
   17.1846   -9.9740   12.2081 N   0  0  0  0  0  0  0  0  0  0  0  0
   16.3300  -10.2805   12.5886 H   0  0  0  0  0  0  0  0  0  0  0  0
   17.2556   -9.6856   10.8123 C   0  0  0  0  0  0  0  0  0  0  0  0
   16.3387  -10.2742    9.9361 C   0  0  0  0  0  0  0  0  0  0  0  0
   16.4055   -9.9995    8.6058 N   0  0  0  0  0  0  0  0  0  0  0  0
   17.3519   -9.1595    8.1119 C   0  0  0  0  0  0  0  0  0  0  0  0
   17.4136   -8.8826    6.7437 C   0  0  0  0  0  0  0  0  0  0  0  0
   18.3955   -8.0150    6.2535 C   0  0  0  0  0  0  0  0  0  0  0  0
   19.3145   -7.4246    7.1292 C   0  0  0  0  0  0  0  0  0  0  0  0
   19.2566   -7.6988    8.4998 C   0  0  0  0  0  0  0  0  0  0  0  0
   18.2778   -8.5648    8.9940 C   0  0  0  0  0  0  0  0  0  0  0  0
   18.2064   -8.8426   10.3215 N   0  0  0  0  0  0  0  0  0  0  0  0
  7  8  2  0  0  0
  8  9  1  0  0  0
  8 11  1  0  0  0
  9  1  1  0  0  0
  1  2  2  0  0  0
  2  3  1  0  0  0
  3  4  2  0  0  0
  4  5  1  0  0  0
  5 15  1  0  0  0
  5  6  2  0  0  0
 15 16  1  0  0  0
 16 18  1  0  0  0
 18 19  2  0  0  0
 19 20  1  0  0  0
 20 21  2  0  0  0
 21 22  1  0  0  0
 22 23  2  0  0  0
 23 24  1  0  0  0
 24 25  2  0  0  0
 25 26  1  0  0  0
 26 27  2  0  0  0
 26 21  1  0  0  0
 27 18  1  0  0  0
  6  1  1  0  0  0
 11 12  1  0  0  0
 12 13  1  0  0  0
 13 14  1  0  0  0
 14 11  1  0  0  0
  9 10  1  0  0  0
 16 17  1  0  0  0
M  END
>  <minimizedAffinity>
-9.55204

>  <minimizedRMSD>
0.77440

$$$$
CSC027731648 32744858 CSSS00027731648 MCULE-9001442174 MolPort-005-691-989 PubChem-39968154 Z18262741 ZINC000032744858 ZINC32744858


 26 28  0  0  0  0  0  0  0  0999 V2000
   17.9749  -10.8260   13.2390 C   0  0  0  0  0  0  0  0  0  0  0  0
   18.1997  -12.0676   13.2020 O   0  0  0  0  0  0  0  0  0  0  0  0
   16.5277   -9.0049   16.8385 C   0  0  0  0  0  0  0  0  0  0  0  0
   16.3662   -8.3628   15.6018 C   0  0  0  0  0  0  0  0  0  0  0  0
   16.8388   -8.9582   14.4291 C   0  0  0  0  0  0  0  0  0  0  0  0
   17.4791  -10.2031   14.4767 C   0  0  0  0  0  0  0  0  0  0  0  0
   17.6404  -10.8447   15.7127 C   0  0  0  0  0  0  0  0  0  0  0  0
   17.1671  -10.2479   16.8847 C   0  0  0  0  0  0  0  0  0  0  0  0
   14.5238   -7.1409   19.5946 C   0  0  0  0  0  0  0  0  0  0  0  0
   14.8538   -7.6671   18.2448 C   0  0  0  0  0  0  0  0  0  0  0  0
   14.0720   -7.4377   17.2849 O   0  0  0  0  0  0  0  0  0  0  0  0
   16.0562   -8.4255   18.0627 N   0  0  0  0  0  0  0  0  0  0  0  0
   16.6164   -8.5629   18.8605 H   0  0  0  0  0  0  0  0  0  0  0  0
   18.1943  -10.0371   12.1077 O   0  0  0  0  0  0  0  0  0  0  0  0
   17.1598   -9.2625   11.5197 C   0  0  0  0  0  0  0  0  0  0  0  0
   17.3835   -9.1660   10.0479 C   0  0  0  0  0  0  0  0  0  0  0  0
   16.5136   -9.7827    9.1289 C   0  0  0  0  0  0  0  0  0  0  0  0
   15.3439  -10.5888    9.5827 C   0  0  0  0  0  0  0  0  0  0  0  0
   16.7430   -9.6427    7.7957 N   0  0  0  0  0  0  0  0  0  0  0  0
   17.7919   -8.9145    7.3343 C   0  0  0  0  0  0  0  0  0  0  0  0
   18.0150   -8.7791    5.9617 C   0  0  0  0  0  0  0  0  0  0  0  0
   19.0991   -8.0220    5.5047 C   0  0  0  0  0  0  0  0  0  0  0  0
   19.9587   -7.4007    6.4182 C   0  0  0  0  0  0  0  0  0  0  0  0
   19.7389   -7.5336    7.7935 C   0  0  0  0  0  0  0  0  0  0  0  0
   18.6577   -8.2896    8.2541 C   0  0  0  0  0  0  0  0  0  0  0  0
   18.4289   -8.4288    9.5851 N   0  0  0  0  0  0  0  0  0  0  0  0
  9 10  1  0  0  0
 10 11  2  0  0  0
 10 12  1  0  0  0
 12  3  1  0  0  0
  3  4  2  0  0  0
  4  5  1  0  0  0
  5  6  2  0  0  0
  6  7  1  0  0  0
  6  1  1  0  0  0
  7  8  2  0  0  0
  8  3  1  0  0  0
  1  2  2  0  0  0
  1 14  1  0  0  0
 14 15  1  0  0  0
 15 16  1  0  0  0
 16 17  2  0  0  0
 17 18  1  0  0  0
 17 19  1  0  0  0
 19 20  2  0  0  0
 20 21  1  0  0  0
 21 22  2  0  0  0
 22 23  1  0  0  0
 23 24  2  0  0  0
 24 25  1  0  0  0
 25 26  2  0  0  0
 25 20  1  0  0  0
 26 16  1  0  0  0
 12 13  1  0  0  0
M  END
>  <minimizedAffinity>
-9.53838

>  <minimizedRMSD>
1.06197

$$$$
CSC026291997 CHEMBL4905782 CSSS00026291997 MCULE-8017930840 MolPort-027-922-155 Z1518022590 ZINC000095440179


 27 31  0  0  0  0  0  0  0  0999 V2000
   16.8252   -9.8222   14.1464 C   0  0  0  0  0  0  0  0  0  0  0  0
   16.1151   -9.0306   15.0614 C   0  0  0  0  0  0  0  0  0  0  0  0
   16.2901   -9.2068   16.4405 C   0  0  0  0  0  0  0  0  0  0  0  0
   17.1838  -10.1830   16.9009 C   0  0  0  0  0  0  0  0  0  0  0  0
   17.8933  -10.9736   15.9928 C   0  0  0  0  0  0  0  0  0  0  0  0
   17.7135  -10.7929   14.6188 C   0  0  0  0  0  0  0  0  0  0  0  0
   15.5420   -8.3741   17.3953 C   0  0  0  0  0  0  0  0  0  0  0  0
   15.9444   -8.1376   18.6588 N   0  0  0  0  0  0  0  0  0  0  0  0
   15.0275   -7.3621   19.2097 N   0  0  0  0  0  0  0  0  0  0  0  0
   14.0953   -7.1394   18.2649 C   0  0  0  0  0  0  0  0  0  0  0  0
   14.3727   -7.7678   17.1052 N   0  0  0  0  0  0  0  0  0  0  0  0
   16.7627   -8.4769   19.0884 H   0  0  0  0  0  0  0  0  0  0  0  0
   12.8550   -6.3406   18.4984 C   0  0  0  0  0  0  0  0  0  0  0  0
   11.6765   -7.0122   17.8181 C   0  0  0  0  0  0  0  0  0  0  0  0
   11.8636   -7.1523   19.3117 C   0  0  0  0  0  0  0  0  0  0  0  0
   16.6580   -9.6555   12.7370 N   0  0  0  0  0  0  0  0  0  0  0  0
   15.7674   -9.4143   12.3938 H   0  0  0  0  0  0  0  0  0  0  0  0
   17.7466   -9.8268   11.7871 C   0  0  0  0  0  0  0  0  0  0  0  0
   17.2400   -9.6140   10.4017 C   0  0  0  0  0  0  0  0  0  0  0  0
   17.8403   -8.8738    9.4610 N   0  0  0  0  0  0  0  0  0  0  0  0
   17.0826   -9.0022    8.3659 C   0  0  0  0  0  0  0  0  0  0  0  0
   17.4348   -8.3489    7.1898 C   0  0  0  0  0  0  0  0  0  0  0  0
   18.5671   -7.5859    7.2021 N   0  0  0  0  0  0  0  0  0  0  0  0
   19.3404   -7.4592    8.3244 C   0  0  0  0  0  0  0  0  0  0  0  0
   18.9704   -8.1256    9.5022 C   0  0  0  0  0  0  0  0  0  0  0  0
   16.0140   -9.8028    8.5478 N   0  0  0  0  0  0  0  0  0  0  0  0
   16.1135  -10.2002    9.8430 C   0  0  0  0  0  0  0  0  0  0  0  0
 18 19  1  0  0  0
 19 20  1  0  0  0
 20 21  1  0  0  0
 21 22  1  0  0  0
 22 23  2  0  0  0
 23 24  1  0  0  0
 24 25  2  0  0  0
 21 26  2  0  0  0
 26 27  1  0  0  0
 18 16  1  0  0  0
 16  1  1  0  0  0
  1  2  2  0  0  0
  2  3  1  0  0  0
  3  7  1  0  0  0
  7  8  1  0  0  0
  8  9  1  0  0  0
  9 10  2  0  0  0
 10 13  1  0  0  0
 13 14  1  0  0  0
 14 15  1  0  0  0
 10 11  1  0  0  0
  3  4  2  0  0  0
  4  5  1  0  0  0
  5  6  2  0  0  0
 27 19  2  0  0  0
  6  1  1  0  0  0
 25 20  1  0  0  0
 11  7  2  0  0  0
 15 13  1  0  0  0
 16 17  1  0  0  0
  8 12  1  0  0  0
M  END
>  <minimizedAffinity>
-9.47125

>  <minimizedRMSD>
1.44789

$$$$
CSC026272164 9670400 CSSS00026272164 MCULE-6168634010 MolPort-004-151-603 PubChem-135670645 Z26925307 ZINC000009670400 ZINC09670400


 32 34  0  0  0  0  0  0  0  0999 V2000
   17.0217   -9.5786   16.2583 N   0  0  0  0  0  0  0  0  0  0  0  0
   17.0182  -10.9895   16.6139 C   0  0  0  0  0  0  0  0  0  0  0  0
   16.7811   -9.1557   14.9063 C   0  0  0  0  0  0  0  0  0  0  0  0
   16.7603   -7.9281   14.6213 O   0  0  0  0  0  0  0  0  0  0  0  0
   17.2217   -8.5990   17.3179 C   0  0  0  0  0  0  0  0  0  0  0  0
   15.6726   -7.8586   19.1670 N   0  0  0  0  0  0  0  0  0  0  0  0
   15.9109   -8.0501   17.7666 C   0  0  0  0  0  0  0  0  0  0  0  0
   15.0245   -7.7913   16.9103 O   0  0  0  0  0  0  0  0  0  0  0  0
   16.4130   -8.0862   19.7747 H   0  0  0  0  0  0  0  0  0  0  0  0
   14.5343   -6.7974   21.0592 C   0  0  0  0  0  0  0  0  0  0  0  0
   13.3613   -6.3165   21.6658 C   0  0  0  0  0  0  0  0  0  0  0  0
   12.1348   -6.4041   21.0045 C   0  0  0  0  0  0  0  0  0  0  0  0
   12.0693   -6.9730   19.7321 C   0  0  0  0  0  0  0  0  0  0  0  0
   10.5335   -7.0853   18.9009 Cl  0  0  0  0  0  0  0  0  0  0  0  0
   13.2297   -7.4531   19.1221 C   0  0  0  0  0  0  0  0  0  0  0  0
   14.4682   -7.3700   19.7773 C   0  0  0  0  0  0  0  0  0  0  0  0
   15.9185   -6.1725   23.0156 C   0  0  0  0  0  0  0  0  0  0  0  0
   15.7702   -6.7168   21.7113 O   0  0  0  0  0  0  0  0  0  0  0  0
   16.5857  -10.1534   13.8075 C   0  0  0  0  0  0  0  0  0  0  0  0
   17.8587  -10.3177   12.9876 C   0  0  0  0  0  0  0  0  0  0  0  0
   17.6515   -9.8882   11.5737 C   0  0  0  0  0  0  0  0  0  0  0  0
   18.5790   -9.1020   10.9669 N   0  0  0  0  0  0  0  0  0  0  0  0
   18.4142   -8.6943    9.6828 C   0  0  0  0  0  0  0  0  0  0  0  0
   19.3767   -7.8830    9.0753 C   0  0  0  0  0  0  0  0  0  0  0  0
   19.2035   -7.4635    7.7526 C   0  0  0  0  0  0  0  0  0  0  0  0
   18.0685   -7.8537    7.0343 C   0  0  0  0  0  0  0  0  0  0  0  0
   17.1016   -8.6654    7.6353 C   0  0  0  0  0  0  0  0  0  0  0  0
   17.2689   -9.0898    8.9610 C   0  0  0  0  0  0  0  0  0  0  0  0
   16.3291   -9.9043    9.6065 C   0  0  0  0  0  0  0  0  0  0  0  0
   15.2887  -10.2893    9.0085 O   0  0  0  0  0  0  0  0  0  0  0  0
   16.5415  -10.2844   10.8938 N   0  0  0  0  0  0  0  0  0  0  0  0
   15.8793  -10.8577   11.3433 H   0  0  0  0  0  0  0  0  0  0  0  0
 17 18  1  0  0  0
 18 10  1  0  0  0
 10 11  2  0  0  0
 11 12  1  0  0  0
 12 13  2  0  0  0
 13 14  1  0  0  0
 13 15  1  0  0  0
 15 16  2  0  0  0
 16  6  1  0  0  0
 16 10  1  0  0  0
  6  7  1  0  0  0
  7  8  2  0  0  0
  7  5  1  0  0  0
  5  1  1  0  0  0
  1  2  1  0  0  0
  1  3  1  0  0  0
  3  4  2  0  0  0
  3 19  1  0  0  0
 19 20  1  0  0  0
 20 21  1  0  0  0
 21 22  2  0  0  0
 22 23  1  0  0  0
 23 24  2  0  0  0
 24 25  1  0  0  0
 25 26  2  0  0  0
 26 27  1  0  0  0
 27 28  2  0  0  0
 28 29  1  0  0  0
 28 23  1  0  0  0
 29 30  2  0  0  0
 29 31  1  0  0  0
 31 21  1  0  0  0
  6  9  1  0  0  0
 31 32  1  0  0  0
M  END
>  <minimizedAffinity>
-9.46262

>  <minimizedRMSD>
1.66569

$$$$
CSC026533858 79180069 CSSS00026533858 MCULE-9851587991 MolPort-027-693-201 PubChem-71890042 Z739688860 ZINC000079180069 ZINC79180069


 26 28  0  0  0  0  0  0  0  0999 V2000
   17.9213  -10.1754   12.3848 N   0  0  0  0  0  0  0  0  0  0  0  0
   18.6624  -10.4922   11.8194 H   0  0  0  0  0  0  0  0  0  0  0  0
   17.2087  -10.2761   16.0656 C   0  0  0  0  0  0  0  0  0  0  0  0
   17.7567  -11.5215   16.3903 C   0  0  0  0  0  0  0  0  0  0  0  0
   18.3519  -12.3118   15.4030 C   0  0  0  0  0  0  0  0  0  0  0  0
   18.4027  -11.8599   14.0817 C   0  0  0  0  0  0  0  0  0  0  0  0
   17.8597  -10.6175   13.7422 C   0  0  0  0  0  0  0  0  0  0  0  0
   17.2635   -9.8288   14.7370 C   0  0  0  0  0  0  0  0  0  0  0  0
   15.8477   -8.2887   16.9448 C   0  0  0  0  0  0  0  0  0  0  0  0
   15.6438   -7.8004   15.7994 O   0  0  0  0  0  0  0  0  0  0  0  0
   16.6061   -9.4942   17.1061 N   0  0  0  0  0  0  0  0  0  0  0  0
   16.7259   -9.8196   18.0275 H   0  0  0  0  0  0  0  0  0  0  0  0
   13.9503   -7.3807   18.2216 C   0  0  0  0  0  0  0  0  0  0  0  0
   15.3351   -7.6593   18.0790 O   0  0  0  0  0  0  0  0  0  0  0  0
   16.9358   -9.2769   11.8019 C   0  0  0  0  0  0  0  0  0  0  0  0
   17.1770   -9.1475   10.3359 C   0  0  0  0  0  0  0  0  0  0  0  0
   16.3254   -9.7513    9.3926 C   0  0  0  0  0  0  0  0  0  0  0  0
   14.9114  -10.6663    9.8932 Cl  0  0  0  0  0  0  0  0  0  0  0  0
   16.5906   -9.6298    8.0629 N   0  0  0  0  0  0  0  0  0  0  0  0
   17.6692   -8.9388    7.6086 C   0  0  0  0  0  0  0  0  0  0  0  0
   17.9116   -8.8343    6.2361 C   0  0  0  0  0  0  0  0  0  0  0  0
   19.0253   -8.1234    5.7763 C   0  0  0  0  0  0  0  0  0  0  0  0
   19.8979   -7.5167    6.6868 C   0  0  0  0  0  0  0  0  0  0  0  0
   19.6610   -7.6176    8.0616 C   0  0  0  0  0  0  0  0  0  0  0  0
   18.5495   -8.3261    8.5252 C   0  0  0  0  0  0  0  0  0  0  0  0
   18.2958   -8.4388    9.8909 C   0  0  0  0  0  0  0  0  0  0  0  0
 13 14  1  0  0  0
 14  9  1  0  0  0
  9 10  2  0  0  0
  9 11  1  0  0  0
 11  3  1  0  0  0
  3  4  2  0  0  0
  4  5  1  0  0  0
  5  6  2  0  0  0
  6  7  1  0  0  0
  7  1  1  0  0  0
  7  8  2  0  0  0
  1 15  1  0  0  0
 15 16  1  0  0  0
 16 17  2  0  0  0
 17 18  1  0  0  0
 17 19  1  0  0  0
 19 20  2  0  0  0
 20 21  1  0  0  0
 21 22  2  0  0  0
 22 23  1  0  0  0
 23 24  2  0  0  0
 24 25  1  0  0  0
 25 26  2  0  0  0
 25 20  1  0  0  0
 26 16  1  0  0  0
  8  3  1  0  0  0
 11 12  1  0  0  0
  1  2  1  0  0  0
M  END
>  <minimizedAffinity>
-9.45208

>  <minimizedRMSD>
0.94988

$$$$
9293325 CSSS00160789429 LN00728654 MolPort-002-634-116 PubChem-9614522 ZINC000009293325


 38 43  0  0  0  0  0  0  0  0999 V2000
   16.4877   -9.2015   16.4760 N   0  0  0  0  0  0  0  0  0  0  0  0
   15.7764   -8.7850   15.4016 C   0  0  0  0  0  0  0  0  0  0  0  0
   16.0598   -9.6222   14.3225 C   0  0  0  0  0  0  0  0  0  0  0  0
   16.9575  -10.5652   14.7774 C   0  0  0  0  0  0  0  0  0  0  0  0
   17.5634  -11.6418   14.1314 C   0  0  0  0  0  0  0  0  0  0  0  0
   18.4405  -12.4419   14.8866 C   0  0  0  0  0  0  0  0  0  0  0  0
   18.6857  -12.1527   16.2470 C   0  0  0  0  0  0  0  0  0  0  0  0
   18.0580  -11.0588   16.8704 C   0  0  0  0  0  0  0  0  0  0  0  0
   17.1945  -10.2818   16.0959 C   0  0  0  0  0  0  0  0  0  0  0  0
   15.5070   -9.5283   12.9684 C   0  0  0  0  0  0  0  0  0  0  0  0
   16.0318  -10.1906   11.9922 N   0  0  0  0  0  0  0  0  0  0  0  0
   15.4871  -10.0924   10.7073 N   0  0  0  0  0  0  0  0  0  0  0  0
   14.5318  -10.2867   10.5701 H   0  0  0  0  0  0  0  0  0  0  0  0
   16.2932   -9.7153    9.5929 C   0  0  0  0  0  0  0  0  0  0  0  0
   17.3182   -8.8212    9.7509 N   0  0  0  0  0  0  0  0  0  0  0  0
   18.0565   -8.5037    8.6623 C   0  0  0  0  0  0  0  0  0  0  0  0
   17.7865   -9.0582    7.4484 C   0  0  0  0  0  0  0  0  0  0  0  0
   16.7756   -9.9388    7.2857 N   0  0  0  0  0  0  0  0  0  0  0  0
   16.0384  -10.2589    8.3576 N   0  0  0  0  0  0  0  0  0  0  0  0
   18.6877   -8.5419    6.5658 C   0  0  0  0  0  0  0  0  0  0  0  0
   19.4698   -7.6824    7.3177 C   0  0  0  0  0  0  0  0  0  0  0  0
   19.0988   -7.6421    8.6236 N   0  0  0  0  0  0  0  0  0  0  0  0
   20.5074   -6.9618    6.7311 C   0  0  0  0  0  0  0  0  0  0  0  0
   20.7329   -7.1398    5.3531 C   0  0  0  0  0  0  0  0  0  0  0  0
   19.9283   -8.0210    4.5960 C   0  0  0  0  0  0  0  0  0  0  0  0
   18.8829   -8.7393    5.2031 C   0  0  0  0  0  0  0  0  0  0  0  0
   19.4906   -7.1171    9.3585 H   0  0  0  0  0  0  0  0  0  0  0  0
   16.4376   -8.6093   17.8051 C   0  0  0  0  0  0  0  0  0  0  0  0
   14.6718   -7.2779   16.9362 O   0  0  0  0  0  0  0  0  0  0  0  0
   15.2019   -7.7923   17.9563 C   0  0  0  0  0  0  0  0  0  0  0  0
   14.6233   -7.6335   19.2579 N   0  0  0  0  0  0  0  0  0  0  0  0
   15.1108   -8.0398   20.0106 H   0  0  0  0  0  0  0  0  0  0  0  0
   13.4074   -6.9437   19.5761 C   0  0  0  0  0  0  0  0  0  0  0  0
   13.3838   -6.1054   20.6961 C   0  0  0  0  0  0  0  0  0  0  0  0
   12.2155   -5.4195   21.0418 C   0  0  0  0  0  0  0  0  0  0  0  0
   11.0613   -5.5695   20.2678 C   0  0  0  0  0  0  0  0  0  0  0  0
   11.0758   -6.4058   19.1489 C   0  0  0  0  0  0  0  0  0  0  0  0
   12.2447   -7.0907   18.8039 C   0  0  0  0  0  0  0  0  0  0  0  0
 29 30  2  0  0  0
 30 28  1  0  0  0
 28  1  1  0  0  0
  1  2  1  0  0  0
  2  3  2  0  0  0
  3 10  1  0  0  0
 10 11  2  0  0  0
 11 12  1  0  0  0
 12 14  1  0  0  0
 14 15  2  0  0  0
 15 16  1  0  0  0
 16 17  2  0  0  0
 17 18  1  0  0  0
 18 19  2  0  0  0
 17 20  1  0  0  0
 20 21  2  0  0  0
 21 22  1  0  0  0
 21 23  1  0  0  0
 23 24  2  0  0  0
 24 25  1  0  0  0
 25 26  2  0  0  0
  3  4  1  0  0  0
  4  5  2  0  0  0
  5  6  1  0  0  0
  6  7  2  0  0  0
  7  8  1  0  0  0
  8  9  2  0  0  0
 30 31  1  0  0  0
 31 33  1  0  0  0
 33 34  2  0  0  0
 34 35  1  0  0  0
 35 36  2  0  0  0
 36 37  1  0  0  0
 37 38  2  0  0  0
  9  1  1  0  0  0
 38 33  1  0  0  0
 19 14  1  0  0  0
 26 20  1  0  0  0
  9  4  1  0  0  0
 22 16  1  0  0  0
 12 13  1  0  0  0
 22 27  1  0  0  0
 31 32  1  0  0  0
M  END
>  <minimizedAffinity>
-9.43293

>  <minimizedRMSD>
1.75774

$$$$
9302511 CSSS00132319394 MCULE-6158884822 MolPort-002-986-356 PubChem-135641749 ZINC000009302511 ZINC09302511


 35 38  0  0  0  0  0  0  0  0999 V2000
   17.6357  -11.2955   16.6062 C   0  0  0  0  0  0  0  0  0  0  0  0
   17.0239  -10.1288   15.9901 N   0  0  0  0  0  0  0  0  0  0  0  0
   16.5720   -9.0121   16.5860 C   0  0  0  0  0  0  0  0  0  0  0  0
   16.0542   -8.1519   15.6874 N   0  0  0  0  0  0  0  0  0  0  0  0
   16.1856   -8.7155   14.4936 N   0  0  0  0  0  0  0  0  0  0  0  0
   16.7748   -9.9112   14.6884 C   0  0  0  0  0  0  0  0  0  0  0  0
   16.5720   -8.7725   18.0596 C   0  0  0  0  0  0  0  0  0  0  0  0
   15.4185   -7.9104   18.4381 C   0  0  0  0  0  0  0  0  0  0  0  0
   14.6867   -7.4259   17.5348 O   0  0  0  0  0  0  0  0  0  0  0  0
   15.1433   -7.6761   19.8254 N   0  0  0  0  0  0  0  0  0  0  0  0
   15.7617   -8.0849   20.4732 H   0  0  0  0  0  0  0  0  0  0  0  0
   14.0605   -6.9079   20.3668 C   0  0  0  0  0  0  0  0  0  0  0  0
   14.2122   -6.3287   21.6307 C   0  0  0  0  0  0  0  0  0  0  0  0
   13.1814   -5.5678   22.1882 C   0  0  0  0  0  0  0  0  0  0  0  0
   11.9880   -5.3859   21.4850 C   0  0  0  0  0  0  0  0  0  0  0  0
   11.8126   -5.9748   20.2252 C   0  0  0  0  0  0  0  0  0  0  0  0
   12.8597   -6.7205   19.6659 C   0  0  0  0  0  0  0  0  0  0  0  0
   10.5522   -5.7366   19.4456 C   0  0  0  0  0  0  0  0  0  0  0  0
   10.7843   -4.7674   18.4876 F   0  0  0  0  0  0  0  0  0  0  0  0
   10.1441   -6.9020   18.8200 F   0  0  0  0  0  0  0  0  0  0  0  0
    9.5385   -5.3089   20.2855 F   0  0  0  0  0  0  0  0  0  0  0  0
   17.1683  -11.0552   13.3647 S   0  0  0  0  0  0  0  0  0  0  0  0
   18.4169   -9.9472   12.6367 C   0  0  0  0  0  0  0  0  0  0  0  0
   18.0607   -9.6026   11.2313 C   0  0  0  0  0  0  0  0  0  0  0  0
   18.8925   -8.8139   10.5014 N   0  0  0  0  0  0  0  0  0  0  0  0
   18.5883   -8.4762    9.2226 C   0  0  0  0  0  0  0  0  0  0  0  0
   19.4529   -7.6598    8.4880 C   0  0  0  0  0  0  0  0  0  0  0  0
   19.1359   -7.3123    7.1712 C   0  0  0  0  0  0  0  0  0  0  0  0
   17.9548   -7.7798    6.5855 C   0  0  0  0  0  0  0  0  0  0  0  0
   17.0852   -8.5969    7.3145 C   0  0  0  0  0  0  0  0  0  0  0  0
   17.3966   -8.9489    8.6352 C   0  0  0  0  0  0  0  0  0  0  0  0
   16.5577   -9.7647    9.4061 C   0  0  0  0  0  0  0  0  0  0  0  0
   15.4813  -10.2167    8.9311 O   0  0  0  0  0  0  0  0  0  0  0  0
   16.9080  -10.0722   10.6825 N   0  0  0  0  0  0  0  0  0  0  0  0
   16.3160  -10.6460   11.2206 H   0  0  0  0  0  0  0  0  0  0  0  0
  1  2  1  0  0  0
  2  3  1  0  0  0
  3  7  1  0  0  0
  3  4  2  0  0  0
  7  8  1  0  0  0
  8  9  2  0  0  0
  8 10  1  0  0  0
 10 12  1  0  0  0
 12 13  2  0  0  0
 13 14  1  0  0  0
 14 15  2  0  0  0
 15 16  1  0  0  0
 16 17  2  0  0  0
 16 18  1  0  0  0
 17 12  1  0  0  0
 18 19  1  0  0  0
 18 20  1  0  0  0
 18 21  1  0  0  0
  4  5  1  0  0  0
  5  6  2  0  0  0
  6 22  1  0  0  0
  6  2  1  0  0  0
 22 23  1  0  0  0
 23 24  1  0  0  0
 24 25  2  0  0  0
 25 26  1  0  0  0
 26 27  2  0  0  0
 27 28  1  0  0  0
 28 29  2  0  0  0
 29 30  1  0  0  0
 30 31  2  0  0  0
 31 32  1  0  0  0
 31 26  1  0  0  0
 32 33  2  0  0  0
 32 34  1  0  0  0
 34 24  1  0  0  0
 10 11  1  0  0  0
 34 35  1  0  0  0
M  END
>  <minimizedAffinity>
-9.40459

>  <minimizedRMSD>
2.07742

$$$$
624179502 CSSS00133086057 MCULE-6025197534 MolPort-046-441-486 PubChem-137980431 Z983467890


 26 28  0  0  0  0  0  0  0  0999 V2000
   16.9850   -9.6712   16.4650 C   0  0  0  0  0  0  0  0  0  0  0  0
   17.5243  -10.9087   16.8268 C   0  0  0  0  0  0  0  0  0  0  0  0
   18.0857  -11.7453   15.8592 C   0  0  0  0  0  0  0  0  0  0  0  0
   18.1137  -11.3526   14.5181 C   0  0  0  0  0  0  0  0  0  0  0  0
   18.7201  -12.2691   13.5114 C   0  0  0  0  0  0  0  0  0  0  0  0
   17.5750  -10.1109   14.1395 C   0  0  0  0  0  0  0  0  0  0  0  0
   17.0136   -9.2785   15.1194 C   0  0  0  0  0  0  0  0  0  0  0  0
   15.2171   -8.0576   17.3886 C   0  0  0  0  0  0  0  0  0  0  0  0
   14.5336   -8.0451   16.3308 O   0  0  0  0  0  0  0  0  0  0  0  0
   16.4174   -8.8399   17.4863 N   0  0  0  0  0  0  0  0  0  0  0  0
   16.9007   -8.8016   18.3432 H   0  0  0  0  0  0  0  0  0  0  0  0
   15.0940   -7.9443   19.8549 C   0  0  0  0  0  0  0  0  0  0  0  0
   14.7619   -7.2420   18.5527 C   0  0  0  0  0  0  0  0  0  0  0  0
   13.2693   -6.9876   18.4710 C   0  0  0  0  0  0  0  0  0  0  0  0
   17.6018   -9.7049   12.7664 N   0  0  0  0  0  0  0  0  0  0  0  0
   18.3757   -9.1887   12.4443 H   0  0  0  0  0  0  0  0  0  0  0  0
   16.5373  -10.0205   11.8256 C   0  0  0  0  0  0  0  0  0  0  0  0
   16.9303   -9.5849   10.4591 C   0  0  0  0  0  0  0  0  0  0  0  0
   18.0114   -8.7121   10.2725 C   0  0  0  0  0  0  0  0  0  0  0  0
   18.3314   -8.3746    9.0010 N   0  0  0  0  0  0  0  0  0  0  0  0
   19.3011   -7.5736    8.6110 N   0  0  0  0  0  0  0  0  0  0  0  0
   19.2500   -7.5309    7.2563 C   0  0  0  0  0  0  0  0  0  0  0  0
   18.2084   -8.3364    6.7770 C   0  0  0  0  0  0  0  0  0  0  0  0
   17.6711   -8.8387    7.9400 C   0  0  0  0  0  0  0  0  0  0  0  0
   16.6250   -9.6906    8.0718 N   0  0  0  0  0  0  0  0  0  0  0  0
   16.2472  -10.0728    9.3272 C   0  0  0  0  0  0  0  0  0  0  0  0
 12 13  1  0  0  0
 13 14  1  0  0  0
 13  8  1  0  0  0
  8  9  2  0  0  0
  8 10  1  0  0  0
 10  1  1  0  0  0
  1  2  2  0  0  0
  2  3  1  0  0  0
  3  4  2  0  0  0
  4  5  1  0  0  0
  4  6  1  0  0  0
  6 15  1  0  0  0
 15 17  1  0  0  0
 17 18  1  0  0  0
 18 19  2  0  0  0
 19 20  1  0  0  0
 20 21  1  0  0  0
 21 22  2  0  0  0
 22 23  1  0  0  0
 23 24  2  0  0  0
 24 25  1  0  0  0
 25 26  2  0  0  0
  6  7  2  0  0  0
  7  1  1  0  0  0
 26 18  1  0  0  0
 24 20  1  0  0  0
 10 11  1  0  0  0
 15 16  1  0  0  0
M  END
>  <minimizedAffinity>
-9.34436

>  <minimizedRMSD>
0.77804

$$$$
CSSS00426182369 Z1518022486


 28 32  0  0  0  0  0  0  0  0999 V2000
   17.5690   -9.9877   13.6048 C   0  0  0  0  0  0  0  0  0  0  0  0
   18.9087  -10.1347   13.9766 C   0  0  0  0  0  0  0  0  0  0  0  0
   19.3318   -9.7495   15.2516 C   0  0  0  0  0  0  0  0  0  0  0  0
   18.4151   -9.2150   16.1609 C   0  0  0  0  0  0  0  0  0  0  0  0
   17.0694   -9.0623   15.8009 C   0  0  0  0  0  0  0  0  0  0  0  0
   16.6520   -9.4505   14.5206 C   0  0  0  0  0  0  0  0  0  0  0  0
   16.1032   -8.4991   16.7568 C   0  0  0  0  0  0  0  0  0  0  0  0
   14.8996   -8.0042   16.4023 N   0  0  0  0  0  0  0  0  0  0  0  0
   14.4024   -7.6147   17.5928 C   0  0  0  0  0  0  0  0  0  0  0  0
   15.2421   -7.8709   18.6129 N   0  0  0  0  0  0  0  0  0  0  0  0
   16.3190   -8.4248   18.0842 N   0  0  0  0  0  0  0  0  0  0  0  0
   17.1228   -8.7249   18.5669 H   0  0  0  0  0  0  0  0  0  0  0  0
   13.0412   -7.0255   17.7691 C   0  0  0  0  0  0  0  0  0  0  0  0
   12.4176   -7.5463   19.0507 C   0  0  0  0  0  0  0  0  0  0  0  0
   13.0130   -6.1571   19.0133 C   0  0  0  0  0  0  0  0  0  0  0  0
   17.1599  -10.3874   12.2953 N   0  0  0  0  0  0  0  0  0  0  0  0
   17.6168  -11.1496   11.8717 H   0  0  0  0  0  0  0  0  0  0  0  0
   16.0978   -9.7172   11.5608 C   0  0  0  0  0  0  0  0  0  0  0  0
   18.4718   -8.8227    6.0056 C   0  0  0  0  0  0  0  0  0  0  0  0
   18.4410   -8.5665    7.4719 C   0  0  0  0  0  0  0  0  0  0  0  0
   19.3817   -7.7105    8.0663 C   0  0  0  0  0  0  0  0  0  0  0  0
   19.3530   -7.4719    9.4537 C   0  0  0  0  0  0  0  0  0  0  0  0
   18.3751   -8.0960   10.2416 C   0  0  0  0  0  0  0  0  0  0  0  0
   17.4856   -8.9137    9.6228 N   0  0  0  0  0  0  0  0  0  0  0  0
   16.4664   -9.6271   10.1194 C   0  0  0  0  0  0  0  0  0  0  0  0
   15.8672  -10.3192    9.0785 C   0  0  0  0  0  0  0  0  0  0  0  0
   16.5170  -10.0154    7.9258 N   0  0  0  0  0  0  0  0  0  0  0  0
   17.4904   -9.1609    8.3046 C   0  0  0  0  0  0  0  0  0  0  0  0
 19 20  1  0  0  0
 20 21  2  0  0  0
 21 22  1  0  0  0
 22 23  2  0  0  0
 23 24  1  0  0  0
 24 25  1  0  0  0
 25 18  1  0  0  0
 18 16  1  0  0  0
 16  1  1  0  0  0
  1  2  2  0  0  0
  2  3  1  0  0  0
  3  4  2  0  0  0
  4  5  1  0  0  0
  5  6  2  0  0  0
  5  7  1  0  0  0
  7  8  2  0  0  0
  8  9  1  0  0  0
  9 10  2  0  0  0
 10 11  1  0  0  0
  9 13  1  0  0  0
 13 14  1  0  0  0
 14 15  1  0  0  0
 25 26  2  0  0  0
 26 27  1  0  0  0
 27 28  2  0  0  0
 28 20  1  0  0  0
 28 24  1  0  0  0
  6  1  1  0  0  0
 11  7  1  0  0  0
 15 13  1  0  0  0
 16 17  1  0  0  0
 11 12  1  0  0  0
M  END
>  <minimizedAffinity>
-9.34171

>  <minimizedRMSD>
1.30915

$$$$
CSSS00105665461 MolPort-016-386-777 PubChem-55830396 Z647042398


 30 32  0  0  0  0  0  0  0  0999 V2000
   17.7401  -11.0653   12.7119 N   0  0  0  0  0  0  0  0  0  0  0  0
   16.7208  -10.3233   12.0380 C   0  0  0  0  0  0  0  0  0  0  0  0
   15.6454  -10.0436   12.6358 O   0  0  0  0  0  0  0  0  0  0  0  0
   18.5756  -11.2708   12.2333 H   0  0  0  0  0  0  0  0  0  0  0  0
   16.9270   -9.8846   10.6473 C   0  0  0  0  0  0  0  0  0  0  0  0
   16.0201  -10.2466    9.6413 C   0  0  0  0  0  0  0  0  0  0  0  0
   16.2140   -9.8398    8.3575 N   0  0  0  0  0  0  0  0  0  0  0  0
   17.2827   -9.0766    8.0070 C   0  0  0  0  0  0  0  0  0  0  0  0
   18.2197   -8.6886    8.9822 C   0  0  0  0  0  0  0  0  0  0  0  0
   18.0337   -9.0982   10.3063 C   0  0  0  0  0  0  0  0  0  0  0  0
   19.3083   -7.9033    8.5832 C   0  0  0  0  0  0  0  0  0  0  0  0
   20.1760   -7.5295    9.4171 O   0  0  0  0  0  0  0  0  0  0  0  0
   19.4301   -7.5402    7.2791 N   0  0  0  0  0  0  0  0  0  0  0  0
   18.5132   -7.9245    6.3513 C   0  0  0  0  0  0  0  0  0  0  0  0
   18.6500   -7.5730    5.1513 O   0  0  0  0  0  0  0  0  0  0  0  0
   17.4490   -8.6868    6.7170 N   0  0  0  0  0  0  0  0  0  0  0  0
   20.1966   -6.9885    7.0010 H   0  0  0  0  0  0  0  0  0  0  0  0
   16.7905   -8.9597    6.0381 H   0  0  0  0  0  0  0  0  0  0  0  0
   17.5819  -11.5261   14.0818 C   0  0  0  0  0  0  0  0  0  0  0  0
   16.9557   -8.7363   16.5721 C   0  0  0  0  0  0  0  0  0  0  0  0
   16.7447   -9.8160   15.7018 C   0  0  0  0  0  0  0  0  0  0  0  0
   17.8195  -10.3974   15.0213 C   0  0  0  0  0  0  0  0  0  0  0  0
   19.1115   -9.8930   15.1973 C   0  0  0  0  0  0  0  0  0  0  0  0
   19.3301   -8.8176   16.0624 C   0  0  0  0  0  0  0  0  0  0  0  0
   18.2564   -8.2421   16.7478 C   0  0  0  0  0  0  0  0  0  0  0  0
   14.7183   -7.5168   19.4753 C   0  0  0  0  0  0  0  0  0  0  0  0
   15.8140   -8.1026   18.7221 N   0  0  0  0  0  0  0  0  0  0  0  0
   15.8236   -8.1275   17.2924 C   0  0  0  0  0  0  0  0  0  0  0  0
   14.8615   -7.6272   16.6475 O   0  0  0  0  0  0  0  0  0  0  0  0
   16.5732   -8.4945   19.2112 H   0  0  0  0  0  0  0  0  0  0  0  0
 26 27  1  0  0  0
 27 28  1  0  0  0
 28 29  2  0  0  0
 28 20  1  0  0  0
 20 21  2  0  0  0
 21 22  1  0  0  0
 22 23  2  0  0  0
 22 19  1  0  0  0
 23 24  1  0  0  0
 24 25  2  0  0  0
 25 20  1  0  0  0
 19  1  1  0  0  0
  1  2  1  0  0  0
  2  3  2  0  0  0
  2  5  1  0  0  0
  5  6  2  0  0  0
  6  7  1  0  0  0
  7  8  2  0  0  0
  8  9  1  0  0  0
  9 10  2  0  0  0
  9 11  1  0  0  0
 10  5  1  0  0  0
 11 12  2  0  0  0
 11 13  1  0  0  0
 13 14  1  0  0  0
 14 15  2  0  0  0
 14 16  1  0  0  0
 16  8  1  0  0  0
 27 30  1  0  0  0
  1  4  1  0  0  0
 13 17  1  0  0  0
 16 18  1  0  0  0
M  END
>  <minimizedAffinity>
-9.33117

>  <minimizedRMSD>
1.48888

$$$$
997667 CSSS00121678869 LN01177943 MCULE-5687837140 MolPort-001-668-070 PubChem-1222091 ZINC000000997667


 34 38  0  0  0  0  0  0  0  0999 V2000
   17.3744   -9.8412   12.9047 C   0  0  0  0  0  0  0  0  0  0  0  0
   16.0413   -9.7118   12.7603 N   0  0  0  0  0  0  0  0  0  0  0  0
   15.5018   -9.9166   13.9547 N   0  0  0  0  0  0  0  0  0  0  0  0
   16.5161  -10.1732   14.8030 C   0  0  0  0  0  0  0  0  0  0  0  0
   17.7028  -10.1464   14.1728 N   0  0  0  0  0  0  0  0  0  0  0  0
   18.3451   -9.7160   11.7771 C   0  0  0  0  0  0  0  0  0  0  0  0
   17.6314   -9.5819   10.5165 N   0  0  0  0  0  0  0  0  0  0  0  0
   17.9899   -8.8631    9.4456 C   0  0  0  0  0  0  0  0  0  0  0  0
   19.0943   -8.0384    9.2463 C   0  0  0  0  0  0  0  0  0  0  0  0
   19.1968   -7.4085    7.9906 C   0  0  0  0  0  0  0  0  0  0  0  0
   18.2121   -7.6178    6.9951 C   0  0  0  0  0  0  0  0  0  0  0  0
   17.1092   -8.4605    7.2397 C   0  0  0  0  0  0  0  0  0  0  0  0
   17.0421   -9.0649    8.4910 C   0  0  0  0  0  0  0  0  0  0  0  0
   16.1079   -9.9055    8.9731 N   0  0  0  0  0  0  0  0  0  0  0  0
   16.4975  -10.2053   10.2125 N   0  0  0  0  0  0  0  0  0  0  0  0
   16.2926  -10.5103   16.5497 S   0  0  0  0  0  0  0  0  0  0  0  0
   16.6625   -8.7952   17.0358 C   0  0  0  0  0  0  0  0  0  0  0  0
   15.4050   -8.0199   17.2285 C   0  0  0  0  0  0  0  0  0  0  0  0
   14.8414   -7.5058   16.2267 O   0  0  0  0  0  0  0  0  0  0  0  0
   14.8652   -7.8646   18.5478 N   0  0  0  0  0  0  0  0  0  0  0  0
   15.3826   -8.2635   19.2843 H   0  0  0  0  0  0  0  0  0  0  0  0
   13.6492   -7.1885   18.9097 C   0  0  0  0  0  0  0  0  0  0  0  0
   12.6165   -7.0010   17.9776 C   0  0  0  0  0  0  0  0  0  0  0  0
   11.4363   -6.3468   18.3381 C   0  0  0  0  0  0  0  0  0  0  0  0
   11.2687   -5.8695   19.6387 C   0  0  0  0  0  0  0  0  0  0  0  0
   12.2815   -6.0454   20.5830 C   0  0  0  0  0  0  0  0  0  0  0  0
   12.1090   -5.5665   21.8847 C   0  0  0  0  0  0  0  0  0  0  0  0
   13.1189   -5.7402   22.8348 C   0  0  0  0  0  0  0  0  0  0  0  0
   14.3045   -6.3933   22.4872 C   0  0  0  0  0  0  0  0  0  0  0  0
   14.4856   -6.8754   21.1878 C   0  0  0  0  0  0  0  0  0  0  0  0
   13.4809   -6.7083   20.2231 C   0  0  0  0  0  0  0  0  0  0  0  0
   19.0285  -10.3408   14.7433 C   0  0  0  0  0  0  0  0  0  0  0  0
   19.2893   -9.3120   15.7910 C   0  0  0  0  0  0  0  0  0  0  0  0
   20.4229   -8.6195   15.7727 C   0  0  0  0  0  0  0  0  0  0  0  0
  1  6  1  0  0  0
  6  7  1  0  0  0
  7  8  1  0  0  0
  8  9  2  0  0  0
  9 10  1  0  0  0
 10 11  2  0  0  0
 11 12  1  0  0  0
 12 13  2  0  0  0
 13 14  1  0  0  0
 14 15  2  0  0  0
  1  2  2  0  0  0
  2  3  1  0  0  0
  3  4  2  0  0  0
  4 16  1  0  0  0
 16 17  1  0  0  0
 17 18  1  0  0  0
 18 19  2  0  0  0
 18 20  1  0  0  0
 20 22  1  0  0  0
 22 23  2  0  0  0
 23 24  1  0  0  0
 24 25  2  0  0  0
 25 26  1  0  0  0
 26 27  2  0  0  0
 27 28  1  0  0  0
 28 29  2  0  0  0
 29 30  1  0  0  0
 30 31  2  0  0  0
  4  5  1  0  0  0
  5 32  1  0  0  0
 32 33  1  0  0  0
 33 34  2  0  0  0
  5  1  1  0  0  0
 15  7  1  0  0  0
 31 22  1  0  0  0
 13  8  1  0  0  0
 31 26  1  0  0  0
 20 21  1  0  0  0
M  END
>  <minimizedAffinity>
-9.31395

>  <minimizedRMSD>
2.84724

$$$$
CSC026128031 30691564 CSSS00026128031 MCULE-8068693214 MolPort-009-043-380 PubChem-37832726 Z383528790 ZINC000030691564


 24 26  0  0  0  0  0  0  0  0999 V2000
   17.6944  -10.6651   12.5802 C   0  0  0  0  0  0  0  0  0  0  0  0
   16.6440  -10.1357   11.7624 N   0  0  0  0  0  0  0  0  0  0  0  0
   18.6952  -11.2185   12.0487 O   0  0  0  0  0  0  0  0  0  0  0  0
   15.7809   -9.9537   12.1998 H   0  0  0  0  0  0  0  0  0  0  0  0
   16.7423   -9.8484   10.3621 C   0  0  0  0  0  0  0  0  0  0  0  0
   17.6909   -9.0938    9.7784 N   0  0  0  0  0  0  0  0  0  0  0  0
   17.3102   -9.0534    8.4940 C   0  0  0  0  0  0  0  0  0  0  0  0
   18.0305   -8.3287    7.5487 C   0  0  0  0  0  0  0  0  0  0  0  0
   19.1651   -7.6352    8.0024 C   0  0  0  0  0  0  0  0  0  0  0  0
   19.5335   -7.6732    9.3621 C   0  0  0  0  0  0  0  0  0  0  0  0
   18.7624   -8.4192   10.2661 C   0  0  0  0  0  0  0  0  0  0  0  0
   16.1710   -9.7383    8.2828 N   0  0  0  0  0  0  0  0  0  0  0  0
   15.8084  -10.2308    9.4643 N   0  0  0  0  0  0  0  0  0  0  0  0
   16.7594   -9.5133   16.0630 C   0  0  0  0  0  0  0  0  0  0  0  0
   16.8745   -9.5715   14.6666 C   0  0  0  0  0  0  0  0  0  0  0  0
   17.5777  -10.6149   14.0479 C   0  0  0  0  0  0  0  0  0  0  0  0
   18.1706  -11.6065   14.8420 C   0  0  0  0  0  0  0  0  0  0  0  0
   18.0608  -11.5560   16.2338 C   0  0  0  0  0  0  0  0  0  0  0  0
   17.3576  -10.5133   16.8419 C   0  0  0  0  0  0  0  0  0  0  0  0
   16.0033   -8.2829   18.1228 N   0  0  0  0  0  0  0  0  0  0  0  0
   16.0180   -8.4131   16.7039 C   0  0  0  0  0  0  0  0  0  0  0  0
   15.3895   -7.5761   16.0028 O   0  0  0  0  0  0  0  0  0  0  0  0
   16.4905   -8.9306   18.6816 H   0  0  0  0  0  0  0  0  0  0  0  0
   15.5059   -7.5451   18.5442 H   0  0  0  0  0  0  0  0  0  0  0  0
 20 21  1  0  0  0
 21 14  1  0  0  0
 14 15  2  0  0  0
 15 16  1  0  0  0
 16  1  1  0  0  0
  1  2  1  0  0  0
  2  5  1  0  0  0
  5  6  1  0  0  0
  6  7  1  0  0  0
  7  8  1  0  0  0
  8  9  2  0  0  0
  9 10  1  0  0  0
 10 11  2  0  0  0
  7 12  2  0  0  0
 12 13  1  0  0  0
  1  3  2  0  0  0
 16 17  2  0  0  0
 17 18  1  0  0  0
 18 19  2  0  0  0
 21 22  2  0  0  0
 19 14  1  0  0  0
 13  5  2  0  0  0
 11  6  1  0  0  0
 20 23  1  0  0  0
 20 24  1  0  0  0
  2  4  1  0  0  0
M  END
>  <minimizedAffinity>
-9.28781

>  <minimizedRMSD>
0.72047

$$$$
CSSS03703272042


 32 35  0  0  0  0  0  0  0  0999 V2000
   17.0642  -10.1067   16.5729 C   0  0  0  0  0  0  0  0  0  0  0  0
   17.4193  -11.4318   16.8490 C   0  0  0  0  0  0  0  0  0  0  0  0
   18.1493  -12.1779   15.9190 C   0  0  0  0  0  0  0  0  0  0  0  0
   18.5310  -11.6008   14.7049 C   0  0  0  0  0  0  0  0  0  0  0  0
   18.1874  -10.2753   14.4230 C   0  0  0  0  0  0  0  0  0  0  0  0
   17.4507   -9.5334   15.3517 C   0  0  0  0  0  0  0  0  0  0  0  0
   15.4847   -8.2253   17.3180 C   0  0  0  0  0  0  0  0  0  0  0  0
   15.3574   -7.7505   16.1565 O   0  0  0  0  0  0  0  0  0  0  0  0
   16.3117   -9.3760   17.5507 N   0  0  0  0  0  0  0  0  0  0  0  0
   16.3680   -9.6971   18.4797 H   0  0  0  0  0  0  0  0  0  0  0  0
   15.2331   -7.0052   22.0353 F   0  0  0  0  0  0  0  0  0  0  0  0
   14.6770   -6.9979   20.8003 C   0  0  0  0  0  0  0  0  0  0  0  0
   13.4343   -6.3919   20.5973 C   0  0  0  0  0  0  0  0  0  0  0  0
   12.8607   -6.3845   19.3231 C   0  0  0  0  0  0  0  0  0  0  0  0
   13.5300   -6.9831   18.2517 C   0  0  0  0  0  0  0  0  0  0  0  0
   14.7781   -7.5939   18.4466 C   0  0  0  0  0  0  0  0  0  0  0  0
   15.3463   -7.5966   19.7290 C   0  0  0  0  0  0  0  0  0  0  0  0
   18.5720   -9.6665   13.1214 C   0  0  0  0  0  0  0  0  0  0  0  0
   17.4999   -9.8512   12.1564 N   0  0  0  0  0  0  0  0  0  0  0  0
   16.6498  -10.2453   12.4585 H   0  0  0  0  0  0  0  0  0  0  0  0
   17.6402   -9.4795   10.7856 C   0  0  0  0  0  0  0  0  0  0  0  0
   16.8277  -10.0604    9.8441 N   0  0  0  0  0  0  0  0  0  0  0  0
   16.9269   -9.7347    8.5219 C   0  0  0  0  0  0  0  0  0  0  0  0
   16.1753  -10.2751    7.6687 O   0  0  0  0  0  0  0  0  0  0  0  0
   17.8783   -8.7942    8.1563 C   0  0  0  0  0  0  0  0  0  0  0  0
   18.6703   -8.2322    9.0975 C   0  0  0  0  0  0  0  0  0  0  0  0
   19.5158   -7.3556    8.5425 N   0  0  0  0  0  0  0  0  0  0  0  0
   19.2576   -7.3615    7.2364 N   0  0  0  0  0  0  0  0  0  0  0  0
   18.2545   -8.2351    6.9562 C   0  0  0  0  0  0  0  0  0  0  0  0
   18.5763   -8.5514   10.4104 N   0  0  0  0  0  0  0  0  0  0  0  0
   20.1938   -6.8141    9.0075 H   0  0  0  0  0  0  0  0  0  0  0  0
   19.1644   -8.1283   11.0770 H   0  0  0  0  0  0  0  0  0  0  0  0
 11 12  1  0  0  0
 12 13  2  0  0  0
 13 14  1  0  0  0
 14 15  2  0  0  0
 15 16  1  0  0  0
 16 17  2  0  0  0
 16  7  1  0  0  0
  7  8  2  0  0  0
  7  9  1  0  0  0
  9  1  1  0  0  0
  1  2  2  0  0  0
  2  3  1  0  0  0
  3  4  2  0  0  0
  4  5  1  0  0  0
  5 18  1  0  0  0
 18 19  1  0  0  0
 19 21  1  0  0  0
 21 22  2  0  0  0
 22 23  1  0  0  0
 23 24  2  0  0  0
 23 25  1  0  0  0
 25 26  2  0  0  0
 26 27  1  0  0  0
 27 28  1  0  0  0
 28 29  2  0  0  0
 26 30  1  0  0  0
  5  6  2  0  0  0
 17 12  1  0  0  0
  6  1  1  0  0  0
 30 21  1  0  0  0
 29 25  1  0  0  0
  9 10  1  0  0  0
 19 20  1  0  0  0
 27 31  1  0  0  0
 30 32  1  0  0  0
M  END
>  <minimizedAffinity>
-9.21301

>  <minimizedRMSD>
0.93852

$$$$
CSC027015112 19357575 CSSS00027015112 MCULE-5199562348 MolPort-004-466-805 PubChem-24485071 Z98943530 ZINC000019357575


 31 34  0  0  0  0  0  0  0  0999 V2000
   17.9739  -10.9863   13.4807 C   0  0  0  0  0  0  0  0  0  0  0  0
   18.1424  -12.2372   13.4760 O   0  0  0  0  0  0  0  0  0  0  0  0
   17.4580  -10.3164   14.6853 C   0  0  0  0  0  0  0  0  0  0  0  0
   16.7970   -9.0862   14.5766 C   0  0  0  0  0  0  0  0  0  0  0  0
   16.3052   -8.4465   15.7176 C   0  0  0  0  0  0  0  0  0  0  0  0
   16.4682   -9.0288   16.9833 C   0  0  0  0  0  0  0  0  0  0  0  0
   17.1284  -10.2570   17.0907 C   0  0  0  0  0  0  0  0  0  0  0  0
   17.6207  -10.8980   15.9503 C   0  0  0  0  0  0  0  0  0  0  0  0
   15.9771   -8.4031   18.1765 N   0  0  0  0  0  0  0  0  0  0  0  0
   14.7737   -7.6329   18.3107 C   0  0  0  0  0  0  0  0  0  0  0  0
   14.0156   -7.4372   17.3236 O   0  0  0  0  0  0  0  0  0  0  0  0
   16.5226   -8.5135   18.9886 H   0  0  0  0  0  0  0  0  0  0  0  0
   14.4176   -7.0632   19.6142 C   0  0  0  0  0  0  0  0  0  0  0  0
   13.4270   -6.2283   19.7994 O   0  0  0  0  0  0  0  0  0  0  0  0
   13.3723   -5.9080   21.0696 C   0  0  0  0  0  0  0  0  0  0  0  0
   14.3820   -6.5707   21.7467 C   0  0  0  0  0  0  0  0  0  0  0  0
   15.0631   -7.3221   20.8049 C   0  0  0  0  0  0  0  0  0  0  0  0
   18.2751  -10.2313   12.3449 O   0  0  0  0  0  0  0  0  0  0  0  0
   17.3453   -9.3180   11.7814 C   0  0  0  0  0  0  0  0  0  0  0  0
   19.3861   -7.8639    4.0303 Cl  0  0  0  0  0  0  0  0  0  0  0  0
   19.1363   -8.0127    5.7559 C   0  0  0  0  0  0  0  0  0  0  0  0
   18.1515   -8.8678    6.2528 C   0  0  0  0  0  0  0  0  0  0  0  0
   17.9479   -8.9921    7.5983 N   0  0  0  0  0  0  0  0  0  0  0  0
   18.7173   -8.2704    8.4845 C   0  0  0  0  0  0  0  0  0  0  0  0
   18.5162   -8.3920    9.8220 N   0  0  0  0  0  0  0  0  0  0  0  0
   17.5655   -9.2254   10.3140 C   0  0  0  0  0  0  0  0  0  0  0  0
   16.7667   -9.9599    9.4428 C   0  0  0  0  0  0  0  0  0  0  0  0
   16.9756   -9.8326    8.0704 C   0  0  0  0  0  0  0  0  0  0  0  0
   16.2554  -10.5011    7.2788 O   0  0  0  0  0  0  0  0  0  0  0  0
   19.7099   -7.4054    8.0171 C   0  0  0  0  0  0  0  0  0  0  0  0
   19.9181   -7.2784    6.6449 C   0  0  0  0  0  0  0  0  0  0  0  0
 20 21  1  0  0  0
 21 22  2  0  0  0
 22 23  1  0  0  0
 23 24  1  0  0  0
 24 25  2  0  0  0
 25 26  1  0  0  0
 26 27  2  0  0  0
 27 28  1  0  0  0
 28 29  2  0  0  0
 26 19  1  0  0  0
 19 18  1  0  0  0
 18  1  1  0  0  0
  1  3  1  0  0  0
  3  4  2  0  0  0
  4  5  1  0  0  0
  5  6  2  0  0  0
  6  9  1  0  0  0
  9 10  1  0  0  0
 10 13  1  0  0  0
 13 14  1  0  0  0
 14 15  1  0  0  0
 15 16  2  0  0  0
 16 17  1  0  0  0
 10 11  2  0  0  0
  6  7  1  0  0  0
  7  8  2  0  0  0
  1  2  2  0  0  0
 24 30  1  0  0  0
 30 31  2  0  0  0
 31 21  1  0  0  0
 28 23  1  0  0  0
  8  3  1  0  0  0
 17 13  2  0  0  0
  9 12  1  0  0  0
M  END
>  <minimizedAffinity>
-9.18529

>  <minimizedRMSD>
0.99764

$$$$
CSC026670286 26141925 CSSS00026670286 MCULE-5625727872 MolPort-019-648-220 PubChem-33379791 Z312879844 ZINC000026141925 ZINC26141925


 26 28  0  0  0  0  0  0  0  0999 V2000
   17.6689  -10.0090   12.9632 N   0  0  0  0  0  0  0  0  0  0  0  0
   16.5297   -9.8755   12.1030 C   0  0  0  0  0  0  0  0  0  0  0  0
   15.3665   -9.8457   12.5898 O   0  0  0  0  0  0  0  0  0  0  0  0
   18.5491   -9.7919   12.5792 H   0  0  0  0  0  0  0  0  0  0  0  0
   16.7213   -9.7175   10.6514 C   0  0  0  0  0  0  0  0  0  0  0  0
   15.8338  -10.3452    9.7374 C   0  0  0  0  0  0  0  0  0  0  0  0
   16.0016  -10.2078    8.3866 N   0  0  0  0  0  0  0  0  0  0  0  0
   17.0360   -9.4579    7.9366 C   0  0  0  0  0  0  0  0  0  0  0  0
   17.3586   -9.2105    6.6921 O   0  0  0  0  0  0  0  0  0  0  0  0
   18.4205   -8.4463    6.6543 N   0  0  0  0  0  0  0  0  0  0  0  0
   18.7870   -8.1985    7.9357 C   0  0  0  0  0  0  0  0  0  0  0  0
   19.9537   -7.3644    8.3323 C   0  0  0  0  0  0  0  0  0  0  0  0
   17.9086   -8.8406    8.7745 C   0  0  0  0  0  0  0  0  0  0  0  0
   17.7914   -8.9421   10.1549 C   0  0  0  0  0  0  0  0  0  0  0  0
   17.0667   -9.9087   16.6431 C   0  0  0  0  0  0  0  0  0  0  0  0
   17.5885  -11.1412   17.0445 C   0  0  0  0  0  0  0  0  0  0  0  0
   18.1514  -12.0093   16.1064 C   0  0  0  0  0  0  0  0  0  0  0  0
   18.1858  -11.6592   14.7539 C   0  0  0  0  0  0  0  0  0  0  0  0
   18.8045  -12.4914   13.8808 F   0  0  0  0  0  0  0  0  0  0  0  0
   17.6395  -10.4306   14.3327 C   0  0  0  0  0  0  0  0  0  0  0  0
   17.1038   -9.5582   15.2857 C   0  0  0  0  0  0  0  0  0  0  0  0
   14.9441   -7.3303   18.6260 C   0  0  0  0  0  0  0  0  0  0  0  0
   15.3829   -8.1668   17.4791 C   0  0  0  0  0  0  0  0  0  0  0  0
   14.7574   -8.0958   16.3885 O   0  0  0  0  0  0  0  0  0  0  0  0
   16.5097   -9.0380   17.6373 N   0  0  0  0  0  0  0  0  0  0  0  0
   16.9466   -9.0389   18.5195 H   0  0  0  0  0  0  0  0  0  0  0  0
 22 23  1  0  0  0
 23 24  2  0  0  0
 23 25  1  0  0  0
 25 15  1  0  0  0
 15 16  2  0  0  0
 16 17  1  0  0  0
 17 18  2  0  0  0
 18 19  1  0  0  0
 18 20  1  0  0  0
 20  1  1  0  0  0
 20 21  2  0  0  0
  1  2  1  0  0  0
  2  3  2  0  0  0
  2  5  1  0  0  0
  5  6  2  0  0  0
  6  7  1  0  0  0
  7  8  2  0  0  0
  8  9  1  0  0  0
  9 10  1  0  0  0
 10 11  2  0  0  0
 11 12  1  0  0  0
 11 13  1  0  0  0
 13 14  2  0  0  0
 13  8  1  0  0  0
 14  5  1  0  0  0
 21 15  1  0  0  0
 25 26  1  0  0  0
  1  4  1  0  0  0
M  END
>  <minimizedAffinity>
-9.13370

>  <minimizedRMSD>
1.03708

$$$$
CSC096103835 CSSS00096103835


 27 30  0  0  0  0  0  0  0  0999 V2000
   17.7890  -10.3744   13.0751 C   0  0  0  0  0  0  0  0  0  0  0  0
   18.4635  -11.5876   13.3141 C   0  0  0  0  0  0  0  0  0  0  0  0
   18.5642  -12.1048   14.6158 C   0  0  0  0  0  0  0  0  0  0  0  0
   17.9810  -11.3872   15.6587 C   0  0  0  0  0  0  0  0  0  0  0  0
   17.9597  -11.7340   17.1046 C   0  0  0  0  0  0  0  0  0  0  0  0
   17.1754  -10.5649   17.7405 C   0  0  0  0  0  0  0  0  0  0  0  0
   16.8202   -9.6679   16.6422 N   0  0  0  0  0  0  0  0  0  0  0  0
   16.0814   -8.4493   16.8011 C   0  0  0  0  0  0  0  0  0  0  0  0
   15.6428   -8.0438   18.0938 N   0  0  0  0  0  0  0  0  0  0  0  0
   15.8134   -7.7275   15.8046 O   0  0  0  0  0  0  0  0  0  0  0  0
   17.3254  -10.2097   15.4347 C   0  0  0  0  0  0  0  0  0  0  0  0
   17.2101   -9.6722   14.1506 C   0  0  0  0  0  0  0  0  0  0  0  0
   15.8467   -8.6004   18.8798 H   0  0  0  0  0  0  0  0  0  0  0  0
   15.1357   -7.2068   18.2014 H   0  0  0  0  0  0  0  0  0  0  0  0
   17.7061   -9.8763   11.7383 N   0  0  0  0  0  0  0  0  0  0  0  0
   18.5200   -9.5137   11.3197 H   0  0  0  0  0  0  0  0  0  0  0  0
   16.4712   -9.8817   10.9690 C   0  0  0  0  0  0  0  0  0  0  0  0
   18.5925   -8.4995    5.4116 C   0  0  0  0  0  0  0  0  0  0  0  0
   18.6075   -8.3479    6.8926 C   0  0  0  0  0  0  0  0  0  0  0  0
   19.5348   -7.4957    7.5131 C   0  0  0  0  0  0  0  0  0  0  0  0
   19.5495   -7.3561    8.9141 C   0  0  0  0  0  0  0  0  0  0  0  0
   18.6285   -8.0754    9.6894 C   0  0  0  0  0  0  0  0  0  0  0  0
   17.7500   -8.8854    9.0456 N   0  0  0  0  0  0  0  0  0  0  0  0
   16.7803   -9.6752    9.5257 C   0  0  0  0  0  0  0  0  0  0  0  0
   16.1702  -10.3181    8.4597 C   0  0  0  0  0  0  0  0  0  0  0  0
   16.7627   -9.9067    7.3096 N   0  0  0  0  0  0  0  0  0  0  0  0
   17.7143   -9.0395    7.7138 C   0  0  0  0  0  0  0  0  0  0  0  0
 18 19  1  0  0  0
 19 20  2  0  0  0
 20 21  1  0  0  0
 21 22  2  0  0  0
 22 23  1  0  0  0
 23 24  1  0  0  0
 24 17  1  0  0  0
 17 15  1  0  0  0
 15  1  1  0  0  0
  1  2  2  0  0  0
  2  3  1  0  0  0
  3  4  2  0  0  0
  4  5  1  0  0  0
  5  6  1  0  0  0
  6  7  1  0  0  0
  7  8  1  0  0  0
  8  9  1  0  0  0
  8 10  2  0  0  0
  7 11  1  0  0  0
 11 12  2  0  0  0
 24 25  2  0  0  0
 25 26  1  0  0  0
 26 27  2  0  0  0
 27 19  1  0  0  0
 27 23  1  0  0  0
 12  1  1  0  0  0
 11  4  1  0  0  0
 15 16  1  0  0  0
  9 13  1  0  0  0
  9 14  1  0  0  0
M  END
>  <minimizedAffinity>
-9.12721

>  <minimizedRMSD>
0.70196

$$$$
CSSS00237652456 PubChem-166199754 Z1271719760


 26 28  0  0  0  0  0  0  0  0999 V2000
   18.1020  -10.6322   12.6824 C   0  0  0  0  0  0  0  0  0  0  0  0
   16.8017   -9.6461   16.1053 C   0  0  0  0  0  0  0  0  0  0  0  0
   17.2606  -10.7203   16.8816 C   0  0  0  0  0  0  0  0  0  0  0  0
   17.9925  -11.7560   16.2936 C   0  0  0  0  0  0  0  0  0  0  0  0
   18.2725  -11.7245   14.9250 C   0  0  0  0  0  0  0  0  0  0  0  0
   17.8254  -10.6543   14.1441 C   0  0  0  0  0  0  0  0  0  0  0  0
   17.0867   -9.6222   14.7321 C   0  0  0  0  0  0  0  0  0  0  0  0
   15.8837   -8.4989   18.1467 N   0  0  0  0  0  0  0  0  0  0  0  0
   16.0269   -8.5569   16.7250 C   0  0  0  0  0  0  0  0  0  0  0  0
   15.4889   -7.6741   16.0015 O   0  0  0  0  0  0  0  0  0  0  0  0
   16.3093   -9.1950   18.6977 H   0  0  0  0  0  0  0  0  0  0  0  0
   14.9023   -7.8158   20.2534 C   0  0  0  0  0  0  0  0  0  0  0  0
   15.1295   -7.4448   18.8034 C   0  0  0  0  0  0  0  0  0  0  0  0
   17.4397   -9.4917   12.0749 N   0  0  0  0  0  0  0  0  0  0  0  0
   18.1019   -8.9613   11.5087 H   0  0  0  0  0  0  0  0  0  0  0  0
   16.3782  -10.0220   11.2381 C   0  0  0  0  0  0  0  0  0  0  0  0
   16.6987   -9.7813    9.8009 C   0  0  0  0  0  0  0  0  0  0  0  0
   16.0467  -10.3348    8.7085 C   0  0  0  0  0  0  0  0  0  0  0  0
   16.6394   -9.8808    7.5747 N   0  0  0  0  0  0  0  0  0  0  0  0
   17.6275   -9.0729    8.0130 C   0  0  0  0  0  0  0  0  0  0  0  0
   17.6863   -8.9965    9.3508 N   0  0  0  0  0  0  0  0  0  0  0  0
   18.5959   -8.2483   10.0256 C   0  0  0  0  0  0  0  0  0  0  0  0
   19.5274   -7.5134    9.2779 C   0  0  0  0  0  0  0  0  0  0  0  0
   19.4903   -7.5737    7.8717 C   0  0  0  0  0  0  0  0  0  0  0  0
   18.5300   -8.3624    7.2185 C   0  0  0  0  0  0  0  0  0  0  0  0
   18.4892   -8.4277    5.7317 C   0  0  0  0  0  0  0  0  0  0  0  0
 12 13  1  0  0  0
 13  8  1  0  0  0
  8  9  1  0  0  0
  9 10  2  0  0  0
  9  2  1  0  0  0
  2  3  2  0  0  0
  3  4  1  0  0  0
  4  5  2  0  0  0
  5  6  1  0  0  0
  6  7  2  0  0  0
  6  1  1  0  0  0
  1 14  1  0  0  0
 14 16  1  0  0  0
 16 17  1  0  0  0
 17 18  2  0  0  0
 18 19  1  0  0  0
 19 20  2  0  0  0
 20 21  1  0  0  0
 21 22  1  0  0  0
 22 23  2  0  0  0
 23 24  1  0  0  0
 24 25  2  0  0  0
 25 26  1  0  0  0
  7  2  1  0  0  0
 21 17  1  0  0  0
 25 20  1  0  0  0
  8 11  1  0  0  0
 14 15  1  0  0  0
M  END
>  <minimizedAffinity>
-9.12669

>  <minimizedRMSD>
1.29235

$$$$
350943863 CSSS00329875826 MCULE-9588462866 MolPort-047-615-390 PubChem-166233797 Z1890940737


 26 30  0  0  0  0  0  0  0  0999 V2000
   15.7212  -10.2896   10.8537 C   0  0  0  0  0  0  0  0  0  0  0  0
   14.6653   -9.8932   11.5877 N   0  0  0  0  0  0  0  0  0  0  0  0
   15.1499   -9.6799   12.7726 O   0  0  0  0  0  0  0  0  0  0  0  0
   16.4390   -9.9212   12.7746 C   0  0  0  0  0  0  0  0  0  0  0  0
   16.8698  -10.3138   11.5590 N   0  0  0  0  0  0  0  0  0  0  0  0
   17.3137   -9.7784   13.9514 C   0  0  0  0  0  0  0  0  0  0  0  0
   16.8519   -9.2793   15.1758 C   0  0  0  0  0  0  0  0  0  0  0  0
   15.6135   -8.8348   15.5889 C   0  0  0  0  0  0  0  0  0  0  0  0
   15.7395   -8.4624   16.8872 N   0  0  0  0  0  0  0  0  0  0  0  0
   16.9892   -8.6527   17.2992 N   0  0  0  0  0  0  0  0  0  0  0  0
   17.6719   -9.1507   16.2596 C   0  0  0  0  0  0  0  0  0  0  0  0
   19.0170   -9.5059   16.2197 C   0  0  0  0  0  0  0  0  0  0  0  0
   19.5171  -10.0113   15.0064 C   0  0  0  0  0  0  0  0  0  0  0  0
   18.6733  -10.1465   13.8819 C   0  0  0  0  0  0  0  0  0  0  0  0
   17.3452   -8.4637   18.1974 H   0  0  0  0  0  0  0  0  0  0  0  0
   15.6438  -10.5924    9.3974 C   0  0  0  0  0  0  0  0  0  0  0  0
   17.5073   -8.5367   10.3916 O   0  0  0  0  0  0  0  0  0  0  0  0
   17.4829   -8.8986    9.1843 C   0  0  0  0  0  0  0  0  0  0  0  0
   16.6674   -9.8470    8.6811 N   0  0  0  0  0  0  0  0  0  0  0  0
   16.8973   -9.9531    7.3758 N   0  0  0  0  0  0  0  0  0  0  0  0
   17.8753   -9.0578    7.1173 C   0  0  0  0  0  0  0  0  0  0  0  0
   18.4599   -8.7974    5.8817 C   0  0  0  0  0  0  0  0  0  0  0  0
   19.4614   -7.8111    5.8433 C   0  0  0  0  0  0  0  0  0  0  0  0
   19.8430   -7.1243    7.0148 C   0  0  0  0  0  0  0  0  0  0  0  0
   19.2154   -7.4299    8.2321 C   0  0  0  0  0  0  0  0  0  0  0  0
   18.2580   -8.3890    8.2189 N   0  0  0  0  0  0  0  0  0  0  0  0
 17 18  2  0  0  0
 18 19  1  0  0  0
 19 16  1  0  0  0
 16  1  1  0  0  0
  1  2  2  0  0  0
  2  3  1  0  0  0
  3  4  1  0  0  0
  4  5  2  0  0  0
  4  6  1  0  0  0
  6  7  2  0  0  0
  7  8  1  0  0  0
  8  9  2  0  0  0
  9 10  1  0  0  0
 10 11  1  0  0  0
 11 12  2  0  0  0
 12 13  1  0  0  0
 13 14  2  0  0  0
 19 20  1  0  0  0
 20 21  2  0  0  0
 21 22  1  0  0  0
 22 23  2  0  0  0
 23 24  1  0  0  0
 24 25  2  0  0  0
 25 26  1  0  0  0
 26 18  1  0  0  0
  5  1  1  0  0  0
 14  6  1  0  0  0
 26 21  1  0  0  0
 11  7  1  0  0  0
 10 15  1  0  0  0
M  END
>  <minimizedAffinity>
-9.12324

>  <minimizedRMSD>
1.42048

$$$$
53336727 CSSS00133047127 MCULE-3557627208 MolPort-046-143-567 PubChem-136577772 Z651412396 ZINC53336727


 27 30  0  0  0  0  0  0  0  0999 V2000
   18.7509  -12.2631   13.6568 C   0  0  0  0  0  0  0  0  0  0  0  0
   18.0711  -11.3557   14.6244 C   0  0  0  0  0  0  0  0  0  0  0  0
   17.8534  -11.8233   15.9237 C   0  0  0  0  0  0  0  0  0  0  0  0
   17.2981  -10.9856   16.8930 C   0  0  0  0  0  0  0  0  0  0  0  0
   16.9679   -9.6649   16.5804 C   0  0  0  0  0  0  0  0  0  0  0  0
   17.1858   -9.1941   15.2779 C   0  0  0  0  0  0  0  0  0  0  0  0
   17.7141  -10.0307   14.2892 C   0  0  0  0  0  0  0  0  0  0  0  0
   17.9258   -9.4838   12.9814 N   0  0  0  0  0  0  0  0  0  0  0  0
   17.0669   -9.6939   11.8544 C   0  0  0  0  0  0  0  0  0  0  0  0
   15.9209  -10.1955   12.0098 O   0  0  0  0  0  0  0  0  0  0  0  0
   18.7223   -8.9209   12.8473 H   0  0  0  0  0  0  0  0  0  0  0  0
   17.5041   -9.2824   10.5160 C   0  0  0  0  0  0  0  0  0  0  0  0
   18.5104   -8.3554   10.2545 C   0  0  0  0  0  0  0  0  0  0  0  0
   18.5826   -8.2821    8.9188 N   0  0  0  0  0  0  0  0  0  0  0  0
   19.3928   -7.5331    8.1347 C   0  0  0  0  0  0  0  0  0  0  0  0
   19.2508   -7.6569    6.7462 C   0  0  0  0  0  0  0  0  0  0  0  0
   18.2822   -8.5457    6.2408 C   0  0  0  0  0  0  0  0  0  0  0  0
   17.4965   -9.2729    7.0882 N   0  0  0  0  0  0  0  0  0  0  0  0
   17.6662   -9.1230    8.4248 C   0  0  0  0  0  0  0  0  0  0  0  0
   16.9662   -9.7720    9.3703 N   0  0  0  0  0  0  0  0  0  0  0  0
   16.4106   -8.8316   17.6057 N   0  0  0  0  0  0  0  0  0  0  0  0
   15.2804   -7.9560   17.4809 C   0  0  0  0  0  0  0  0  0  0  0  0
   14.6905   -7.8106   16.3763 O   0  0  0  0  0  0  0  0  0  0  0  0
   16.8488   -8.8634   18.4867 H   0  0  0  0  0  0  0  0  0  0  0  0
   14.8296   -7.1646   18.6652 C   0  0  0  0  0  0  0  0  0  0  0  0
   14.9912   -7.9878   19.9304 C   0  0  0  0  0  0  0  0  0  0  0  0
   13.6243   -7.8304   19.3048 C   0  0  0  0  0  0  0  0  0  0  0  0
  1  2  1  0  0  0
  2  3  2  0  0  0
  3  4  1  0  0  0
  4  5  2  0  0  0
  5  6  1  0  0  0
  5 21  1  0  0  0
  6  7  2  0  0  0
  7  8  1  0  0  0
  7  2  1  0  0  0
  8  9  1  0  0  0
  9 10  2  0  0  0
  9 12  1  0  0  0
 12 13  2  0  0  0
 13 14  1  0  0  0
 14 15  1  0  0  0
 15 16  2  0  0  0
 16 17  1  0  0  0
 17 18  2  0  0  0
 18 19  1  0  0  0
 19 20  2  0  0  0
 19 14  1  0  0  0
 20 12  1  0  0  0
 21 22  1  0  0  0
 22 23  2  0  0  0
 22 25  1  0  0  0
 25 26  1  0  0  0
 26 27  1  0  0  0
 27 25  1  0  0  0
  8 11  1  0  0  0
 21 24  1  0  0  0
M  END
>  <minimizedAffinity>
-9.10497

>  <minimizedRMSD>
0.90823

$$$$
CSC027016054 28141199 CSSS00027016054 MCULE-2286321300 MolPort-005-692-004 PubChem-45351388 Z98976420 ZINC000028141199 ZINC28141199


 31 33  0  0  0  0  0  0  0  0999 V2000
   17.9117  -11.0746   13.5910 C   0  0  0  0  0  0  0  0  0  0  0  0
   18.0377  -12.3304   13.6113 O   0  0  0  0  0  0  0  0  0  0  0  0
   16.4280   -9.0023   17.0365 C   0  0  0  0  0  0  0  0  0  0  0  0
   16.2125   -8.4878   15.7495 C   0  0  0  0  0  0  0  0  0  0  0  0
   16.6970   -9.1649   14.6272 C   0  0  0  0  0  0  0  0  0  0  0  0
   17.4033  -10.3653   14.7760 C   0  0  0  0  0  0  0  0  0  0  0  0
   17.6187  -10.8793   16.0623 C   0  0  0  0  0  0  0  0  0  0  0  0
   17.1335  -10.2009   17.1840 C   0  0  0  0  0  0  0  0  0  0  0  0
   14.7685   -7.5271   18.3198 C   0  0  0  0  0  0  0  0  0  0  0  0
   14.0249   -7.3330   17.3195 O   0  0  0  0  0  0  0  0  0  0  0  0
   15.9465   -8.3362   18.2119 N   0  0  0  0  0  0  0  0  0  0  0  0
   16.4816   -8.4464   19.0309 H   0  0  0  0  0  0  0  0  0  0  0  0
   14.4570   -6.9536   19.5602 O   0  0  0  0  0  0  0  0  0  0  0  0
   12.4363   -5.6401   19.8429 C   0  0  0  0  0  0  0  0  0  0  0  0
   13.1532   -6.9443   20.1469 C   0  0  0  0  0  0  0  0  0  0  0  0
   12.3277   -8.1149   19.6416 C   0  0  0  0  0  0  0  0  0  0  0  0
   13.2967   -7.0727   21.6485 C   0  0  0  0  0  0  0  0  0  0  0  0
   18.2533  -10.3515   12.4459 O   0  0  0  0  0  0  0  0  0  0  0  0
   17.4168   -9.3286   11.9257 C   0  0  0  0  0  0  0  0  0  0  0  0
   17.5870   -9.2487   10.4510 C   0  0  0  0  0  0  0  0  0  0  0  0
   16.7683  -10.0010    9.6141 C   0  0  0  0  0  0  0  0  0  0  0  0
   16.9300   -9.8854    8.2344 C   0  0  0  0  0  0  0  0  0  0  0  0
   16.1918  -10.5701    7.4738 O   0  0  0  0  0  0  0  0  0  0  0  0
   17.8762   -9.0385    7.7219 N   0  0  0  0  0  0  0  0  0  0  0  0
   18.0334   -8.9256    6.3691 C   0  0  0  0  0  0  0  0  0  0  0  0
   18.9910   -8.0645    5.8314 C   0  0  0  0  0  0  0  0  0  0  0  0
   19.1813   -7.9302    4.0970 Cl  0  0  0  0  0  0  0  0  0  0  0  0
   19.7934   -7.3123    6.6867 C   0  0  0  0  0  0  0  0  0  0  0  0
   19.6325   -7.4279    8.0660 C   0  0  0  0  0  0  0  0  0  0  0  0
   18.6661   -8.2991    8.5748 C   0  0  0  0  0  0  0  0  0  0  0  0
   18.5110   -8.4096    9.9195 N   0  0  0  0  0  0  0  0  0  0  0  0
 14 15  1  0  0  0
 15 16  1  0  0  0
 15 17  1  0  0  0
 15 13  1  0  0  0
 13  9  1  0  0  0
  9 10  2  0  0  0
  9 11  1  0  0  0
 11  3  1  0  0  0
  3  4  2  0  0  0
  4  5  1  0  0  0
  5  6  2  0  0  0
  6  7  1  0  0  0
  6  1  1  0  0  0
  7  8  2  0  0  0
  8  3  1  0  0  0
  1  2  2  0  0  0
  1 18  1  0  0  0
 18 19  1  0  0  0
 19 20  1  0  0  0
 20 21  2  0  0  0
 21 22  1  0  0  0
 22 23  2  0  0  0
 22 24  1  0  0  0
 24 25  1  0  0  0
 25 26  2  0  0  0
 26 27  1  0  0  0
 26 28  1  0  0  0
 28 29  2  0  0  0
 29 30  1  0  0  0
 30 31  2  0  0  0
 30 24  1  0  0  0
 31 20  1  0  0  0
 11 12  1  0  0  0
M  END
>  <minimizedAffinity>
-9.07334

>  <minimizedRMSD>
1.28315

$$$$
CSC027367565 41872962 CSSS00027367565 MCULE-1999087041 MolPort-010-475-011 PubChem-52171358 Z246383072 ZINC000041872962 ZINC41872962


 24 26  0  0  0  0  0  0  0  0999 V2000
   17.4172  -10.0305   12.7848 C   0  0  0  0  0  0  0  0  0  0  0  0
   15.7265   -8.4118   16.3909 C   0  0  0  0  0  0  0  0  0  0  0  0
   15.7161   -7.6636   15.2044 C   0  0  0  0  0  0  0  0  0  0  0  0
   16.2719   -8.1873   14.0338 C   0  0  0  0  0  0  0  0  0  0  0  0
   16.8461   -9.4622   14.0404 C   0  0  0  0  0  0  0  0  0  0  0  0
   16.8546  -10.2162   15.2180 C   0  0  0  0  0  0  0  0  0  0  0  0
   16.2989   -9.6922   16.3887 C   0  0  0  0  0  0  0  0  0  0  0  0
   15.2882   -7.4818   20.1148 C   0  0  0  0  0  0  0  0  0  0  0  0
   15.8261   -8.0084   18.8719 N   0  0  0  0  0  0  0  0  0  0  0  0
   15.1408   -7.8602   17.6254 C   0  0  0  0  0  0  0  0  0  0  0  0
   14.0336   -7.2562   17.5836 O   0  0  0  0  0  0  0  0  0  0  0  0
   16.6891   -8.4819   18.8883 H   0  0  0  0  0  0  0  0  0  0  0  0
   16.4387   -9.9662   11.7061 N   0  0  0  0  0  0  0  0  0  0  0  0
   15.0350  -10.1614   12.0410 C   0  0  0  0  0  0  0  0  0  0  0  0
   16.8488   -9.6709   10.3595 C   0  0  0  0  0  0  0  0  0  0  0  0
   16.2102  -10.2712    9.2625 C   0  0  0  0  0  0  0  0  0  0  0  0
   16.6120   -9.9752    7.9980 N   0  0  0  0  0  0  0  0  0  0  0  0
   17.6278   -9.1029    7.7733 C   0  0  0  0  0  0  0  0  0  0  0  0
   18.0336   -8.8033    6.4702 C   0  0  0  0  0  0  0  0  0  0  0  0
   19.0821   -7.9015    6.2585 C   0  0  0  0  0  0  0  0  0  0  0  0
   19.7240   -7.3001    7.3475 C   0  0  0  0  0  0  0  0  0  0  0  0
   19.3210   -7.5973    8.6538 C   0  0  0  0  0  0  0  0  0  0  0  0
   18.2743   -8.4974    8.8694 C   0  0  0  0  0  0  0  0  0  0  0  0
   17.8697   -8.7973   10.1302 N   0  0  0  0  0  0  0  0  0  0  0  0
  8  9  1  0  0  0
  9 10  1  0  0  0
 10 11  2  0  0  0
 10  2  1  0  0  0
  2  3  2  0  0  0
  3  4  1  0  0  0
  4  5  2  0  0  0
  5  1  1  0  0  0
  5  6  1  0  0  0
  1 13  1  0  0  0
 13 14  1  0  0  0
 13 15  1  0  0  0
 15 16  2  0  0  0
 16 17  1  0  0  0
 17 18  2  0  0  0
 18 19  1  0  0  0
 19 20  2  0  0  0
 20 21  1  0  0  0
 21 22  2  0  0  0
 22 23  1  0  0  0
 23 24  2  0  0  0
 23 18  1  0  0  0
 24 15  1  0  0  0
  6  7  2  0  0  0
  7  2  1  0  0  0
  9 12  1  0  0  0
M  END
>  <minimizedAffinity>
-9.05161

>  <minimizedRMSD>
1.53393

$$$$
2325728915 CSSS01396297435 PubChem-166205015 Z1625928842


 24 26  0  0  0  0  0  0  0  0999 V2000
   17.7199  -10.6993   12.6943 N   0  0  0  0  0  0  0  0  0  0  0  0
   17.4238  -11.5059   12.2138 H   0  0  0  0  0  0  0  0  0  0  0  0
   16.7197   -9.5654   16.1263 C   0  0  0  0  0  0  0  0  0  0  0  0
   16.8687   -9.5990   14.7324 C   0  0  0  0  0  0  0  0  0  0  0  0
   17.5591  -10.6518   14.1135 C   0  0  0  0  0  0  0  0  0  0  0  0
   18.1021  -11.6744   14.8967 C   0  0  0  0  0  0  0  0  0  0  0  0
   17.9580  -11.6486   16.2863 C   0  0  0  0  0  0  0  0  0  0  0  0
   17.2694  -10.5981   16.8987 C   0  0  0  0  0  0  0  0  0  0  0  0
   15.9958   -8.3222   18.1899 N   0  0  0  0  0  0  0  0  0  0  0  0
   15.9936   -8.4576   16.7716 C   0  0  0  0  0  0  0  0  0  0  0  0
   15.3634   -7.6183   16.0745 O   0  0  0  0  0  0  0  0  0  0  0  0
   15.5084   -7.5795   18.6142 H   0  0  0  0  0  0  0  0  0  0  0  0
   16.4845   -8.9715   18.7456 H   0  0  0  0  0  0  0  0  0  0  0  0
   18.3023   -9.6075   11.9283 C   0  0  0  0  0  0  0  0  0  0  0  0
   17.6257   -9.5055   10.6044 C   0  0  0  0  0  0  0  0  0  0  0  0
   18.1645   -8.7589    9.5562 C   0  0  0  0  0  0  0  0  0  0  0  0
   19.3056   -7.9930    9.4782 C   0  0  0  0  0  0  0  0  0  0  0  0
   19.2936   -7.5019    8.1692 C   0  0  0  0  0  0  0  0  0  0  0  0
   18.2118   -7.9356    7.4741 N   0  0  0  0  0  0  0  0  0  0  0  0
   17.5427   -8.6998    8.3466 C   0  0  0  0  0  0  0  0  0  0  0  0
   16.3835   -9.3589    8.0959 N   0  0  0  0  0  0  0  0  0  0  0  0
   15.8175  -10.1103    9.0878 C   0  0  0  0  0  0  0  0  0  0  0  0
   16.4288  -10.1998   10.3572 C   0  0  0  0  0  0  0  0  0  0  0  0
   17.9731   -7.7340    6.5405 H   0  0  0  0  0  0  0  0  0  0  0  0
  9 10  1  0  0  0
 10 11  2  0  0  0
 10  3  1  0  0  0
  3  4  2  0  0  0
  4  5  1  0  0  0
  5  1  1  0  0  0
  1 14  1  0  0  0
 14 15  1  0  0  0
 15 16  2  0  0  0
 16 17  1  0  0  0
 17 18  2  0  0  0
 18 19  1  0  0  0
 19 20  1  0  0  0
 20 21  2  0  0  0
 21 22  1  0  0  0
 22 23  2  0  0  0
  5  6  2  0  0  0
  6  7  1  0  0  0
  7  8  2  0  0  0
  8  3  1  0  0  0
 23 15  1  0  0  0
 20 16  1  0  0  0
  9 12  1  0  0  0
  9 13  1  0  0  0
  1  2  1  0  0  0
 19 24  1  0  0  0
M  END
>  <minimizedAffinity>
-9.04916

>  <minimizedRMSD>
0.86827

$$$$
67784890 CSSS00159771873 MCULE-8813917735 MolPort-019-888-651 PubChem-56746301 ZINC000067784890


 31 33  0  0  0  0  0  0  0  0999 V2000
   17.6723   -9.5532   11.6186 C   0  0  0  0  0  0  0  0  0  0  0  0
   18.8429   -9.2772   11.9967 O   0  0  0  0  0  0  0  0  0  0  0  0
   16.6321   -9.7664   12.5796 N   0  0  0  0  0  0  0  0  0  0  0  0
   15.7049   -9.7871   12.2493 H   0  0  0  0  0  0  0  0  0  0  0  0
   18.8074   -7.8629    6.7902 C   0  0  0  0  0  0  0  0  0  0  0  0
   17.7491   -8.7818    6.8043 C   0  0  0  0  0  0  0  0  0  0  0  0
   17.3710   -9.2857    8.0027 N   0  0  0  0  0  0  0  0  0  0  0  0
   16.4059  -10.1588    8.2306 N   0  0  0  0  0  0  0  0  0  0  0  0
   16.3713  -10.3846    9.5700 C   0  0  0  0  0  0  0  0  0  0  0  0
   17.3592   -9.6138   10.1851 C   0  0  0  0  0  0  0  0  0  0  0  0
   17.9601   -8.9402    9.1492 C   0  0  0  0  0  0  0  0  0  0  0  0
   18.9845   -8.0525    9.1865 N   0  0  0  0  0  0  0  0  0  0  0  0
   19.4156   -7.5063    8.0121 C   0  0  0  0  0  0  0  0  0  0  0  0
   19.2663   -7.2653    5.5032 C   0  0  0  0  0  0  0  0  0  0  0  0
   19.5796   -8.3142    4.5431 N   0  0  0  0  0  0  0  0  0  0  0  0
   21.5712   -6.9438    4.8008 C   0  0  0  0  0  0  0  0  0  0  0  0
   20.8551   -7.9651    3.9379 C   0  0  0  0  0  0  0  0  0  0  0  0
   18.5791   -8.2342    3.4908 C   0  0  0  0  0  0  0  0  0  0  0  0
   19.1824   -8.6846    2.1749 C   0  0  0  0  0  0  0  0  0  0  0  0
   16.8386   -9.9519   13.9858 C   0  0  0  0  0  0  0  0  0  0  0  0
   16.1896   -9.0831   14.8696 C   0  0  0  0  0  0  0  0  0  0  0  0
   16.3407   -9.2195   16.2560 C   0  0  0  0  0  0  0  0  0  0  0  0
   17.1414  -10.2523   16.7582 C   0  0  0  0  0  0  0  0  0  0  0  0
   17.7708  -11.1439   15.8875 C   0  0  0  0  0  0  0  0  0  0  0  0
   17.6216  -11.0073   14.5044 C   0  0  0  0  0  0  0  0  0  0  0  0
   18.2403  -12.0412   13.6268 C   0  0  0  0  0  0  0  0  0  0  0  0
   15.6639   -8.2873   17.1746 C   0  0  0  0  0  0  0  0  0  0  0  0
   16.0364   -8.2302   18.5488 N   0  0  0  0  0  0  0  0  0  0  0  0
   14.7484   -7.5312   16.7535 O   0  0  0  0  0  0  0  0  0  0  0  0
   16.7503   -8.8159   18.8900 H   0  0  0  0  0  0  0  0  0  0  0  0
   15.5799   -7.6049   19.1569 H   0  0  0  0  0  0  0  0  0  0  0  0
 16 17  1  0  0  0
 17 15  1  0  0  0
 15 18  1  0  0  0
 15 14  1  0  0  0
 18 19  1  0  0  0
 14  5  1  0  0  0
  5  6  2  0  0  0
  6  7  1  0  0  0
  7  8  1  0  0  0
  8  9  2  0  0  0
  9 10  1  0  0  0
 10  1  1  0  0  0
 10 11  2  0  0  0
  1  2  2  0  0  0
  1  3  1  0  0  0
  3 20  1  0  0  0
 20 21  2  0  0  0
 21 22  1  0  0  0
 22 23  2  0  0  0
 22 27  1  0  0  0
 23 24  1  0  0  0
 24 25  2  0  0  0
 25 26  1  0  0  0
 25 20  1  0  0  0
 27 28  1  0  0  0
 27 29  2  0  0  0
 11 12  1  0  0  0
 11  7  1  0  0  0
 12 13  2  0  0  0
 13  5  1  0  0  0
  3  4  1  0  0  0
 28 30  1  0  0  0
 28 31  1  0  0  0
M  END
>  <minimizedAffinity>
-9.03535

>  <minimizedRMSD>
1.35232

$$$$
CSSS00160758477 MCULE-6120713432 MolPort-000-817-585


 30 32  0  0  0  0  0  0  0  0999 V2000
   16.9679   -9.1633   14.4611 C   0  0  0  0  0  0  0  0  0  0  0  0
   16.2031   -8.2651   15.4165 C   0  0  0  0  0  0  0  0  0  0  0  0
   16.1392   -8.8908   16.7989 C   0  0  0  0  0  0  0  0  0  0  0  0
   15.6634   -8.0157   19.1133 N   0  0  0  0  0  0  0  0  0  0  0  0
   15.3594   -8.0137   17.7127 C   0  0  0  0  0  0  0  0  0  0  0  0
   14.4289   -7.3046   17.2456 O   0  0  0  0  0  0  0  0  0  0  0  0
   16.4095   -8.5896   19.4018 H   0  0  0  0  0  0  0  0  0  0  0  0
   13.0255   -6.1479   21.0319 C   0  0  0  0  0  0  0  0  0  0  0  0
   13.7471   -5.8218   22.1909 C   0  0  0  0  0  0  0  0  0  0  0  0
   15.0819   -6.2135   22.3213 C   0  0  0  0  0  0  0  0  0  0  0  0
   15.7016   -6.9351   21.2977 C   0  0  0  0  0  0  0  0  0  0  0  0
   14.9941   -7.2690   20.1382 C   0  0  0  0  0  0  0  0  0  0  0  0
   13.6542   -6.8710   20.0129 C   0  0  0  0  0  0  0  0  0  0  0  0
   11.1021   -4.6968   21.5910 C   0  0  0  0  0  0  0  0  0  0  0  0
   11.6900   -5.7696   20.8683 O   0  0  0  0  0  0  0  0  0  0  0  0
   16.3104   -9.1699   13.0942 C   0  0  0  0  0  0  0  0  0  0  0  0
   16.9863  -10.2090   12.2170 C   0  0  0  0  0  0  0  0  0  0  0  0
   17.0826   -9.7331   10.8376 N   0  0  0  0  0  0  0  0  0  0  0  0
   16.0605   -9.9734    9.9587 C   0  0  0  0  0  0  0  0  0  0  0  0
   14.9192  -10.6548   10.3693 O   0  0  0  0  0  0  0  0  0  0  0  0
   16.1516   -9.5554    8.6696 N   0  0  0  0  0  0  0  0  0  0  0  0
   17.2495   -8.9004    8.2200 C   0  0  0  0  0  0  0  0  0  0  0  0
   17.3195   -8.4807    6.8883 C   0  0  0  0  0  0  0  0  0  0  0  0
   18.4540   -7.8070    6.4259 C   0  0  0  0  0  0  0  0  0  0  0  0
   19.5209   -7.5516    7.2929 C   0  0  0  0  0  0  0  0  0  0  0  0
   19.4568   -7.9700    8.6255 C   0  0  0  0  0  0  0  0  0  0  0  0
   18.3216   -8.6469    9.0958 C   0  0  0  0  0  0  0  0  0  0  0  0
   18.2150   -9.0847   10.4230 C   0  0  0  0  0  0  0  0  0  0  0  0
   19.1633   -8.8786   11.2324 O   0  0  0  0  0  0  0  0  0  0  0  0
   14.8426  -10.9490   11.2556 H   0  0  0  0  0  0  0  0  0  0  0  0
 14 15  1  0  0  0
 15  8  1  0  0  0
  8  9  2  0  0  0
  9 10  1  0  0  0
 10 11  2  0  0  0
 11 12  1  0  0  0
 12  4  1  0  0  0
 12 13  2  0  0  0
  4  5  1  0  0  0
  5  6  2  0  0  0
  5  3  1  0  0  0
  3  2  1  0  0  0
  2  1  1  0  0  0
  1 16  1  0  0  0
 16 17  1  0  0  0
 17 18  1  0  0  0
 18 19  1  0  0  0
 19 20  1  0  0  0
 19 21  2  0  0  0
 21 22  1  0  0  0
 22 23  2  0  0  0
 23 24  1  0  0  0
 24 25  2  0  0  0
 25 26  1  0  0  0
 26 27  2  0  0  0
 27 28  1  0  0  0
 27 22  1  0  0  0
 28 29  2  0  0  0
 28 18  1  0  0  0
 13  8  1  0  0  0
  4  7  1  0  0  0
 20 30  1  0  0  0
M  END
>  <minimizedAffinity>
-9.02560

>  <minimizedRMSD>
1.12285

$$$$
CSC028303240 97102109 CHEMBL4960647 CSSS00028303240 MCULE-3165843326 MolPort-030-031-410 PubChem-86801650 Z1743526736 ZINC000097102109 ZINC97102109


 23 25  0  0  0  0  0  0  0  0999 V2000
   17.1353  -10.5803   12.7675 N   0  0  0  0  0  0  0  0  0  0  0  0
   16.4960  -11.1912   12.3346 H   0  0  0  0  0  0  0  0  0  0  0  0
   16.5634   -9.5194   16.2511 C   0  0  0  0  0  0  0  0  0  0  0  0
   17.3153  -10.4617   16.9636 C   0  0  0  0  0  0  0  0  0  0  0  0
   18.0121  -11.4512   16.2688 C   0  0  0  0  0  0  0  0  0  0  0  0
   17.9543  -11.4936   14.8754 C   0  0  0  0  0  0  0  0  0  0  0  0
   17.1960  -10.5404   14.1928 C   0  0  0  0  0  0  0  0  0  0  0  0
   16.5232   -9.5826   14.8906 N   0  0  0  0  0  0  0  0  0  0  0  0
   15.0954   -7.4028   19.1284 C   0  0  0  0  0  0  0  0  0  0  0  0
   15.8161   -8.4251   18.3887 N   0  0  0  0  0  0  0  0  0  0  0  0
   15.8200   -8.4662   16.9594 C   0  0  0  0  0  0  0  0  0  0  0  0
   15.1849   -7.5980   16.3008 O   0  0  0  0  0  0  0  0  0  0  0  0
   16.3172   -9.1105   18.8871 H   0  0  0  0  0  0  0  0  0  0  0  0
   17.9874   -9.7474   11.9345 C   0  0  0  0  0  0  0  0  0  0  0  0
   17.3802   -9.6073   10.5805 C   0  0  0  0  0  0  0  0  0  0  0  0
   16.2230  -10.2287   10.1354 C   0  0  0  0  0  0  0  0  0  0  0  0
   16.0275   -9.8989    8.8328 N   0  0  0  0  0  0  0  0  0  0  0  0
   17.0711   -9.1013    8.5306 C   0  0  0  0  0  0  0  0  0  0  0  0
   17.3178   -8.5129    7.2925 C   0  0  0  0  0  0  0  0  0  0  0  0
   18.4708   -7.7194    7.1740 C   0  0  0  0  0  0  0  0  0  0  0  0
   19.3323   -7.5383    8.2733 C   0  0  0  0  0  0  0  0  0  0  0  0
   19.0309   -8.1570    9.4950 C   0  0  0  0  0  0  0  0  0  0  0  0
   17.9053   -8.9122    9.5631 N   0  0  0  0  0  0  0  0  0  0  0  0
  9 10  1  0  0  0
 10 11  1  0  0  0
 11 12  2  0  0  0
 11  3  1  0  0  0
  3  4  2  0  0  0
  4  5  1  0  0  0
  5  6  2  0  0  0
  6  7  1  0  0  0
  7  1  1  0  0  0
  7  8  2  0  0  0
  1 14  1  0  0  0
 14 15  1  0  0  0
 15 16  2  0  0  0
 16 17  1  0  0  0
 17 18  2  0  0  0
 18 19  1  0  0  0
 19 20  2  0  0  0
 20 21  1  0  0  0
 21 22  2  0  0  0
 22 23  1  0  0  0
 23 15  1  0  0  0
 23 18  1  0  0  0
  8  3  1  0  0  0
 10 13  1  0  0  0
  1  2  1  0  0  0
M  END
>  <minimizedAffinity>
-9.02410

>  <minimizedRMSD>
0.73204

$$$$
96118018 CSSS00160824016 LN00417899 MCULE-3322268199 MolPort-028-853-436 PubChem-71828386 ZINC000096118018


 30 33  0  0  0  0  0  0  0  0999 V2000
   16.9255  -10.0194   14.3042 C   0  0  0  0  0  0  0  0  0  0  0  0
   16.4202   -8.7123   14.3135 C   0  0  0  0  0  0  0  0  0  0  0  0
   16.2233   -8.0402   15.5227 C   0  0  0  0  0  0  0  0  0  0  0  0
   16.5288   -8.6652   16.7405 C   0  0  0  0  0  0  0  0  0  0  0  0
   17.0329   -9.9696   16.7304 C   0  0  0  0  0  0  0  0  0  0  0  0
   17.2306  -10.6434   15.5219 C   0  0  0  0  0  0  0  0  0  0  0  0
   16.3864  -10.3496   11.8707 N   0  0  0  0  0  0  0  0  0  0  0  0
   17.1338  -10.7278   13.0293 C   0  0  0  0  0  0  0  0  0  0  0  0
   17.9722  -11.6680   12.9588 O   0  0  0  0  0  0  0  0  0  0  0  0
   15.7332   -9.6166   11.9433 H   0  0  0  0  0  0  0  0  0  0  0  0
   16.5604  -11.0128   10.5893 C   0  0  0  0  0  0  0  0  0  0  0  0
   17.8189   -9.1834    9.4123 N   0  0  0  0  0  0  0  0  0  0  0  0
   18.9606   -9.0819   10.1369 C   0  0  0  0  0  0  0  0  0  0  0  0
   19.8907   -8.1050    9.7498 C   0  0  0  0  0  0  0  0  0  0  0  0
   19.6091   -7.2777    8.6428 C   0  0  0  0  0  0  0  0  0  0  0  0
   18.4079   -7.4216    7.9265 C   0  0  0  0  0  0  0  0  0  0  0  0
   17.5280   -8.4090    8.3602 C   0  0  0  0  0  0  0  0  0  0  0  0
   16.3270   -8.7097    7.8331 N   0  0  0  0  0  0  0  0  0  0  0  0
   15.8374   -9.7041    8.5704 N   0  0  0  0  0  0  0  0  0  0  0  0
   16.7538   -9.9910    9.5220 C   0  0  0  0  0  0  0  0  0  0  0  0
   16.3410   -8.0097   18.0028 N   0  0  0  0  0  0  0  0  0  0  0  0
   17.1586   -7.7336   18.4767 H   0  0  0  0  0  0  0  0  0  0  0  0
   15.0983   -7.7107   18.6530 C   0  0  0  0  0  0  0  0  0  0  0  0
   14.0140   -7.2884   17.9465 N   0  0  0  0  0  0  0  0  0  0  0  0
   12.8391   -7.0063   18.5668 C   0  0  0  0  0  0  0  0  0  0  0  0
   11.6708   -6.5469   17.7718 C   0  0  0  0  0  0  0  0  0  0  0  0
   12.7298   -7.1478   19.9487 C   0  0  0  0  0  0  0  0  0  0  0  0
   13.8482   -7.5809   20.6585 C   0  0  0  0  0  0  0  0  0  0  0  0
   13.7742   -7.7451   22.1335 C   0  0  0  0  0  0  0  0  0  0  0  0
   15.0061   -7.8532   20.0019 N   0  0  0  0  0  0  0  0  0  0  0  0
 12 13  1  0  0  0
 13 14  2  0  0  0
 14 15  1  0  0  0
 15 16  2  0  0  0
 16 17  1  0  0  0
 17 18  2  0  0  0
 18 19  1  0  0  0
 19 20  2  0  0  0
 20 11  1  0  0  0
 11  7  1  0  0  0
  7  8  1  0  0  0
  8  9  2  0  0  0
  8  1  1  0  0  0
  1  2  2  0  0  0
  2  3  1  0  0  0
  3  4  2  0  0  0
  4  5  1  0  0  0
  5  6  2  0  0  0
  4 21  1  0  0  0
 21 23  1  0  0  0
 23 24  2  0  0  0
 24 25  1  0  0  0
 25 26  1  0  0  0
 25 27  2  0  0  0
 27 28  1  0  0  0
 28 29  1  0  0  0
 28 30  2  0  0  0
 17 12  1  0  0  0
  6  1  1  0  0  0
 30 23  1  0  0  0
 20 12  1  0  0  0
  7 10  1  0  0  0
 21 22  1  0  0  0
M  END
>  <minimizedAffinity>
-9.01855

>  <minimizedRMSD>
1.43462

$$$$
65374861 CSSS00159458979 MCULE-8387064652 MolPort-016-595-887 PubChem-50951985 ZINC000065374861


 29 33  0  0  0  0  0  0  0  0999 V2000
   15.3781   -8.1057   17.5536 C   0  0  0  0  0  0  0  0  0  0  0  0
   15.3928   -7.7814   16.1990 C   0  0  0  0  0  0  0  0  0  0  0  0
   16.3685   -8.6265   15.7089 C   0  0  0  0  0  0  0  0  0  0  0  0
   16.8900   -9.3590   16.7054 N   0  0  0  0  0  0  0  0  0  0  0  0
   17.8922  -10.4071   16.5425 C   0  0  0  0  0  0  0  0  0  0  0  0
   18.6820  -10.1783   15.2518 C   0  0  0  0  0  0  0  0  0  0  0  0
   17.7630   -9.8556   14.1572 N   0  0  0  0  0  0  0  0  0  0  0  0
   17.7860  -10.6268   12.9462 C   0  0  0  0  0  0  0  0  0  0  0  0
   18.5929  -11.5868   12.8212 O   0  0  0  0  0  0  0  0  0  0  0  0
   16.8588   -8.7100   14.2989 C   0  0  0  0  0  0  0  0  0  0  0  0
   16.2827   -9.0662   17.8386 N   0  0  0  0  0  0  0  0  0  0  0  0
   14.4988   -7.4985   18.5587 C   0  0  0  0  0  0  0  0  0  0  0  0
   13.5532   -6.7466   18.1973 O   0  0  0  0  0  0  0  0  0  0  0  0
   14.7196   -7.7623   19.9456 N   0  0  0  0  0  0  0  0  0  0  0  0
   15.4618   -8.3543   20.2059 H   0  0  0  0  0  0  0  0  0  0  0  0
   13.8831   -7.1843   20.9840 C   0  0  0  0  0  0  0  0  0  0  0  0
   14.7399   -6.3362   21.9011 C   0  0  0  0  0  0  0  0  0  0  0  0
   14.3174   -7.7248   22.3300 C   0  0  0  0  0  0  0  0  0  0  0  0
   16.8805  -10.2950   11.8067 C   0  0  0  0  0  0  0  0  0  0  0  0
   17.4020   -9.0721   11.0743 C   0  0  0  0  0  0  0  0  0  0  0  0
   17.3034   -9.2739    9.6376 N   0  0  0  0  0  0  0  0  0  0  0  0
   18.0238   -8.6783    8.6800 C   0  0  0  0  0  0  0  0  0  0  0  0
   19.0255   -7.7158    8.7780 C   0  0  0  0  0  0  0  0  0  0  0  0
   19.6016   -7.2753    7.5703 C   0  0  0  0  0  0  0  0  0  0  0  0
   19.1668   -7.7999    6.3291 C   0  0  0  0  0  0  0  0  0  0  0  0
   18.1489   -8.7734    6.2759 C   0  0  0  0  0  0  0  0  0  0  0  0
   17.6041   -9.1834    7.4887 C   0  0  0  0  0  0  0  0  0  0  0  0
   16.6329  -10.0877    7.7151 N   0  0  0  0  0  0  0  0  0  0  0  0
   16.4731  -10.1218    9.0383 N   0  0  0  0  0  0  0  0  0  0  0  0
  1 12  1  0  0  0
 12 13  2  0  0  0
 12 14  1  0  0  0
 14 16  1  0  0  0
 16 17  1  0  0  0
 17 18  1  0  0  0
  1  2  1  0  0  0
  2  3  2  0  0  0
  3  4  1  0  0  0
  4  5  1  0  0  0
  5  6  1  0  0  0
  6  7  1  0  0  0
  7  8  1  0  0  0
  8  9  2  0  0  0
  8 19  1  0  0  0
 19 20  1  0  0  0
 20 21  1  0  0  0
 21 22  1  0  0  0
 22 23  2  0  0  0
 23 24  1  0  0  0
 24 25  2  0  0  0
 25 26  1  0  0  0
 26 27  2  0  0  0
 27 28  1  0  0  0
 28 29  2  0  0  0
  7 10  1  0  0  0
  4 11  1  0  0  0
 11  1  2  0  0  0
 18 16  1  0  0  0
 10  3  1  0  0  0
 29 21  1  0  0  0
 27 22  1  0  0  0
 14 15  1  0  0  0
M  END
>  <minimizedAffinity>
-9.01679

>  <minimizedRMSD>
1.97648

$$$$
CSC027081976 19426061 CSSS00027081976 MCULE-9330056481 MolPort-009-375-971 PubChem-45849291 Z98484040 ZINC000019426061 ZINC19426061


 31 33  0  0  0  0  0  0  0  0999 V2000
   18.0732  -11.3478   13.9296 C   0  0  0  0  0  0  0  0  0  0  0  0
   18.4406  -12.5268   14.1911 O   0  0  0  0  0  0  0  0  0  0  0  0
   17.5145  -10.4972   14.9928 C   0  0  0  0  0  0  0  0  0  0  0  0
   16.8009   -9.3376   14.6633 C   0  0  0  0  0  0  0  0  0  0  0  0
   16.2655   -8.5289   15.6696 C   0  0  0  0  0  0  0  0  0  0  0  0
   16.4369   -8.8694   17.0196 C   0  0  0  0  0  0  0  0  0  0  0  0
   17.1504  -10.0269   17.3473 C   0  0  0  0  0  0  0  0  0  0  0  0
   17.6861  -10.8367   16.3420 C   0  0  0  0  0  0  0  0  0  0  0  0
   15.9003   -8.0666   18.0802 N   0  0  0  0  0  0  0  0  0  0  0  0
   14.6442   -7.3764   18.0854 C   0  0  0  0  0  0  0  0  0  0  0  0
   13.8742   -7.4299   17.0876 O   0  0  0  0  0  0  0  0  0  0  0  0
   16.4532   -7.9805   18.8902 H   0  0  0  0  0  0  0  0  0  0  0  0
   14.2854   -6.6407   19.2228 O   0  0  0  0  0  0  0  0  0  0  0  0
   13.4506   -7.1277   20.2766 C   0  0  0  0  0  0  0  0  0  0  0  0
   14.3136   -7.8707   21.2743 C   0  0  0  0  0  0  0  0  0  0  0  0
   12.7665   -5.9777   20.9957 C   0  0  0  0  0  0  0  0  0  0  0  0
   12.4074   -8.0897   19.7351 C   0  0  0  0  0  0  0  0  0  0  0  0
   18.1941  -10.8445   12.6324 O   0  0  0  0  0  0  0  0  0  0  0  0
   17.6037   -9.6120   12.2471 C   0  0  0  0  0  0  0  0  0  0  0  0
   18.9426   -7.8995    4.6677 C   0  0  0  0  0  0  0  0  0  0  0  0
   18.8660   -8.0880    6.1396 C   0  0  0  0  0  0  0  0  0  0  0  0
   17.9010   -8.9322    6.6913 C   0  0  0  0  0  0  0  0  0  0  0  0
   17.8212   -9.1126    8.0435 N   0  0  0  0  0  0  0  0  0  0  0  0
   16.8669   -9.9417    8.5700 C   0  0  0  0  0  0  0  0  0  0  0  0
   16.0510  -10.5486    7.8231 O   0  0  0  0  0  0  0  0  0  0  0  0
   16.7829  -10.1248    9.9494 C   0  0  0  0  0  0  0  0  0  0  0  0
   17.6877   -9.4588   10.7708 C   0  0  0  0  0  0  0  0  0  0  0  0
   18.6190   -8.6360   10.2262 N   0  0  0  0  0  0  0  0  0  0  0  0
   18.6978   -8.4594    8.8820 C   0  0  0  0  0  0  0  0  0  0  0  0
   19.6730   -7.6064    8.3595 C   0  0  0  0  0  0  0  0  0  0  0  0
   19.7550   -7.4221    6.9805 C   0  0  0  0  0  0  0  0  0  0  0  0
 20 21  1  0  0  0
 21 22  2  0  0  0
 22 23  1  0  0  0
 23 24  1  0  0  0
 24 25  2  0  0  0
 24 26  1  0  0  0
 26 27  2  0  0  0
 27 19  1  0  0  0
 19 18  1  0  0  0
 18  1  1  0  0  0
  1  2  2  0  0  0
  1  3  1  0  0  0
  3  4  2  0  0  0
  4  5  1  0  0  0
  5  6  2  0  0  0
  6  9  1  0  0  0
  9 10  1  0  0  0
 10 11  2  0  0  0
 10 13  1  0  0  0
 13 14  1  0  0  0
 14 15  1  0  0  0
 14 16  1  0  0  0
 14 17  1  0  0  0
  6  7  1  0  0  0
  7  8  2  0  0  0
 27 28  1  0  0  0
 28 29  2  0  0  0
 29 30  1  0  0  0
 30 31  2  0  0  0
 31 21  1  0  0  0
 29 23  1  0  0  0
  8  3  1  0  0  0
  9 12  1  0  0  0
M  END
>  <minimizedAffinity>
-9.01606

>  <minimizedRMSD>
1.29133

$$$$
CSC026345059 9364484 CHEMBL4584128 CSSS00026345059 MCULE-7265332499 MolPort-004-237-867 PubChem-17399512 Z28942175 ZINC000009364484 ZINC09364484


 26 28  0  0  0  0  0  0  0  0999 V2000
   16.8124   -9.4970   12.9903 C   0  0  0  0  0  0  0  0  0  0  0  0
   16.1221   -8.4618   12.7832 O   0  0  0  0  0  0  0  0  0  0  0  0
   17.3518  -10.2333   11.8844 N   0  0  0  0  0  0  0  0  0  0  0  0
   17.7235  -11.1278   12.0602 H   0  0  0  0  0  0  0  0  0  0  0  0
   17.3808   -9.7516   10.5627 N   0  0  0  0  0  0  0  0  0  0  0  0
   16.3651  -10.1173    9.7339 C   0  0  0  0  0  0  0  0  0  0  0  0
   16.3388   -9.7032    8.4409 N   0  0  0  0  0  0  0  0  0  0  0  0
   17.3280   -8.9244    7.9390 C   0  0  0  0  0  0  0  0  0  0  0  0
   17.2817   -8.5032    6.6068 C   0  0  0  0  0  0  0  0  0  0  0  0
   18.3100   -7.7106    6.0879 C   0  0  0  0  0  0  0  0  0  0  0  0
   19.3877   -7.3396    6.8982 C   0  0  0  0  0  0  0  0  0  0  0  0
   19.4401   -7.7588    8.2311 C   0  0  0  0  0  0  0  0  0  0  0  0
   18.4099   -8.5506    8.7596 C   0  0  0  0  0  0  0  0  0  0  0  0
   18.4237   -8.9981   10.0885 C   0  0  0  0  0  0  0  0  0  0  0  0
   19.4075   -8.7285   10.8321 O   0  0  0  0  0  0  0  0  0  0  0  0
   16.7688   -9.6701   16.7729 C   0  0  0  0  0  0  0  0  0  0  0  0
   17.4427  -10.8762   16.9892 C   0  0  0  0  0  0  0  0  0  0  0  0
   17.9086  -11.6297   15.9088 C   0  0  0  0  0  0  0  0  0  0  0  0
   17.7025  -11.1796   14.6024 C   0  0  0  0  0  0  0  0  0  0  0  0
   17.0288   -9.9736   14.3673 C   0  0  0  0  0  0  0  0  0  0  0  0
   16.5654   -9.2244   15.4582 C   0  0  0  0  0  0  0  0  0  0  0  0
   14.9254   -7.2552   19.1926 C   0  0  0  0  0  0  0  0  0  0  0  0
   15.2753   -7.9288   17.9154 C   0  0  0  0  0  0  0  0  0  0  0  0
   14.6607   -7.6130   16.8625 O   0  0  0  0  0  0  0  0  0  0  0  0
   16.3058   -8.9247   17.9073 N   0  0  0  0  0  0  0  0  0  0  0  0
   16.7407   -9.1169   18.7693 H   0  0  0  0  0  0  0  0  0  0  0  0
 22 23  1  0  0  0
 23 24  2  0  0  0
 23 25  1  0  0  0
 25 16  1  0  0  0
 16 17  2  0  0  0
 17 18  1  0  0  0
 18 19  2  0  0  0
 19 20  1  0  0  0
 20 21  2  0  0  0
 20  1  1  0  0  0
 21 16  1  0  0  0
  1  2  2  0  0  0
  1  3  1  0  0  0
  3  5  1  0  0  0
  5  6  1  0  0  0
  6  7  2  0  0  0
  7  8  1  0  0  0
  8  9  2  0  0  0
  9 10  1  0  0  0
 10 11  2  0  0  0
 11 12  1  0  0  0
 12 13  2  0  0  0
 13 14  1  0  0  0
 13  8  1  0  0  0
 14 15  2  0  0  0
 14  5  1  0  0  0
 25 26  1  0  0  0
  3  4  1  0  0  0
M  END
>  <minimizedAffinity>
-9.01283

>  <minimizedRMSD>
0.63449

$$$$
CSC027723119 84576807 CSSS00027723119 MCULE-6300327601 MolPort-027-705-865 PubChem-71878931 Z1130073806 ZINC000084576807


 29 33  0  0  0  0  0  0  0  0999 V2000
   17.4990  -10.0049   14.0747 N   0  0  0  0  0  0  0  0  0  0  0  0
   16.1844   -9.3742   14.0050 C   0  0  0  0  0  0  0  0  0  0  0  0
   16.1979   -8.0038   14.6799 C   0  0  0  0  0  0  0  0  0  0  0  0
   16.6270   -8.1163   16.0700 N   0  0  0  0  0  0  0  0  0  0  0  0
   18.0292   -8.4127   16.3426 C   0  0  0  0  0  0  0  0  0  0  0  0
   18.2747   -9.9216   16.4218 C   0  0  0  0  0  0  0  0  0  0  0  0
   17.5488  -10.7281   15.3396 C   0  0  0  0  0  0  0  0  0  0  0  0
   15.6969   -7.9144   17.1413 C   0  0  0  0  0  0  0  0  0  0  0  0
   16.0497   -8.0287   18.4499 N   0  0  0  0  0  0  0  0  0  0  0  0
   14.8963   -7.7691   19.0809 C   0  0  0  0  0  0  0  0  0  0  0  0
   13.9103   -7.5141   18.1766 C   0  0  0  0  0  0  0  0  0  0  0  0
   12.6074   -7.2143   18.5665 C   0  0  0  0  0  0  0  0  0  0  0  0
   12.3369   -7.1823   19.9474 C   0  0  0  0  0  0  0  0  0  0  0  0
   13.3599   -7.4468   20.8855 C   0  0  0  0  0  0  0  0  0  0  0  0
   14.6657   -7.7465   20.4541 C   0  0  0  0  0  0  0  0  0  0  0  0
   14.3908   -7.5998   16.9285 N   0  0  0  0  0  0  0  0  0  0  0  0
   16.9289   -8.2469   18.8356 H   0  0  0  0  0  0  0  0  0  0  0  0
   17.5424  -11.0078   13.0216 C   0  0  0  0  0  0  0  0  0  0  0  0
   17.2371  -10.3997   11.6898 C   0  0  0  0  0  0  0  0  0  0  0  0
   18.1446   -9.8603   10.8565 N   0  0  0  0  0  0  0  0  0  0  0  0
   17.4544   -9.4456    9.8071 N   0  0  0  0  0  0  0  0  0  0  0  0
   16.1588   -9.6941    9.9317 N   0  0  0  0  0  0  0  0  0  0  0  0
   15.9832  -10.3028   11.1217 C   0  0  0  0  0  0  0  0  0  0  0  0
   18.0407   -8.8016    8.6679 C   0  0  0  0  0  0  0  0  0  0  0  0
   18.9613   -7.7570    8.8398 C   0  0  0  0  0  0  0  0  0  0  0  0
   19.5327   -7.1289    7.7293 C   0  0  0  0  0  0  0  0  0  0  0  0
   19.1879   -7.5408    6.4391 C   0  0  0  0  0  0  0  0  0  0  0  0
   18.2717   -8.5805    6.2591 C   0  0  0  0  0  0  0  0  0  0  0  0
   17.6999   -9.2089    7.3693 C   0  0  0  0  0  0  0  0  0  0  0  0
 18 19  1  0  0  0
 19 20  2  0  0  0
 20 21  1  0  0  0
 21 24  1  0  0  0
 24 25  2  0  0  0
 25 26  1  0  0  0
 26 27  2  0  0  0
 27 28  1  0  0  0
 28 29  2  0  0  0
 21 22  1  0  0  0
 22 23  2  0  0  0
 18  1  1  0  0  0
  1  2  1  0  0  0
  2  3  1  0  0  0
  3  4  1  0  0  0
  4  8  1  0  0  0
  8  9  1  0  0  0
  9 10  1  0  0  0
 10 11  2  0  0  0
 11 12  1  0  0  0
 12 13  2  0  0  0
 13 14  1  0  0  0
 14 15  2  0  0  0
 11 16  1  0  0  0
  4  5  1  0  0  0
  5  6  1  0  0  0
  6  7  1  0  0  0
 23 19  1  0  0  0
  7  1  1  0  0  0
 29 24  1  0  0  0
 16  8  2  0  0  0
 15 10  1  0  0  0
  9 17  1  0  0  0
M  END
>  <minimizedAffinity>
-8.96660

>  <minimizedRMSD>
1.43348

$$$$
517534259 CSSS00160447068 MCULE-4646679594 MolPort-046-802-738 Z635929310


 37 41  0  0  0  0  0  0  0  0999 V2000
   18.7070  -10.7428   12.9992 C   0  0  0  0  0  0  0  0  0  0  0  0
   17.3834  -10.2374   16.5211 C   0  0  0  0  0  0  0  0  0  0  0  0
   17.7712   -9.9825   15.1960 C   0  0  0  0  0  0  0  0  0  0  0  0
   18.2946  -11.0104   14.4035 C   0  0  0  0  0  0  0  0  0  0  0  0
   18.4347  -12.2967   14.9331 C   0  0  0  0  0  0  0  0  0  0  0  0
   18.0467  -12.5574   16.2503 C   0  0  0  0  0  0  0  0  0  0  0  0
   17.5199  -11.5312   17.0391 C   0  0  0  0  0  0  0  0  0  0  0  0
   15.0575   -8.5078   15.9889 O   0  0  0  0  0  0  0  0  0  0  0  0
   15.6686   -8.4202   17.0876 C   0  0  0  0  0  0  0  0  0  0  0  0
   16.8304   -9.2141   17.3592 N   0  0  0  0  0  0  0  0  0  0  0  0
   17.2965   -9.0389   18.2085 H   0  0  0  0  0  0  0  0  0  0  0  0
   15.1683   -7.4843   18.1336 C   0  0  0  0  0  0  0  0  0  0  0  0
   13.6556   -7.3391   18.0455 C   0  0  0  0  0  0  0  0  0  0  0  0
   13.0504   -7.4975   19.3657 N   0  0  0  0  0  0  0  0  0  0  0  0
   13.0049   -6.1922   20.0438 C   0  0  0  0  0  0  0  0  0  0  0  0
   11.9105   -5.2900   19.4581 C   0  0  0  0  0  0  0  0  0  0  0  0
   10.6635   -5.9274   19.5621 O   0  0  0  0  0  0  0  0  0  0  0  0
   10.7072   -7.0238   18.6865 C   0  0  0  0  0  0  0  0  0  0  0  0
   11.7034   -8.0667   19.2107 C   0  0  0  0  0  0  0  0  0  0  0  0
   18.0481   -9.5438   12.5049 N   0  0  0  0  0  0  0  0  0  0  0  0
   18.3862   -8.7260   13.0121 H   0  0  0  0  0  0  0  0  0  0  0  0
   18.3707   -9.4206   11.0908 C   0  0  0  0  0  0  0  0  0  0  0  0
   17.1608   -9.6730   10.2483 C   0  0  0  0  0  0  0  0  0  0  0  0
   16.9778   -9.4006    8.9036 C   0  0  0  0  0  0  0  0  0  0  0  0
   15.7576   -9.8393    8.5426 N   0  0  0  0  0  0  0  0  0  0  0  0
   15.1705  -10.3738    9.6028 N   0  0  0  0  0  0  0  0  0  0  0  0
   15.9994  -10.2925   10.6634 C   0  0  0  0  0  0  0  0  0  0  0  0
   14.2689  -10.7690    9.6147 H   0  0  0  0  0  0  0  0  0  0  0  0
   17.9141   -8.7416    7.9678 C   0  0  0  0  0  0  0  0  0  0  0  0
   17.8418   -9.0438    6.5916 C   0  0  0  0  0  0  0  0  0  0  0  0
   18.7270   -8.3998    5.7323 C   0  0  0  0  0  0  0  0  0  0  0  0
   19.6410   -7.5026    6.1799 C   0  0  0  0  0  0  0  0  0  0  0  0
   20.3781   -7.0263    5.1137 O   0  0  0  0  0  0  0  0  0  0  0  0
   19.8970   -7.6629    3.9212 C   0  0  0  0  0  0  0  0  0  0  0  0
   18.8435   -8.5312    4.3628 O   0  0  0  0  0  0  0  0  0  0  0  0
   19.7515   -7.1701    7.5267 C   0  0  0  0  0  0  0  0  0  0  0  0
   18.8717   -7.8018    8.4244 C   0  0  0  0  0  0  0  0  0  0  0  0
  8  9  2  0  0  0
  9 10  1  0  0  0
 10  2  1  0  0  0
  2  3  2  0  0  0
  3  4  1  0  0  0
  4  1  1  0  0  0
  1 20  1  0  0  0
 20 22  1  0  0  0
 22 23  1  0  0  0
 23 24  1  0  0  0
 24 29  1  0  0  0
 29 30  2  0  0  0
 30 31  1  0  0  0
 31 32  2  0  0  0
 32 33  1  0  0  0
 33 34  1  0  0  0
 34 35  1  0  0  0
 32 36  1  0  0  0
 36 37  2  0  0  0
 24 25  2  0  0  0
 25 26  1  0  0  0
 26 27  1  0  0  0
  4  5  2  0  0  0
  5  6  1  0  0  0
  6  7  2  0  0  0
  9 12  1  0  0  0
 12 13  1  0  0  0
 13 14  1  0  0  0
 14 15  1  0  0  0
 15 16  1  0  0  0
 16 17  1  0  0  0
 17 18  1  0  0  0
 18 19  1  0  0  0
  7  2  1  0  0  0
 19 14  1  0  0  0
 27 23  2  0  0  0
 37 29  1  0  0  0
 35 31  1  0  0  0
 10 11  1  0  0  0
 20 21  1  0  0  0
 26 28  1  0  0  0
M  END
>  <minimizedAffinity>
-8.96579

>  <minimizedRMSD>
1.47692

$$$$
CSSS20427834430


 37 42  0  0  0  0  0  0  0  0999 V2000
   18.8584  -12.5862   13.8991 F   0  0  0  0  0  0  0  0  0  0  0  0
   18.2133  -11.7687   14.7681 C   0  0  0  0  0  0  0  0  0  0  0  0
   18.1902  -12.1137   16.1223 C   0  0  0  0  0  0  0  0  0  0  0  0
   17.5360  -11.2973   17.0469 C   0  0  0  0  0  0  0  0  0  0  0  0
   16.8978  -10.1275   16.6289 C   0  0  0  0  0  0  0  0  0  0  0  0
   16.9214   -9.7827   15.2705 C   0  0  0  0  0  0  0  0  0  0  0  0
   17.5744  -10.5919   14.3291 C   0  0  0  0  0  0  0  0  0  0  0  0
   17.5746  -10.1885   12.9072 C   0  0  0  0  0  0  0  0  0  0  0  0
   16.4709  -10.1436   12.0717 C   0  0  0  0  0  0  0  0  0  0  0  0
   16.9545   -9.7234   10.8902 N   0  0  0  0  0  0  0  0  0  0  0  0
   18.2548   -9.5111   10.9911 N   0  0  0  0  0  0  0  0  0  0  0  0
   18.6645   -9.7925   12.2168 N   0  0  0  0  0  0  0  0  0  0  0  0
   16.1737   -9.4678    9.6918 C   0  0  0  0  0  0  0  0  0  0  0  0
   17.0636   -8.9913    8.5959 C   0  0  0  0  0  0  0  0  0  0  0  0
   18.1074   -8.0902    8.7598 C   0  0  0  0  0  0  0  0  0  0  0  0
   18.6725   -7.9835    7.5492 N   0  0  0  0  0  0  0  0  0  0  0  0
   19.7314   -7.2292    7.1651 C   0  0  0  0  0  0  0  0  0  0  0  0
   20.1383   -7.2997    5.8248 C   0  0  0  0  0  0  0  0  0  0  0  0
   19.4448   -8.1411    4.9338 C   0  0  0  0  0  0  0  0  0  0  0  0
   18.3539   -8.9062    5.3771 C   0  0  0  0  0  0  0  0  0  0  0  0
   17.9962   -8.7927    6.7184 C   0  0  0  0  0  0  0  0  0  0  0  0
   16.9888   -9.4473    7.3224 N   0  0  0  0  0  0  0  0  0  0  0  0
   16.2368   -9.3142   17.6077 N   0  0  0  0  0  0  0  0  0  0  0  0
   15.2321   -8.3173   17.3660 C   0  0  0  0  0  0  0  0  0  0  0  0
   14.8435   -8.0805   16.1894 O   0  0  0  0  0  0  0  0  0  0  0  0
   16.5001   -9.4544   18.5459 H   0  0  0  0  0  0  0  0  0  0  0  0
   14.6419   -7.5565   18.4923 C   0  0  0  0  0  0  0  0  0  0  0  0
   13.7077   -6.5461   18.2101 C   0  0  0  0  0  0  0  0  0  0  0  0
   13.1271   -5.8052   19.2400 C   0  0  0  0  0  0  0  0  0  0  0  0
   12.1988   -4.8010   18.9612 C   0  0  0  0  0  0  0  0  0  0  0  0
   11.6429   -4.0884   19.9785 N   0  0  0  0  0  0  0  0  0  0  0  0
   11.9668   -4.3259   21.2792 C   0  0  0  0  0  0  0  0  0  0  0  0
   12.8918   -5.3220   21.6041 C   0  0  0  0  0  0  0  0  0  0  0  0
   13.4760   -6.0667   20.5788 C   0  0  0  0  0  0  0  0  0  0  0  0
   14.4026   -7.0677   20.8704 C   0  0  0  0  0  0  0  0  0  0  0  0
   14.9863   -7.8123   19.8395 C   0  0  0  0  0  0  0  0  0  0  0  0
   15.8817   -8.7750   20.1715 F   0  0  0  0  0  0  0  0  0  0  0  0
  1  2  1  0  0  0
  2  3  2  0  0  0
  3  4  1  0  0  0
  4  5  2  0  0  0
  5 23  1  0  0  0
 23 24  1  0  0  0
 24 25  2  0  0  0
 24 27  1  0  0  0
 27 28  2  0  0  0
 28 29  1  0  0  0
 29 30  2  0  0  0
 30 31  1  0  0  0
 31 32  2  0  0  0
 32 33  1  0  0  0
 33 34  2  0  0  0
 34 35  1  0  0  0
 35 36  2  0  0  0
 36 37  1  0  0  0
  5  6  1  0  0  0
  6  7  2  0  0  0
  7  8  1  0  0  0
  8  9  2  0  0  0
  9 10  1  0  0  0
 10 13  1  0  0  0
 13 14  1  0  0  0
 14 15  2  0  0  0
 15 16  1  0  0  0
 16 17  1  0  0  0
 17 18  2  0  0  0
 18 19  1  0  0  0
 19 20  2  0  0  0
 20 21  1  0  0  0
 21 22  2  0  0  0
 10 11  1  0  0  0
 11 12  2  0  0  0
  7  2  1  0  0  0
 12  8  1  0  0  0
 36 27  1  0  0  0
 22 14  1  0  0  0
 34 29  1  0  0  0
 21 16  1  0  0  0
 23 26  1  0  0  0
M  END
>  <minimizedAffinity>
-8.96536

>  <minimizedRMSD>
2.20793

$$$$
624179489 CSSS00133121732 MCULE-9319433074 MolPort-046-146-282 PubChem-136580140 Z983464578


 25 27  0  0  0  0  0  0  0  0999 V2000
   16.9854  -10.0306   16.2673 C   0  0  0  0  0  0  0  0  0  0  0  0
   17.5818  -11.2427   16.6305 C   0  0  0  0  0  0  0  0  0  0  0  0
   18.2209  -12.0322   15.6706 C   0  0  0  0  0  0  0  0  0  0  0  0
   18.2674  -11.6131   14.3384 C   0  0  0  0  0  0  0  0  0  0  0  0
   17.6760  -10.4042   13.9604 C   0  0  0  0  0  0  0  0  0  0  0  0
   17.0359   -9.6159   14.9280 C   0  0  0  0  0  0  0  0  0  0  0  0
   15.5124   -8.0918   17.0755 C   0  0  0  0  0  0  0  0  0  0  0  0
   15.2814   -7.6547   15.9171 O   0  0  0  0  0  0  0  0  0  0  0  0
   16.3392   -9.2481   17.2803 N   0  0  0  0  0  0  0  0  0  0  0  0
   16.4764   -9.5330   18.2126 H   0  0  0  0  0  0  0  0  0  0  0  0
   15.3017   -8.0791   19.5385 C   0  0  0  0  0  0  0  0  0  0  0  0
   14.9115   -7.3879   18.2465 C   0  0  0  0  0  0  0  0  0  0  0  0
   13.4009   -7.3449   18.1216 C   0  0  0  0  0  0  0  0  0  0  0  0
   17.7354   -9.9948   12.5925 N   0  0  0  0  0  0  0  0  0  0  0  0
   18.6022   -9.7085   12.2239 H   0  0  0  0  0  0  0  0  0  0  0  0
   16.5701   -9.9825   11.7207 C   0  0  0  0  0  0  0  0  0  0  0  0
   16.9714   -9.5613   10.3519 C   0  0  0  0  0  0  0  0  0  0  0  0
   18.0472   -8.6826   10.1632 C   0  0  0  0  0  0  0  0  0  0  0  0
   18.3748   -8.3580    8.8902 N   0  0  0  0  0  0  0  0  0  0  0  0
   19.3414   -7.5545    8.4981 N   0  0  0  0  0  0  0  0  0  0  0  0
   19.3007   -7.5285    7.1426 C   0  0  0  0  0  0  0  0  0  0  0  0
   18.2691   -8.3478    6.6649 C   0  0  0  0  0  0  0  0  0  0  0  0
   17.7264   -8.8400    7.8298 C   0  0  0  0  0  0  0  0  0  0  0  0
   16.6857   -9.6982    7.9639 N   0  0  0  0  0  0  0  0  0  0  0  0
   16.3008  -10.0679    9.2207 C   0  0  0  0  0  0  0  0  0  0  0  0
 11 12  1  0  0  0
 12 13  1  0  0  0
 12  7  1  0  0  0
  7  8  2  0  0  0
  7  9  1  0  0  0
  9  1  1  0  0  0
  1  2  2  0  0  0
  2  3  1  0  0  0
  3  4  2  0  0  0
  4  5  1  0  0  0
  5 14  1  0  0  0
 14 16  1  0  0  0
 16 17  1  0  0  0
 17 18  2  0  0  0
 18 19  1  0  0  0
 19 20  1  0  0  0
 20 21  2  0  0  0
 21 22  1  0  0  0
 22 23  2  0  0  0
 23 24  1  0  0  0
 24 25  2  0  0  0
  5  6  2  0  0  0
  6  1  1  0  0  0
 25 17  1  0  0  0
 23 19  1  0  0  0
  9 10  1  0  0  0
 14 15  1  0  0  0
M  END
>  <minimizedAffinity>
-8.94921

>  <minimizedRMSD>
0.82858

$$$$
6456674 CSSS00132316151 MCULE-6736621395 MolPort-002-288-596 PubChem-135441504 ZINC000006456674 ZINC06456674


 32 35  0  0  0  0  0  0  0  0999 V2000
   17.4203  -11.2358   16.8077 C   0  0  0  0  0  0  0  0  0  0  0  0
   16.8917  -10.0811   16.0990 N   0  0  0  0  0  0  0  0  0  0  0  0
   16.4093   -8.9369   16.6134 C   0  0  0  0  0  0  0  0  0  0  0  0
   15.9958   -8.0988   15.6427 N   0  0  0  0  0  0  0  0  0  0  0  0
   16.2261   -8.7052   14.4855 N   0  0  0  0  0  0  0  0  0  0  0  0
   16.7700   -9.9035   14.7732 C   0  0  0  0  0  0  0  0  0  0  0  0
   16.2799   -8.6464   18.0720 C   0  0  0  0  0  0  0  0  0  0  0  0
   15.0922   -7.7834   18.3196 C   0  0  0  0  0  0  0  0  0  0  0  0
   14.4548   -7.3143   17.3399 O   0  0  0  0  0  0  0  0  0  0  0  0
   14.6775   -7.5298   19.6683 N   0  0  0  0  0  0  0  0  0  0  0  0
   15.2247   -7.9319   20.3811 H   0  0  0  0  0  0  0  0  0  0  0  0
   13.5485   -6.7510   20.0866 C   0  0  0  0  0  0  0  0  0  0  0  0
   12.3444   -6.7409   19.3653 C   0  0  0  0  0  0  0  0  0  0  0  0
   11.2645   -5.9691   19.8036 C   0  0  0  0  0  0  0  0  0  0  0  0
   11.3812   -5.2015   20.9653 C   0  0  0  0  0  0  0  0  0  0  0  0
   10.3357   -4.4528   21.3905 F   0  0  0  0  0  0  0  0  0  0  0  0
   12.5772   -5.2061   21.6880 C   0  0  0  0  0  0  0  0  0  0  0  0
   13.6564   -5.9790   21.2488 C   0  0  0  0  0  0  0  0  0  0  0  0
   17.2677  -11.0964   13.5302 S   0  0  0  0  0  0  0  0  0  0  0  0
   18.4841   -9.9653   12.7836 C   0  0  0  0  0  0  0  0  0  0  0  0
   18.0998   -9.6292   11.3837 C   0  0  0  0  0  0  0  0  0  0  0  0
   18.9237   -8.8573   10.6275 N   0  0  0  0  0  0  0  0  0  0  0  0
   18.5934   -8.5271    9.3531 C   0  0  0  0  0  0  0  0  0  0  0  0
   19.4496   -7.7270    8.5912 C   0  0  0  0  0  0  0  0  0  0  0  0
   19.1054   -7.3865    7.2792 C   0  0  0  0  0  0  0  0  0  0  0  0
   17.9053   -7.8448    6.7260 C   0  0  0  0  0  0  0  0  0  0  0  0
   17.0441   -8.6459    7.4821 C   0  0  0  0  0  0  0  0  0  0  0  0
   17.3827   -8.9910    8.7980 C   0  0  0  0  0  0  0  0  0  0  0  0
   16.5531   -9.7908    9.5953 C   0  0  0  0  0  0  0  0  0  0  0  0
   15.4612  -10.2350    9.1493 O   0  0  0  0  0  0  0  0  0  0  0  0
   16.9295  -10.0908   10.8660 N   0  0  0  0  0  0  0  0  0  0  0  0
   16.3439  -10.6532   11.4228 H   0  0  0  0  0  0  0  0  0  0  0  0
  1  2  1  0  0  0
  2  3  1  0  0  0
  3  7  1  0  0  0
  3  4  2  0  0  0
  7  8  1  0  0  0
  8  9  2  0  0  0
  8 10  1  0  0  0
 10 12  1  0  0  0
 12 13  2  0  0  0
 13 14  1  0  0  0
 14 15  2  0  0  0
 15 16  1  0  0  0
 15 17  1  0  0  0
 17 18  2  0  0  0
 18 12  1  0  0  0
  4  5  1  0  0  0
  5  6  2  0  0  0
  6 19  1  0  0  0
  6  2  1  0  0  0
 19 20  1  0  0  0
 20 21  1  0  0  0
 21 22  2  0  0  0
 22 23  1  0  0  0
 23 24  2  0  0  0
 24 25  1  0  0  0
 25 26  2  0  0  0
 26 27  1  0  0  0
 27 28  2  0  0  0
 28 29  1  0  0  0
 28 23  1  0  0  0
 29 30  2  0  0  0
 29 31  1  0  0  0
 31 21  1  0  0  0
 10 11  1  0  0  0
 31 32  1  0  0  0
M  END
>  <minimizedAffinity>
-8.94887

>  <minimizedRMSD>
2.25589

$$$$
CSSS03437710002 MCULE-7310659528 MolPort-001-841-681 PubChem-2812939 ZINC000001033298 ZINC01033298


 29 32  0  0  0  0  0  0  0  0999 V2000
   17.2921   -9.8172   11.9972 C   0  0  0  0  0  0  0  0  0  0  0  0
   16.2893   -9.6201   12.8961 N   0  0  0  0  0  0  0  0  0  0  0  0
   16.4696   -9.8554   14.2222 C   0  0  0  0  0  0  0  0  0  0  0  0
   17.6695  -10.3006   14.6765 N   0  0  0  0  0  0  0  0  0  0  0  0
   18.7000  -10.5127   13.8186 C   0  0  0  0  0  0  0  0  0  0  0  0
   18.5319  -10.2740   12.4559 C   0  0  0  0  0  0  0  0  0  0  0  0
   14.7432  -10.6447   10.2794 C   0  0  0  0  0  0  0  0  0  0  0  0
   15.9460   -9.9074    9.7995 C   0  0  0  0  0  0  0  0  0  0  0  0
   17.0599   -9.5462   10.5551 C   0  0  0  0  0  0  0  0  0  0  0  0
   17.8960   -8.8967    9.7199 N   0  0  0  0  0  0  0  0  0  0  0  0
   19.1156   -8.3378    9.9379 C   0  0  0  0  0  0  0  0  0  0  0  0
   19.7659   -7.7180    8.8620 C   0  0  0  0  0  0  0  0  0  0  0  0
   19.1452   -7.6921    7.6003 C   0  0  0  0  0  0  0  0  0  0  0  0
   17.8852   -8.2805    7.4148 C   0  0  0  0  0  0  0  0  0  0  0  0
   17.2866   -8.8819    8.5196 C   0  0  0  0  0  0  0  0  0  0  0  0
   16.0851   -9.4912    8.5195 N   0  0  0  0  0  0  0  0  0  0  0  0
   15.1253   -9.5844   15.3663 S   0  0  0  0  0  0  0  0  0  0  0  0
   16.1784   -8.6218   16.4913 C   0  0  0  0  0  0  0  0  0  0  0  0
   15.3470   -7.9738   17.5414 C   0  0  0  0  0  0  0  0  0  0  0  0
   14.3318   -7.3120   17.1993 O   0  0  0  0  0  0  0  0  0  0  0  0
   15.7241   -8.0992   18.9194 N   0  0  0  0  0  0  0  0  0  0  0  0
   16.5419   -8.6138   19.1080 H   0  0  0  0  0  0  0  0  0  0  0  0
   15.0332   -7.5528   20.0509 C   0  0  0  0  0  0  0  0  0  0  0  0
   15.7735   -6.8865   21.0341 C   0  0  0  0  0  0  0  0  0  0  0  0
   15.1358   -6.3418   22.1529 C   0  0  0  0  0  0  0  0  0  0  0  0
   13.7508   -6.4615   22.2948 C   0  0  0  0  0  0  0  0  0  0  0  0
   13.1327   -5.9339   23.3785 F   0  0  0  0  0  0  0  0  0  0  0  0
   13.0036   -7.1257   21.3186 C   0  0  0  0  0  0  0  0  0  0  0  0
   13.6425   -7.6697   20.2006 C   0  0  0  0  0  0  0  0  0  0  0  0
  7  8  1  0  0  0
  8  9  2  0  0  0
  9 10  1  0  0  0
  9  1  1  0  0  0
 10 11  1  0  0  0
 11 12  2  0  0  0
 12 13  1  0  0  0
 13 14  2  0  0  0
 14 15  1  0  0  0
 15 16  2  0  0  0
 15 10  1  0  0  0
 16  8  1  0  0  0
  1  2  2  0  0  0
  2  3  1  0  0  0
  3 17  1  0  0  0
  3  4  2  0  0  0
 17 18  1  0  0  0
 18 19  1  0  0  0
 19 20  2  0  0  0
 19 21  1  0  0  0
 21 23  1  0  0  0
 23 24  2  0  0  0
 24 25  1  0  0  0
 25 26  2  0  0  0
 26 27  1  0  0  0
 26 28  1  0  0  0
 28 29  2  0  0  0
 29 23  1  0  0  0
  4  5  1  0  0  0
  5  6  2  0  0  0
  6  1  1  0  0  0
 21 22  1  0  0  0
M  END
>  <minimizedAffinity>
-8.93123

>  <minimizedRMSD>
1.49202

$$$$
CSC064700896 CSSS00064700896 MCULE-6106340490 MolPort-046-431-949 PubChem-137972546 Z1502743798


 29 32  0  0  0  0  0  0  0  0999 V2000
   17.0113   -8.7915   16.2629 C   0  0  0  0  0  0  0  0  0  0  0  0
   18.3107   -8.6979   16.7823 C   0  0  0  0  0  0  0  0  0  0  0  0
   19.3910   -9.2519   16.0893 C   0  0  0  0  0  0  0  0  0  0  0  0
   19.1795   -9.9055   14.8725 C   0  0  0  0  0  0  0  0  0  0  0  0
   17.8867  -10.0104   14.3504 C   0  0  0  0  0  0  0  0  0  0  0  0
   16.8075   -9.4490   15.0407 C   0  0  0  0  0  0  0  0  0  0  0  0
   14.8916   -7.7325   16.3551 O   0  0  0  0  0  0  0  0  0  0  0  0
   15.8739   -8.2033   16.9917 C   0  0  0  0  0  0  0  0  0  0  0  0
   15.8826   -8.1651   18.4210 N   0  0  0  0  0  0  0  0  0  0  0  0
   16.6556   -8.5380   18.9034 H   0  0  0  0  0  0  0  0  0  0  0  0
   14.7853   -7.5925   19.1840 C   0  0  0  0  0  0  0  0  0  0  0  0
   15.0393   -7.7769   20.6682 C   0  0  0  0  0  0  0  0  0  0  0  0
   13.7863   -7.4486   21.4437 C   0  0  0  0  0  0  0  0  0  0  0  0
   14.2916   -6.7182   22.6509 C   0  0  0  0  0  0  0  0  0  0  0  0
   15.7881   -6.6702   22.4491 C   0  0  0  0  0  0  0  0  0  0  0  0
   16.0614   -6.9164   21.0960 O   0  0  0  0  0  0  0  0  0  0  0  0
   17.6643  -10.6839   13.0429 C   0  0  0  0  0  0  0  0  0  0  0  0
   18.1173   -9.8213   11.9635 N   0  0  0  0  0  0  0  0  0  0  0  0
   18.9344   -9.2874   12.0921 H   0  0  0  0  0  0  0  0  0  0  0  0
   17.4158   -9.7228   10.7220 C   0  0  0  0  0  0  0  0  0  0  0  0
   16.2181  -10.3488   10.5540 N   0  0  0  0  0  0  0  0  0  0  0  0
   15.5363  -10.2660    9.3797 C   0  0  0  0  0  0  0  0  0  0  0  0
   16.0436   -9.5493    8.3419 N   0  0  0  0  0  0  0  0  0  0  0  0
   17.2340   -8.9078    8.4615 C   0  0  0  0  0  0  0  0  0  0  0  0
   17.7401   -8.1916    7.4239 N   0  0  0  0  0  0  0  0  0  0  0  0
   18.9320   -7.5460    7.5356 C   0  0  0  0  0  0  0  0  0  0  0  0
   19.6483   -7.6187    8.7344 C   0  0  0  0  0  0  0  0  0  0  0  0
   19.1451   -8.3346    9.7755 N   0  0  0  0  0  0  0  0  0  0  0  0
   17.9535   -8.9811    9.6662 C   0  0  0  0  0  0  0  0  0  0  0  0
  7  8  2  0  0  0
  8  9  1  0  0  0
  9 11  1  0  0  0
 11 12  1  0  0  0
 12 13  1  0  0  0
 13 14  1  0  0  0
 14 15  1  0  0  0
 15 16  1  0  0  0
  8  1  1  0  0  0
  1  2  2  0  0  0
  2  3  1  0  0  0
  3  4  2  0  0  0
  4  5  1  0  0  0
  5 17  1  0  0  0
 17 18  1  0  0  0
 18 20  1  0  0  0
 20 21  2  0  0  0
 21 22  1  0  0  0
 22 23  2  0  0  0
 23 24  1  0  0  0
 24 25  2  0  0  0
 25 26  1  0  0  0
 26 27  2  0  0  0
 27 28  1  0  0  0
 28 29  2  0  0  0
  5  6  2  0  0  0
 16 12  1  0  0  0
  6  1  1  0  0  0
 29 20  1  0  0  0
 29 24  1  0  0  0
  9 10  1  0  0  0
 18 19  1  0  0  0
M  END
>  <minimizedAffinity>
-8.92555

>  <minimizedRMSD>
1.40862

$$$$
CSC027015329 18378123 CSSS00027015329 MCULE-7923765235 MolPort-005-697-091 PubChem-45352009 Z98952172 ZINC000018378123 ZINC18378123


 31 34  0  0  0  0  0  0  0  0999 V2000
   17.5332  -10.2957   13.0300 C   0  0  0  0  0  0  0  0  0  0  0  0
   18.0073  -11.4615   12.9306 O   0  0  0  0  0  0  0  0  0  0  0  0
   17.1117   -9.7807   14.3426 C   0  0  0  0  0  0  0  0  0  0  0  0
   17.3419  -10.5246   15.5083 C   0  0  0  0  0  0  0  0  0  0  0  0
   16.9412  -10.0292   16.7524 C   0  0  0  0  0  0  0  0  0  0  0  0
   16.3061   -8.7868   16.8490 C   0  0  0  0  0  0  0  0  0  0  0  0
   16.0761   -8.0422   15.6827 C   0  0  0  0  0  0  0  0  0  0  0  0
   16.4761   -8.5362   14.4382 C   0  0  0  0  0  0  0  0  0  0  0  0
   15.9124   -8.3122   18.1437 N   0  0  0  0  0  0  0  0  0  0  0  0
   14.7201   -7.5815   18.4658 C   0  0  0  0  0  0  0  0  0  0  0  0
   13.8769   -7.2932   17.5745 O   0  0  0  0  0  0  0  0  0  0  0  0
   16.5241   -8.5083   18.8897 H   0  0  0  0  0  0  0  0  0  0  0  0
   14.4797   -7.1641   19.8515 C   0  0  0  0  0  0  0  0  0  0  0  0
   15.3720   -7.2993   20.9036 C   0  0  0  0  0  0  0  0  0  0  0  0
   14.8619   -6.8077   22.1142 C   0  0  0  0  0  0  0  0  0  0  0  0
   13.5736   -6.2848   22.0274 C   0  0  0  0  0  0  0  0  0  0  0  0
   13.0795   -6.4426   20.4271 S   0  0  0  0  0  0  0  0  0  0  0  0
   17.4077   -9.4881   11.8975 O   0  0  0  0  0  0  0  0  0  0  0  0
   18.5180   -8.8036   11.3361 C   0  0  0  0  0  0  0  0  0  0  0  0
   20.9650   -6.4721    4.8284 C   0  0  0  0  0  0  0  0  0  0  0  0
   20.0042   -7.2793    5.6242 C   0  0  0  0  0  0  0  0  0  0  0  0
   20.0962   -7.3031    7.0145 C   0  0  0  0  0  0  0  0  0  0  0  0
   19.1867   -8.0664    7.7500 C   0  0  0  0  0  0  0  0  0  0  0  0
   19.2777   -8.0878    9.1048 N   0  0  0  0  0  0  0  0  0  0  0  0
   18.4152   -8.8207    9.8529 C   0  0  0  0  0  0  0  0  0  0  0  0
   17.4074   -9.5536    9.2334 C   0  0  0  0  0  0  0  0  0  0  0  0
   17.3168   -9.5296    7.8426 C   0  0  0  0  0  0  0  0  0  0  0  0
   16.4067  -10.1972    7.2786 O   0  0  0  0  0  0  0  0  0  0  0  0
   18.2046   -8.7891    7.1086 N   0  0  0  0  0  0  0  0  0  0  0  0
   18.1143   -8.7658    5.7451 C   0  0  0  0  0  0  0  0  0  0  0  0
   19.0092   -8.0136    4.9820 C   0  0  0  0  0  0  0  0  0  0  0  0
 20 21  1  0  0  0
 21 22  2  0  0  0
 22 23  1  0  0  0
 23 24  2  0  0  0
 24 25  1  0  0  0
 25 19  1  0  0  0
 25 26  2  0  0  0
 19 18  1  0  0  0
 18  1  1  0  0  0
  1  2  2  0  0  0
  1  3  1  0  0  0
  3  4  2  0  0  0
  4  5  1  0  0  0
  5  6  2  0  0  0
  6  9  1  0  0  0
  6  7  1  0  0  0
  9 10  1  0  0  0
 10 11  2  0  0  0
 10 13  1  0  0  0
 13 14  2  0  0  0
 14 15  1  0  0  0
 15 16  2  0  0  0
 16 17  1  0  0  0
 17 13  1  0  0  0
  7  8  2  0  0  0
  8  3  1  0  0  0
 26 27  1  0  0  0
 27 28  2  0  0  0
 27 29  1  0  0  0
 29 30  1  0  0  0
 29 23  1  0  0  0
 30 31  2  0  0  0
 31 21  1  0  0  0
  9 12  1  0  0  0
M  END
>  <minimizedAffinity>
-8.92184

>  <minimizedRMSD>
1.35132

$$$$
CSC028192015 11620494 CSSS00028192015 MCULE-4289455964 MolPort-009-401-677 PubChem-42068846 Z139775300 ZINC000011620494 ZINC11620494


 28 30  0  0  0  0  0  0  0  0999 V2000
   16.4373   -8.9385   13.1878 N   0  0  0  0  0  0  0  0  0  0  0  0
   16.4806   -7.9938   12.9140 H   0  0  0  0  0  0  0  0  0  0  0  0
   17.8686  -10.2296   14.7002 C   0  0  0  0  0  0  0  0  0  0  0  0
   18.2670  -10.5673   16.0038 C   0  0  0  0  0  0  0  0  0  0  0  0
   17.6549   -9.9707   17.1084 C   0  0  0  0  0  0  0  0  0  0  0  0
   16.6378   -9.0301   16.9301 C   0  0  0  0  0  0  0  0  0  0  0  0
   16.2387   -8.6915   15.6300 C   0  0  0  0  0  0  0  0  0  0  0  0
   16.8475   -9.2847   14.5140 C   0  0  0  0  0  0  0  0  0  0  0  0
   16.0324   -8.4390   18.0881 N   0  0  0  0  0  0  0  0  0  0  0  0
   14.8215   -7.6733   18.1250 C   0  0  0  0  0  0  0  0  0  0  0  0
   14.3416   -7.1341   19.4236 C   0  0  0  0  0  0  0  0  0  0  0  0
   14.1562   -7.4484   17.0796 O   0  0  0  0  0  0  0  0  0  0  0  0
   16.4965   -8.5729   18.9460 H   0  0  0  0  0  0  0  0  0  0  0  0
   18.7829  -12.2036   13.5170 C   0  0  0  0  0  0  0  0  0  0  0  0
   18.4714  -10.8186   13.5830 O   0  0  0  0  0  0  0  0  0  0  0  0
   15.9588   -9.9195   12.2253 C   0  0  0  0  0  0  0  0  0  0  0  0
   16.4359   -9.5579   10.8595 C   0  0  0  0  0  0  0  0  0  0  0  0
   15.6715   -9.8405    9.7125 C   0  0  0  0  0  0  0  0  0  0  0  0
   14.0957  -10.6084    9.8322 Cl  0  0  0  0  0  0  0  0  0  0  0  0
   16.1509   -9.5164    8.4805 N   0  0  0  0  0  0  0  0  0  0  0  0
   17.3635   -8.9246    8.3174 C   0  0  0  0  0  0  0  0  0  0  0  0
   17.8252   -8.6058    7.0373 C   0  0  0  0  0  0  0  0  0  0  0  0
   19.0755   -7.9990    6.8771 C   0  0  0  0  0  0  0  0  0  0  0  0
   19.5657   -7.6601    5.5160 C   0  0  0  0  0  0  0  0  0  0  0  0
   19.8658   -7.7110    7.9956 C   0  0  0  0  0  0  0  0  0  0  0  0
   19.4099   -8.0277    9.2794 C   0  0  0  0  0  0  0  0  0  0  0  0
   18.1613   -8.6329    9.4437 C   0  0  0  0  0  0  0  0  0  0  0  0
   17.6889   -8.9568   10.7142 C   0  0  0  0  0  0  0  0  0  0  0  0
 14 15  1  0  0  0
 15  3  1  0  0  0
  3  4  2  0  0  0
  4  5  1  0  0  0
  5  6  2  0  0  0
  6  9  1  0  0  0
  6  7  1  0  0  0
  9 10  1  0  0  0
 10 11  1  0  0  0
 10 12  2  0  0  0
  7  8  2  0  0  0
  8  1  1  0  0  0
  8  3  1  0  0  0
  1 16  1  0  0  0
 16 17  1  0  0  0
 17 18  2  0  0  0
 18 19  1  0  0  0
 18 20  1  0  0  0
 20 21  2  0  0  0
 21 22  1  0  0  0
 22 23  2  0  0  0
 23 24  1  0  0  0
 23 25  1  0  0  0
 25 26  2  0  0  0
 26 27  1  0  0  0
 27 28  2  0  0  0
 27 21  1  0  0  0
 28 17  1  0  0  0
  9 13  1  0  0  0
  1  2  1  0  0  0
M  END
>  <minimizedAffinity>
-8.91226

>  <minimizedRMSD>
1.08034

$$$$
5206115 CSSS00160778509 LN00749723 MCULE-1099906869 MolPort-000-489-558 PubChem-4870511 ZINC000005206115 ZINC05206115


 30 32  0  0  0  0  0  0  0  0999 V2000
   17.9407   -9.2185   15.8511 C   0  0  0  0  0  0  0  0  0  0  0  0
   16.2415   -8.6147   17.6178 N   0  0  0  0  0  0  0  0  0  0  0  0
   16.7942   -8.3864   16.3149 C   0  0  0  0  0  0  0  0  0  0  0  0
   16.3155   -7.5116   15.5452 O   0  0  0  0  0  0  0  0  0  0  0  0
   16.6663   -9.3178   18.1604 H   0  0  0  0  0  0  0  0  0  0  0  0
   12.9969   -6.5732   19.4479 C   0  0  0  0  0  0  0  0  0  0  0  0
   12.9390   -6.8906   18.0845 C   0  0  0  0  0  0  0  0  0  0  0  0
   14.0000   -7.5618   17.4708 C   0  0  0  0  0  0  0  0  0  0  0  0
   15.1339   -7.9248   18.2125 C   0  0  0  0  0  0  0  0  0  0  0  0
   15.1909   -7.6077   19.5733 C   0  0  0  0  0  0  0  0  0  0  0  0
   14.1306   -6.9364   20.1887 C   0  0  0  0  0  0  0  0  0  0  0  0
   10.6568   -6.3229   19.5747 F   0  0  0  0  0  0  0  0  0  0  0  0
   11.8492   -5.8518   20.0933 C   0  0  0  0  0  0  0  0  0  0  0  0
   11.9511   -4.4969   19.8355 F   0  0  0  0  0  0  0  0  0  0  0  0
   11.8465   -6.0457   21.4645 F   0  0  0  0  0  0  0  0  0  0  0  0
   17.4747  -10.2906   14.8738 C   0  0  0  0  0  0  0  0  0  0  0  0
   16.6734   -9.6917   13.7272 C   0  0  0  0  0  0  0  0  0  0  0  0
   17.2964  -10.0619   12.3952 C   0  0  0  0  0  0  0  0  0  0  0  0
   16.2149  -10.1234   11.3311 C   0  0  0  0  0  0  0  0  0  0  0  0
   16.7605   -9.7592   10.0285 N   0  0  0  0  0  0  0  0  0  0  0  0
   16.1855  -10.3072    8.9235 C   0  0  0  0  0  0  0  0  0  0  0  0
   16.6383   -9.9966    7.6813 N   0  0  0  0  0  0  0  0  0  0  0  0
   17.6685   -9.1313    7.5118 C   0  0  0  0  0  0  0  0  0  0  0  0
   18.1222   -8.8247    6.2257 C   0  0  0  0  0  0  0  0  0  0  0  0
   19.1821   -7.9291    6.0530 C   0  0  0  0  0  0  0  0  0  0  0  0
   19.7900   -7.3376    7.1649 C   0  0  0  0  0  0  0  0  0  0  0  0
   19.3406   -7.6399    8.4540 C   0  0  0  0  0  0  0  0  0  0  0  0
   18.2787   -8.5381    8.6348 C   0  0  0  0  0  0  0  0  0  0  0  0
   17.7946   -8.8698    9.9082 C   0  0  0  0  0  0  0  0  0  0  0  0
   18.3089   -8.3471   10.9367 O   0  0  0  0  0  0  0  0  0  0  0  0
 12 13  1  0  0  0
 13 14  1  0  0  0
 13 15  1  0  0  0
 13  6  1  0  0  0
  6  7  2  0  0  0
  7  8  1  0  0  0
  8  9  2  0  0  0
  9  2  1  0  0  0
  9 10  1  0  0  0
  2  3  1  0  0  0
  3  4  2  0  0  0
  3  1  1  0  0  0
  1 16  1  0  0  0
 16 17  1  0  0  0
 17 18  1  0  0  0
 18 19  1  0  0  0
 19 20  1  0  0  0
 20 21  1  0  0  0
 21 22  2  0  0  0
 22 23  1  0  0  0
 23 24  2  0  0  0
 24 25  1  0  0  0
 25 26  2  0  0  0
 26 27  1  0  0  0
 27 28  2  0  0  0
 28 29  1  0  0  0
 28 23  1  0  0  0
 29 30  2  0  0  0
 29 20  1  0  0  0
 10 11  2  0  0  0
 11  6  1  0  0  0
  2  5  1  0  0  0
M  END
>  <minimizedAffinity>
-8.90398

>  <minimizedRMSD>
1.11593

$$$$
CSSS14948295137


 30 33  0  0  0  0  0  0  0  0999 V2000
   16.3361   -9.0869   15.8313 C   0  0  0  0  0  0  0  0  0  0  0  0
   16.3451  -10.5253   16.3163 C   0  0  0  0  0  0  0  0  0  0  0  0
   17.4795  -10.8400   15.3617 C   0  0  0  0  0  0  0  0  0  0  0  0
   17.4721   -9.4006   14.8789 C   0  0  0  0  0  0  0  0  0  0  0  0
   16.9856   -9.3419   13.5079 N   0  0  0  0  0  0  0  0  0  0  0  0
   17.7740   -9.7673   12.3914 C   0  0  0  0  0  0  0  0  0  0  0  0
   18.9480  -10.1837   12.5868 O   0  0  0  0  0  0  0  0  0  0  0  0
   16.0789   -8.9960   13.3422 H   0  0  0  0  0  0  0  0  0  0  0  0
   17.1976   -9.7139   11.0212 C   0  0  0  0  0  0  0  0  0  0  0  0
   17.8071   -9.0373    9.9338 C   0  0  0  0  0  0  0  0  0  0  0  0
   19.0218   -8.3439   10.0633 C   0  0  0  0  0  0  0  0  0  0  0  0
   19.5887   -7.6859    8.9691 C   0  0  0  0  0  0  0  0  0  0  0  0
   18.9491   -7.7116    7.7281 C   0  0  0  0  0  0  0  0  0  0  0  0
   17.7398   -8.3936    7.5790 C   0  0  0  0  0  0  0  0  0  0  0  0
   17.1654   -9.0540    8.6691 C   0  0  0  0  0  0  0  0  0  0  0  0
   15.9855   -9.7073    8.5085 N   0  0  0  0  0  0  0  0  0  0  0  0
   15.3867  -10.3581    9.5378 C   0  0  0  0  0  0  0  0  0  0  0  0
   15.9786  -10.3697   10.7998 C   0  0  0  0  0  0  0  0  0  0  0  0
   16.8280   -8.1622   16.9353 C   0  0  0  0  0  0  0  0  0  0  0  0
   14.7215   -7.7463   18.2702 C   0  0  0  0  0  0  0  0  0  0  0  0
   14.2523   -7.0072   17.3642 O   0  0  0  0  0  0  0  0  0  0  0  0
   16.0169   -8.3339   18.1321 N   0  0  0  0  0  0  0  0  0  0  0  0
   16.3738   -8.8745   18.8734 H   0  0  0  0  0  0  0  0  0  0  0  0
   13.9042   -8.0396   19.4799 C   0  0  0  0  0  0  0  0  0  0  0  0
   12.7407   -5.2497   20.4934 C   0  0  0  0  0  0  0  0  0  0  0  0
   12.0231   -6.3068   19.7310 C   0  0  0  0  0  0  0  0  0  0  0  0
   10.7507   -6.2173   19.3122 N   0  0  0  0  0  0  0  0  0  0  0  0
   10.5202   -7.3263   18.6643 O   0  0  0  0  0  0  0  0  0  0  0  0
   11.5429   -8.1358   18.6240 N   0  0  0  0  0  0  0  0  0  0  0  0
   12.5190   -7.5129   19.3051 C   0  0  0  0  0  0  0  0  0  0  0  0
 25 26  1  0  0  0
 26 27  2  0  0  0
 27 28  1  0  0  0
 28 29  1  0  0  0
 29 30  2  0  0  0
 30 24  1  0  0  0
 24 20  1  0  0  0
 20 21  2  0  0  0
 20 22  1  0  0  0
 22 19  1  0  0  0
  1 19  1  0  0  0
  1  2  1  0  0  0
  2  3  1  0  0  0
  3  4  1  0  0  0
  4  5  1  0  0  0
  5  6  1  0  0  0
  6  7  2  0  0  0
  6  9  1  0  0  0
  9 10  1  0  0  0
 10 11  2  0  0  0
 11 12  1  0  0  0
 12 13  2  0  0  0
 13 14  1  0  0  0
 14 15  2  0  0  0
 15 16  1  0  0  0
 16 17  2  0  0  0
 17 18  1  0  0  0
 30 26  1  0  0  0
  4  1  1  0  0  0
 18  9  2  0  0  0
 15 10  1  0  0  0
 22 23  1  0  0  0
  5  8  1  0  0  0
M  END
>  <minimizedAffinity>
-8.90330

>  <minimizedRMSD>
2.12139

$$$$
CSSS14929155821


 31 34  0  0  0  0  0  0  0  0999 V2000
   15.9964   -9.2122   13.1494 C   0  0  0  0  0  0  0  0  0  0  0  0
   15.9606   -7.9789   12.8874 O   0  0  0  0  0  0  0  0  0  0  0  0
   15.4651  -10.1534   12.2144 N   0  0  0  0  0  0  0  0  0  0  0  0
   15.4854  -11.1115   12.4401 H   0  0  0  0  0  0  0  0  0  0  0  0
   14.8455   -7.0929   18.0412 O   0  0  0  0  0  0  0  0  0  0  0  0
   15.5528   -8.0292   17.2994 C   0  0  0  0  0  0  0  0  0  0  0  0
   15.4419   -8.1211   15.9481 N   0  0  0  0  0  0  0  0  0  0  0  0
   16.2775   -9.1316   15.6610 C   0  0  0  0  0  0  0  0  0  0  0  0
   16.8435   -9.5982   16.8052 C   0  0  0  0  0  0  0  0  0  0  0  0
   16.4047   -8.9184   17.8725 N   0  0  0  0  0  0  0  0  0  0  0  0
   17.7326  -10.6214   16.8153 N   0  0  0  0  0  0  0  0  0  0  0  0
   18.0747  -11.2083   15.6295 C   0  0  0  0  0  0  0  0  0  0  0  0
   17.5115  -10.7563   14.4156 C   0  0  0  0  0  0  0  0  0  0  0  0
   16.5873   -9.6913   14.4152 C   0  0  0  0  0  0  0  0  0  0  0  0
   14.2663   -6.4950   17.6110 H   0  0  0  0  0  0  0  0  0  0  0  0
   16.6381   -9.0330   18.8221 H   0  0  0  0  0  0  0  0  0  0  0  0
   14.8953   -9.7434   10.9404 C   0  0  0  0  0  0  0  0  0  0  0  0
   15.4657  -10.5934    9.8175 C   0  0  0  0  0  0  0  0  0  0  0  0
   16.5339   -9.8527    9.0880 C   0  0  0  0  0  0  0  0  0  0  0  0
   16.6560   -9.8656    7.7383 N   0  0  0  0  0  0  0  0  0  0  0  0
   17.6801   -9.0694    7.3405 C   0  0  0  0  0  0  0  0  0  0  0  0
   18.3576   -8.4227    8.3613 C   0  0  0  0  0  0  0  0  0  0  0  0
   17.6720   -8.8433    9.8331 S   0  0  0  0  0  0  0  0  0  0  0  0
   19.4210   -7.5607    8.1152 C   0  0  0  0  0  0  0  0  0  0  0  0
   19.8077   -7.3619    6.7810 C   0  0  0  0  0  0  0  0  0  0  0  0
   19.1421   -8.0264    5.7264 C   0  0  0  0  0  0  0  0  0  0  0  0
   18.0546   -8.8765    6.0115 C   0  0  0  0  0  0  0  0  0  0  0  0
   19.5350   -7.7600    4.3024 C   0  0  0  0  0  0  0  0  0  0  0  0
   20.0470   -6.4803    4.1740 F   0  0  0  0  0  0  0  0  0  0  0  0
   20.4992   -8.6637    3.8906 F   0  0  0  0  0  0  0  0  0  0  0  0
   18.4229   -7.8849    3.4909 F   0  0  0  0  0  0  0  0  0  0  0  0
  5  6  1  0  0  0
  6  7  2  0  0  0
  7  8  1  0  0  0
  8  9  2  0  0  0
  9 10  1  0  0  0
  9 11  1  0  0  0
 11 12  2  0  0  0
 12 13  1  0  0  0
 13 14  2  0  0  0
 14  1  1  0  0  0
  1  2  2  0  0  0
  1  3  1  0  0  0
  3 17  1  0  0  0
 17 18  1  0  0  0
 18 19  1  0  0  0
 19 20  2  0  0  0
 20 21  1  0  0  0
 21 22  2  0  0  0
 22 23  1  0  0  0
 22 24  1  0  0  0
 24 25  2  0  0  0
 25 26  1  0  0  0
 26 27  2  0  0  0
 26 28  1  0  0  0
 28 29  1  0  0  0
 28 30  1  0  0  0
 28 31  1  0  0  0
 10  6  1  0  0  0
 23 19  1  0  0  0
 14  8  1  0  0  0
 27 21  1  0  0  0
  5 15  1  0  0  0
 10 16  1  0  0  0
  3  4  1  0  0  0
M  END
>  <minimizedAffinity>
-8.88294

>  <minimizedRMSD>
1.53010

$$$$
CSC093698785 CSSS00093698785


 31 34  0  0  0  0  0  0  0  0999 V2000
   17.0581  -10.1030   16.5780 C   0  0  0  0  0  0  0  0  0  0  0  0
   17.4168  -11.4257   16.8611 C   0  0  0  0  0  0  0  0  0  0  0  0
   18.1508  -12.1740   15.9358 C   0  0  0  0  0  0  0  0  0  0  0  0
   18.5331  -11.6014   14.7198 C   0  0  0  0  0  0  0  0  0  0  0  0
   18.1856  -10.2782   14.4309 C   0  0  0  0  0  0  0  0  0  0  0  0
   17.4448   -9.5343   15.3548 C   0  0  0  0  0  0  0  0  0  0  0  0
   15.3509   -7.7484   16.1502 O   0  0  0  0  0  0  0  0  0  0  0  0
   15.4768   -8.2192   17.3138 C   0  0  0  0  0  0  0  0  0  0  0  0
   16.3025   -9.3698   17.5516 N   0  0  0  0  0  0  0  0  0  0  0  0
   16.3554   -9.6890   18.4814 H   0  0  0  0  0  0  0  0  0  0  0  0
   14.7702   -7.5826   18.4395 C   0  0  0  0  0  0  0  0  0  0  0  0
   13.5241   -6.9733   18.2432 C   0  0  0  0  0  0  0  0  0  0  0  0
   12.8715   -6.3751   19.3234 C   0  0  0  0  0  0  0  0  0  0  0  0
   13.4441   -6.3851   20.5568 N   0  0  0  0  0  0  0  0  0  0  0  0
   14.6527   -6.9692   20.7748 C   0  0  0  0  0  0  0  0  0  0  0  0
   15.3368   -7.5778   19.7203 C   0  0  0  0  0  0  0  0  0  0  0  0
   18.5711   -9.6738   13.1275 C   0  0  0  0  0  0  0  0  0  0  0  0
   17.4962   -9.8540   12.1646 N   0  0  0  0  0  0  0  0  0  0  0  0
   16.6453  -10.2457   12.4677 H   0  0  0  0  0  0  0  0  0  0  0  0
   17.6359   -9.4809   10.7940 C   0  0  0  0  0  0  0  0  0  0  0  0
   16.8228  -10.0610    9.8523 N   0  0  0  0  0  0  0  0  0  0  0  0
   16.9231   -9.7357    8.5300 C   0  0  0  0  0  0  0  0  0  0  0  0
   16.1716  -10.2758    7.6765 O   0  0  0  0  0  0  0  0  0  0  0  0
   17.8758   -8.7963    8.1647 C   0  0  0  0  0  0  0  0  0  0  0  0
   18.2544   -8.2394    6.9642 C   0  0  0  0  0  0  0  0  0  0  0  0
   19.2583   -7.3666    7.2448 N   0  0  0  0  0  0  0  0  0  0  0  0
   19.5147   -7.3592    8.5513 N   0  0  0  0  0  0  0  0  0  0  0  0
   18.6674   -8.2343    9.1062 C   0  0  0  0  0  0  0  0  0  0  0  0
   18.5726   -8.5534   10.4190 N   0  0  0  0  0  0  0  0  0  0  0  0
   20.1926   -6.8178    9.0166 H   0  0  0  0  0  0  0  0  0  0  0  0
   19.1607   -8.1306   11.0858 H   0  0  0  0  0  0  0  0  0  0  0  0
  7  8  2  0  0  0
  8  9  1  0  0  0
  9  1  1  0  0  0
  1  2  2  0  0  0
  2  3  1  0  0  0
  3  4  2  0  0  0
  4  5  1  0  0  0
  5 17  1  0  0  0
 17 18  1  0  0  0
 18 20  1  0  0  0
 20 21  2  0  0  0
 21 22  1  0  0  0
 22 23  2  0  0  0
 22 24  1  0  0  0
 24 25  1  0  0  0
 25 26  2  0  0  0
 26 27  1  0  0  0
 27 28  1  0  0  0
 28 29  1  0  0  0
  5  6  2  0  0  0
  8 11  1  0  0  0
 11 12  2  0  0  0
 12 13  1  0  0  0
 13 14  2  0  0  0
 14 15  1  0  0  0
 15 16  2  0  0  0
  6  1  1  0  0  0
 16 11  1  0  0  0
 29 20  1  0  0  0
 28 24  2  0  0  0
  9 10  1  0  0  0
 18 19  1  0  0  0
 27 30  1  0  0  0
 29 31  1  0  0  0
M  END
>  <minimizedAffinity>
-8.83946

>  <minimizedRMSD>
0.81021

$$$$
CSSS20521987500


 25 29  0  0  0  0  0  0  0  0999 V2000
   16.9073   -9.6430   11.5362 C   0  0  0  0  0  0  0  0  0  0  0  0
   15.6902   -9.9199   12.0464 N   0  0  0  0  0  0  0  0  0  0  0  0
   15.8753   -9.9944   13.3286 O   0  0  0  0  0  0  0  0  0  0  0  0
   17.1380   -9.7783   13.6035 C   0  0  0  0  0  0  0  0  0  0  0  0
   17.8577   -9.5423   12.4905 N   0  0  0  0  0  0  0  0  0  0  0  0
   20.9711   -6.8437    6.0036 C   0  0  0  0  0  0  0  0  0  0  0  0
   19.8156   -7.6466    6.4811 C   0  0  0  0  0  0  0  0  0  0  0  0
   19.5893   -7.7958    7.8527 C   0  0  0  0  0  0  0  0  0  0  0  0
   18.5027   -8.5507    8.3008 C   0  0  0  0  0  0  0  0  0  0  0  0
   17.6336   -9.1627    7.3715 C   0  0  0  0  0  0  0  0  0  0  0  0
   16.5776   -9.8963    7.8166 N   0  0  0  0  0  0  0  0  0  0  0  0
   16.3324  -10.0589    9.1450 C   0  0  0  0  0  0  0  0  0  0  0  0
   17.1707   -9.4683   10.0998 C   0  0  0  0  0  0  0  0  0  0  0  0
   18.2631   -8.7092    9.6652 C   0  0  0  0  0  0  0  0  0  0  0  0
   17.8663   -9.0091    5.9982 C   0  0  0  0  0  0  0  0  0  0  0  0
   17.0429   -9.5890    5.0902 F   0  0  0  0  0  0  0  0  0  0  0  0
   18.9566   -8.2514    5.5573 C   0  0  0  0  0  0  0  0  0  0  0  0
   17.7113   -9.7747   14.9811 C   0  0  0  0  0  0  0  0  0  0  0  0
   19.2107   -9.8656   15.1759 C   0  0  0  0  0  0  0  0  0  0  0  0
   18.3585  -11.1168   15.3080 C   0  0  0  0  0  0  0  0  0  0  0  0
   18.0211  -11.4085   16.7807 C   0  0  0  0  0  0  0  0  0  0  0  0
   17.0130  -10.4463   17.1889 N   0  0  0  0  0  0  0  0  0  0  0  0
   16.8586   -9.5040   16.1525 C   0  0  0  0  0  0  0  0  0  0  0  0
   16.0761   -8.5221   16.2406 O   0  0  0  0  0  0  0  0  0  0  0  0
   16.5221  -10.4515   18.0423 H   0  0  0  0  0  0  0  0  0  0  0  0
  6  7  1  0  0  0
  7  8  2  0  0  0
  8  9  1  0  0  0
  9 10  2  0  0  0
 10 11  1  0  0  0
 11 12  2  0  0  0
 12 13  1  0  0  0
 13 14  2  0  0  0
 13  1  1  0  0  0
  1  2  2  0  0  0
  2  3  1  0  0  0
  3  4  1  0  0  0
  4  5  2  0  0  0
 18  4  1  0  0  0
 18 19  1  0  0  0
 20 19  1  0  0  0
 20 21  1  0  0  0
 21 22  1  0  0  0
 22 23  1  0  0  0
 23 24  2  0  0  0
 10 15  1  0  0  0
 15 16  1  0  0  0
 15 17  2  0  0  0
 17  7  1  0  0  0
 14  9  1  0  0  0
  5  1  1  0  0  0
 20 18  1  0  0  0
 23 18  1  0  0  0
 22 25  1  0  0  0
M  END
>  <minimizedAffinity>
-8.82755

>  <minimizedRMSD>
1.15294

$$$$
CSSS20521984259


 34 36  0  0  0  0  0  0  0  0999 V2000
   15.6631   -8.2153   17.3224 C   0  0  0  0  0  0  0  0  0  0  0  0
   15.3748   -7.5485   16.2912 O   0  0  0  0  0  0  0  0  0  0  0  0
   16.5434   -9.3424   17.2423 N   0  0  0  0  0  0  0  0  0  0  0  0
   16.7595   -9.8121   18.0800 H   0  0  0  0  0  0  0  0  0  0  0  0
   17.1439   -9.8466   16.0107 C   0  0  0  0  0  0  0  0  0  0  0  0
   17.7435  -11.2103   16.2996 C   0  0  0  0  0  0  0  0  0  0  0  0
   18.2590   -8.9119   15.5651 C   0  0  0  0  0  0  0  0  0  0  0  0
   16.0634   -9.9799   14.9315 C   0  0  0  0  0  0  0  0  0  0  0  0
   16.6045   -9.7937   13.5895 N   0  0  0  0  0  0  0  0  0  0  0  0
   15.7920   -9.8713   12.4146 C   0  0  0  0  0  0  0  0  0  0  0  0
   14.5703  -10.1709   12.5114 O   0  0  0  0  0  0  0  0  0  0  0  0
   17.5659   -9.6074   13.4886 H   0  0  0  0  0  0  0  0  0  0  0  0
   16.3830   -9.6080   11.0925 C   0  0  0  0  0  0  0  0  0  0  0  0
   17.5124   -8.7829   10.9585 C   0  0  0  0  0  0  0  0  0  0  0  0
   18.0052   -8.5843    9.7140 N   0  0  0  0  0  0  0  0  0  0  0  0
   19.0538   -7.8564    9.3090 C   0  0  0  0  0  0  0  0  0  0  0  0
   19.1141   -8.0004    7.9232 C   0  0  0  0  0  0  0  0  0  0  0  0
   18.1118   -8.8081    7.4907 N   0  0  0  0  0  0  0  0  0  0  0  0
   17.4688   -9.1339    8.6228 C   0  0  0  0  0  0  0  0  0  0  0  0
   16.3798   -9.9369    8.7003 N   0  0  0  0  0  0  0  0  0  0  0  0
   15.8302  -10.1804    9.9258 C   0  0  0  0  0  0  0  0  0  0  0  0
   15.0544   -7.8607   18.6436 C   0  0  0  0  0  0  0  0  0  0  0  0
   16.9005   -6.5716   21.8008 C   0  0  0  0  0  0  0  0  0  0  0  0
   15.8057   -7.0684   20.9278 C   0  0  0  0  0  0  0  0  0  0  0  0
   14.6525   -7.2338   21.4070 O   0  0  0  0  0  0  0  0  0  0  0  0
   16.0717   -7.3499   19.5524 N   0  0  0  0  0  0  0  0  0  0  0  0
   16.9792   -7.1922   19.2049 H   0  0  0  0  0  0  0  0  0  0  0  0
   13.9559   -6.8183   18.4712 C   0  0  0  0  0  0  0  0  0  0  0  0
   12.6059   -7.4553   18.4511 C   0  0  0  0  0  0  0  0  0  0  0  0
   12.3092   -8.5029   19.3306 C   0  0  0  0  0  0  0  0  0  0  0  0
   11.0527   -9.1152   19.2915 C   0  0  0  0  0  0  0  0  0  0  0  0
   10.0930   -8.6838   18.3705 C   0  0  0  0  0  0  0  0  0  0  0  0
   10.3893   -7.6403   17.4882 C   0  0  0  0  0  0  0  0  0  0  0  0
   11.6452   -7.0274   17.5274 C   0  0  0  0  0  0  0  0  0  0  0  0
 23 24  1  0  0  0
 24 25  2  0  0  0
 24 26  1  0  0  0
 26 22  1  0  0  0
 22 28  1  0  0  0
 28 29  1  0  0  0
 29 30  2  0  0  0
 30 31  1  0  0  0
 31 32  2  0  0  0
 32 33  1  0  0  0
 33 34  2  0  0  0
 22  1  1  0  0  0
  1  2  2  0  0  0
  1  3  1  0  0  0
  3  5  1  0  0  0
  5  6  1  0  0  0
  5  7  1  0  0  0
  5  8  1  0  0  0
  8  9  1  0  0  0
  9 10  1  0  0  0
 10 11  2  0  0  0
 10 13  1  0  0  0
 13 14  2  0  0  0
 14 15  1  0  0  0
 15 16  1  0  0  0
 16 17  2  0  0  0
 17 18  1  0  0  0
 18 19  2  0  0  0
 19 20  1  0  0  0
 20 21  2  0  0  0
 34 29  1  0  0  0
 21 13  1  0  0  0
 19 15  1  0  0  0
 26 27  1  0  0  0
  3  4  1  0  0  0
  9 12  1  0  0  0
M  END
>  <minimizedAffinity>
-8.80335

>  <minimizedRMSD>
1.98367

$$$$
2325853808 CSSS02637270721 PubChem-166358686 Z5267654215


 25 27  0  0  0  0  0  0  0  0999 V2000
   16.8465   -9.2432   12.7322 N   0  0  0  0  0  0  0  0  0  0  0  0
   16.0391   -8.8289   12.3504 H   0  0  0  0  0  0  0  0  0  0  0  0
   18.2835  -12.1064   16.5240 C   0  0  0  0  0  0  0  0  0  0  0  0
   17.5580  -10.9200   16.0005 C   0  0  0  0  0  0  0  0  0  0  0  0
   16.8828  -10.0697   16.8800 C   0  0  0  0  0  0  0  0  0  0  0  0
   16.1960   -8.9482   16.3945 C   0  0  0  0  0  0  0  0  0  0  0  0
   16.1940   -8.6889   15.0159 C   0  0  0  0  0  0  0  0  0  0  0  0
   16.8676   -9.5363   14.1306 C   0  0  0  0  0  0  0  0  0  0  0  0
   17.5511  -10.6547   14.6291 C   0  0  0  0  0  0  0  0  0  0  0  0
   15.4843   -8.0517   17.3222 C   0  0  0  0  0  0  0  0  0  0  0  0
   15.9498   -7.8779   18.6576 N   0  0  0  0  0  0  0  0  0  0  0  0
   14.4565   -7.4295   16.9431 O   0  0  0  0  0  0  0  0  0  0  0  0
   16.7518   -8.3585   18.9658 H   0  0  0  0  0  0  0  0  0  0  0  0
   15.4694   -7.2771   19.2720 H   0  0  0  0  0  0  0  0  0  0  0  0
   17.9658   -9.5300   11.8476 C   0  0  0  0  0  0  0  0  0  0  0  0
   17.5051   -9.5069   10.4304 C   0  0  0  0  0  0  0  0  0  0  0  0
   18.1579   -8.7529    9.4548 C   0  0  0  0  0  0  0  0  0  0  0  0
   19.2742   -7.9504    9.5218 C   0  0  0  0  0  0  0  0  0  0  0  0
   19.4256   -7.4734    8.2163 C   0  0  0  0  0  0  0  0  0  0  0  0
   18.4626   -7.9489    7.3870 N   0  0  0  0  0  0  0  0  0  0  0  0
   17.7049   -8.7260    8.1713 C   0  0  0  0  0  0  0  0  0  0  0  0
   16.6059   -9.4172    7.7771 N   0  0  0  0  0  0  0  0  0  0  0  0
   15.9261  -10.1663    8.6964 C   0  0  0  0  0  0  0  0  0  0  0  0
   16.3606  -10.2225   10.0385 C   0  0  0  0  0  0  0  0  0  0  0  0
   18.3472   -7.7645    6.4268 H   0  0  0  0  0  0  0  0  0  0  0  0
  3  4  1  0  0  0
  4  5  2  0  0  0
  5  6  1  0  0  0
  6 10  1  0  0  0
 10 11  1  0  0  0
 10 12  2  0  0  0
  6  7  2  0  0  0
  7  8  1  0  0  0
  8  1  1  0  0  0
  1 15  1  0  0  0
 15 16  1  0  0  0
 16 17  2  0  0  0
 17 18  1  0  0  0
 18 19  2  0  0  0
 19 20  1  0  0  0
 20 21  1  0  0  0
 21 22  2  0  0  0
 22 23  1  0  0  0
 23 24  2  0  0  0
  8  9  2  0  0  0
  9  4  1  0  0  0
 24 16  1  0  0  0
 21 17  1  0  0  0
 11 13  1  0  0  0
 11 14  1  0  0  0
  1  2  1  0  0  0
 20 25  1  0  0  0
M  END
>  <minimizedAffinity>
-8.75853

>  <minimizedRMSD>
0.68456

$$$$
CSSS03437704976 MCULE-8459304006 MolPort-002-925-563 PubChem-2745493 ZINC000001031574 ZINC01031574


 28 31  0  0  0  0  0  0  0  0999 V2000
   17.2916   -9.8172   11.9985 C   0  0  0  0  0  0  0  0  0  0  0  0
   16.2894   -9.6207   12.8983 N   0  0  0  0  0  0  0  0  0  0  0  0
   16.4708   -9.8564   14.2241 C   0  0  0  0  0  0  0  0  0  0  0  0
   17.6711  -10.3014   14.6775 N   0  0  0  0  0  0  0  0  0  0  0  0
   18.7011  -10.5128   13.8188 C   0  0  0  0  0  0  0  0  0  0  0  0
   18.5320  -10.2738   12.4562 C   0  0  0  0  0  0  0  0  0  0  0  0
   14.7408  -10.6427   10.2828 C   0  0  0  0  0  0  0  0  0  0  0  0
   15.9434   -9.9061    9.8021 C   0  0  0  0  0  0  0  0  0  0  0  0
   17.0584   -9.5460   10.5567 C   0  0  0  0  0  0  0  0  0  0  0  0
   17.8942   -8.8970    9.7209 N   0  0  0  0  0  0  0  0  0  0  0  0
   19.1144   -8.3388    9.9378 C   0  0  0  0  0  0  0  0  0  0  0  0
   19.7641   -7.7192    8.8615 C   0  0  0  0  0  0  0  0  0  0  0  0
   19.1423   -7.6927    7.6004 C   0  0  0  0  0  0  0  0  0  0  0  0
   17.8817   -8.2802    7.4158 C   0  0  0  0  0  0  0  0  0  0  0  0
   17.2838   -8.8815    8.5210 C   0  0  0  0  0  0  0  0  0  0  0  0
   16.0818   -9.4898    8.5219 N   0  0  0  0  0  0  0  0  0  0  0  0
   15.1273   -9.5859   15.3693 S   0  0  0  0  0  0  0  0  0  0  0  0
   16.1578   -8.5494   16.4488 C   0  0  0  0  0  0  0  0  0  0  0  0
   15.3262   -7.9465   17.5252 C   0  0  0  0  0  0  0  0  0  0  0  0
   14.2835   -7.3131   17.2137 O   0  0  0  0  0  0  0  0  0  0  0  0
   15.7336   -8.0822   18.8936 N   0  0  0  0  0  0  0  0  0  0  0  0
   16.5698   -8.5751   19.0582 H   0  0  0  0  0  0  0  0  0  0  0  0
   15.0494   -7.5744   20.0469 C   0  0  0  0  0  0  0  0  0  0  0  0
   15.7881   -6.8982   21.0244 C   0  0  0  0  0  0  0  0  0  0  0  0
   15.1565   -6.3898   22.1636 C   0  0  0  0  0  0  0  0  0  0  0  0
   13.7792   -6.5558   22.3320 C   0  0  0  0  0  0  0  0  0  0  0  0
   13.0338   -7.2302   21.3614 C   0  0  0  0  0  0  0  0  0  0  0  0
   13.6664   -7.7379   20.2229 C   0  0  0  0  0  0  0  0  0  0  0  0
  7  8  1  0  0  0
  8  9  2  0  0  0
  9 10  1  0  0  0
  9  1  1  0  0  0
 10 11  1  0  0  0
 11 12  2  0  0  0
 12 13  1  0  0  0
 13 14  2  0  0  0
 14 15  1  0  0  0
 15 16  2  0  0  0
 15 10  1  0  0  0
 16  8  1  0  0  0
  1  2  2  0  0  0
  2  3  1  0  0  0
  3 17  1  0  0  0
  3  4  2  0  0  0
 17 18  1  0  0  0
 18 19  1  0  0  0
 19 20  2  0  0  0
 19 21  1  0  0  0
 21 23  1  0  0  0
 23 24  2  0  0  0
 24 25  1  0  0  0
 25 26  2  0  0  0
 26 27  1  0  0  0
 27 28  2  0  0  0
 28 23  1  0  0  0
  4  5  1  0  0  0
  5  6  2  0  0  0
  6  1  1  0  0  0
 21 22  1  0  0  0
M  END
>  <minimizedAffinity>
-8.69813

>  <minimizedRMSD>
1.43930

$$$$
1620848458 CSSS00484068835 MolPort-047-744-528 PubChem-155946298 Z1573578979


 30 33  0  0  0  0  0  0  0  0999 V2000
   16.6854   -9.5150   16.0577 C   0  0  0  0  0  0  0  0  0  0  0  0
   17.2235  -10.5189   16.8751 C   0  0  0  0  0  0  0  0  0  0  0  0
   17.9943  -11.5440   16.3205 C   0  0  0  0  0  0  0  0  0  0  0  0
   18.2331  -11.5730   14.9440 C   0  0  0  0  0  0  0  0  0  0  0  0
   17.7032  -10.5788   14.1164 C   0  0  0  0  0  0  0  0  0  0  0  0
   16.9298   -9.5515   14.6774 C   0  0  0  0  0  0  0  0  0  0  0  0
   15.3941   -7.5322   15.9015 O   0  0  0  0  0  0  0  0  0  0  0  0
   15.8726   -8.4343   16.6427 C   0  0  0  0  0  0  0  0  0  0  0  0
   15.6252   -8.4070   18.0505 N   0  0  0  0  0  0  0  0  0  0  0  0
   16.0056   -9.1181   18.6153 H   0  0  0  0  0  0  0  0  0  0  0  0
   14.8296   -7.3622   18.6742 C   0  0  0  0  0  0  0  0  0  0  0  0
   15.1051   -7.3286   20.1355 C   0  0  0  0  0  0  0  0  0  0  0  0
   14.2142   -7.9311   21.0280 C   0  0  0  0  0  0  0  0  0  0  0  0
   14.5005   -7.9116   22.3942 C   0  0  0  0  0  0  0  0  0  0  0  0
   15.6691   -7.2994   22.8513 C   0  0  0  0  0  0  0  0  0  0  0  0
   16.5387   -6.7151   21.9274 C   0  0  0  0  0  0  0  0  0  0  0  0
   16.2431   -6.7438   20.5997 N   0  0  0  0  0  0  0  0  0  0  0  0
   17.9602  -10.6298   12.7117 N   0  0  0  0  0  0  0  0  0  0  0  0
   18.7641  -11.1031   12.3971 H   0  0  0  0  0  0  0  0  0  0  0  0
   17.0857  -10.0126   11.7257 C   0  0  0  0  0  0  0  0  0  0  0  0
   17.9042   -9.3103   10.6979 C   0  0  0  0  0  0  0  0  0  0  0  0
   17.5596   -9.3282    9.3452 C   0  0  0  0  0  0  0  0  0  0  0  0
   16.5006   -9.9111    8.7640 N   0  0  0  0  0  0  0  0  0  0  0  0
   16.5882   -9.6622    7.4602 N   0  0  0  0  0  0  0  0  0  0  0  0
   17.6959   -8.9237    7.1964 C   0  0  0  0  0  0  0  0  0  0  0  0
   18.3220   -8.7072    8.4014 C   0  0  0  0  0  0  0  0  0  0  0  0
   19.4907   -8.0218    8.7209 C   0  0  0  0  0  0  0  0  0  0  0  0
   19.8707   -7.9903   10.0763 C   0  0  0  0  0  0  0  0  0  0  0  0
   19.0843   -8.6331   11.0592 C   0  0  0  0  0  0  0  0  0  0  0  0
   15.7932  -10.4252    9.2162 H   0  0  0  0  0  0  0  0  0  0  0  0
  7  8  2  0  0  0
  8  9  1  0  0  0
  9 11  1  0  0  0
 11 12  1  0  0  0
 12 13  2  0  0  0
 13 14  1  0  0  0
 14 15  2  0  0  0
 15 16  1  0  0  0
 16 17  2  0  0  0
  8  1  1  0  0  0
  1  2  2  0  0  0
  2  3  1  0  0  0
  3  4  2  0  0  0
  4  5  1  0  0  0
  5 18  1  0  0  0
 18 20  1  0  0  0
 20 21  1  0  0  0
 21 22  2  0  0  0
 22 23  1  0  0  0
 23 24  1  0  0  0
 24 25  2  0  0  0
 25 26  1  0  0  0
 26 27  2  0  0  0
 27 28  1  0  0  0
 28 29  2  0  0  0
  5  6  2  0  0  0
 17 12  1  0  0  0
  6  1  1  0  0  0
 29 21  1  0  0  0
 26 22  1  0  0  0
  9 10  1  0  0  0
 18 19  1  0  0  0
 23 30  1  0  0  0
M  END
>  <minimizedAffinity>
-8.67892

>  <minimizedRMSD>
1.19388

$$$$
1650727937 CSSS00160458920 MCULE-2945729084 MolPort-046-817-554 PubChem-145899728 Z3709538739


 30 33  0  0  0  0  0  0  0  0999 V2000
   16.7555   -9.4361   15.8603 C   0  0  0  0  0  0  0  0  0  0  0  0
   17.1222   -9.3939   14.5075 C   0  0  0  0  0  0  0  0  0  0  0  0
   17.9516  -10.3849   13.9615 C   0  0  0  0  0  0  0  0  0  0  0  0
   18.4144  -11.4220   14.7765 C   0  0  0  0  0  0  0  0  0  0  0  0
   18.0540  -11.4714   16.1255 C   0  0  0  0  0  0  0  0  0  0  0  0
   17.2278  -10.4821   16.6653 C   0  0  0  0  0  0  0  0  0  0  0  0
   15.4381   -7.4724   15.6912 O   0  0  0  0  0  0  0  0  0  0  0  0
   15.8856   -8.3923   16.4296 C   0  0  0  0  0  0  0  0  0  0  0  0
   15.5446   -8.4238   17.8196 N   0  0  0  0  0  0  0  0  0  0  0  0
   15.8717   -9.1734   18.3676 H   0  0  0  0  0  0  0  0  0  0  0  0
   14.7349   -7.3956   18.4588 C   0  0  0  0  0  0  0  0  0  0  0  0
   14.9807   -7.3826   19.9291 C   0  0  0  0  0  0  0  0  0  0  0  0
   14.0822   -7.9561   20.7757 N   0  0  0  0  0  0  0  0  0  0  0  0
   14.2812   -7.9730   22.1214 C   0  0  0  0  0  0  0  0  0  0  0  0
   15.4300   -7.3949   22.6665 C   0  0  0  0  0  0  0  0  0  0  0  0
   16.3651   -6.8038   21.8149 C   0  0  0  0  0  0  0  0  0  0  0  0
   16.1433   -6.7961   20.4367 C   0  0  0  0  0  0  0  0  0  0  0  0
   18.3330  -10.3556   12.5846 N   0  0  0  0  0  0  0  0  0  0  0  0
   19.2713  -10.5424   12.3521 H   0  0  0  0  0  0  0  0  0  0  0  0
   17.3953  -10.0619   11.5113 C   0  0  0  0  0  0  0  0  0  0  0  0
   18.0802   -9.2753   10.4470 C   0  0  0  0  0  0  0  0  0  0  0  0
   17.6474   -9.2979    9.1201 C   0  0  0  0  0  0  0  0  0  0  0  0
   18.2884   -8.5984    8.1408 C   0  0  0  0  0  0  0  0  0  0  0  0
   17.6756   -8.7876    6.9644 N   0  0  0  0  0  0  0  0  0  0  0  0
   16.6493   -9.6031    7.1890 N   0  0  0  0  0  0  0  0  0  0  0  0
   16.5968   -9.9405    8.5023 C   0  0  0  0  0  0  0  0  0  0  0  0
   19.4157   -7.8228    8.3999 C   0  0  0  0  0  0  0  0  0  0  0  0
   19.8832   -7.7834    9.7272 C   0  0  0  0  0  0  0  0  0  0  0  0
   19.2219   -8.5075   10.7448 C   0  0  0  0  0  0  0  0  0  0  0  0
   17.9356   -8.3974    6.0987 H   0  0  0  0  0  0  0  0  0  0  0  0
  7  8  2  0  0  0
  8  1  1  0  0  0
  1  2  2  0  0  0
  2  3  1  0  0  0
  3 18  1  0  0  0
 18 20  1  0  0  0
 20 21  1  0  0  0
 21 22  1  0  0  0
 22 23  2  0  0  0
 23 24  1  0  0  0
 24 25  1  0  0  0
 25 26  2  0  0  0
 23 27  1  0  0  0
 27 28  2  0  0  0
 28 29  1  0  0  0
  3  4  2  0  0  0
  4  5  1  0  0  0
  5  6  2  0  0  0
  8  9  1  0  0  0
  9 11  1  0  0  0
 11 12  1  0  0  0
 12 13  2  0  0  0
 13 14  1  0  0  0
 14 15  2  0  0  0
 15 16  1  0  0  0
 16 17  2  0  0  0
  6  1  1  0  0  0
 17 12  1  0  0  0
 29 21  2  0  0  0
 26 22  1  0  0  0
 18 19  1  0  0  0
 24 30  1  0  0  0
  9 10  1  0  0  0
M  END
>  <minimizedAffinity>
-8.67564

>  <minimizedRMSD>
1.73697

$$$$
CSSS02494293328 MolPort-047-844-907 Z5023536913


 30 33  0  0  0  0  0  0  0  0999 V2000
   17.2171   -9.3964   15.1175 C   0  0  0  0  0  0  0  0  0  0  0  0
   18.6437   -9.8708   15.3002 C   0  0  0  0  0  0  0  0  0  0  0  0
   18.1298  -11.1217   15.9915 C   0  0  0  0  0  0  0  0  0  0  0  0
   16.7009  -10.6406   15.8088 C   0  0  0  0  0  0  0  0  0  0  0  0
   16.8209   -9.3580   13.7119 N   0  0  0  0  0  0  0  0  0  0  0  0
   17.5873   -9.9344   12.6480 C   0  0  0  0  0  0  0  0  0  0  0  0
   18.6665  -10.5358   12.9015 O   0  0  0  0  0  0  0  0  0  0  0  0
   15.9756   -8.9087   13.4820 H   0  0  0  0  0  0  0  0  0  0  0  0
   17.1018   -9.8176   11.2598 C   0  0  0  0  0  0  0  0  0  0  0  0
   17.8069   -9.1395   10.2605 C   0  0  0  0  0  0  0  0  0  0  0  0
   19.0080   -8.4651   10.2660 C   0  0  0  0  0  0  0  0  0  0  0  0
   19.1499   -8.0147    8.9506 C   0  0  0  0  0  0  0  0  0  0  0  0
   18.1019   -8.3854    8.1733 N   0  0  0  0  0  0  0  0  0  0  0  0
   17.3016   -9.0690    9.0013 C   0  0  0  0  0  0  0  0  0  0  0  0
   16.1197   -9.6392    8.6656 N   0  0  0  0  0  0  0  0  0  0  0  0
   15.4214  -10.3040    9.6317 C   0  0  0  0  0  0  0  0  0  0  0  0
   15.9105  -10.3883   10.9079 N   0  0  0  0  0  0  0  0  0  0  0  0
   17.9615   -8.1951    7.2177 H   0  0  0  0  0  0  0  0  0  0  0  0
   16.9194   -8.1018   15.8745 C   0  0  0  0  0  0  0  0  0  0  0  0
   15.4846   -7.9122   16.0456 N   0  0  0  0  0  0  0  0  0  0  0  0
   14.9050   -7.9638   15.2514 H   0  0  0  0  0  0  0  0  0  0  0  0
   13.0390   -6.8661   21.0554 C   0  0  0  0  0  0  0  0  0  0  0  0
   13.6989   -7.1437   19.7498 C   0  0  0  0  0  0  0  0  0  0  0  0
   12.9540   -7.1142   18.5724 C   0  0  0  0  0  0  0  0  0  0  0  0
   13.5556   -7.3681   17.3812 N   0  0  0  0  0  0  0  0  0  0  0  0
   14.8824   -7.6549   17.3150 C   0  0  0  0  0  0  0  0  0  0  0  0
   15.6266   -7.6834   18.4546 N   0  0  0  0  0  0  0  0  0  0  0  0
   15.0641   -7.4362   19.6661 C   0  0  0  0  0  0  0  0  0  0  0  0
   15.8521   -7.4763   20.8104 O   0  0  0  0  0  0  0  0  0  0  0  0
   16.7657   -7.6733   20.7434 H   0  0  0  0  0  0  0  0  0  0  0  0
 22 23  1  0  0  0
 23 24  2  0  0  0
 24 25  1  0  0  0
 25 26  2  0  0  0
 26 20  1  0  0  0
 20 19  1  0  0  0
 19  1  1  0  0  0
  1  2  1  0  0  0
  2  3  1  0  0  0
  3  4  1  0  0  0
  1  5  1  0  0  0
  5  6  1  0  0  0
  6  7  2  0  0  0
  6  9  1  0  0  0
  9 10  2  0  0  0
 10 11  1  0  0  0
 11 12  2  0  0  0
 12 13  1  0  0  0
 13 14  1  0  0  0
 14 15  2  0  0  0
 15 16  1  0  0  0
 16 17  2  0  0  0
 26 27  1  0  0  0
 27 28  2  0  0  0
 28 29  1  0  0  0
 28 23  1  0  0  0
  4  1  1  0  0  0
 17  9  1  0  0  0
 14 10  1  0  0  0
 20 21  1  0  0  0
  5  8  1  0  0  0
 13 18  1  0  0  0
 29 30  1  0  0  0
M  END
>  <minimizedAffinity>
-8.66528

>  <minimizedRMSD>
1.75517

$$$$
CSC026212675 58184882 CSSS00026212675 MCULE-2058409834 MolPort-009-112-242 PubChem-47085937 Z928611674 ZINC000058184882


 27 29  0  0  0  0  0  0  0  0999 V2000
   17.3311  -10.4102   12.8012 N   0  0  0  0  0  0  0  0  0  0  0  0
   18.1447  -10.7525   12.3651 H   0  0  0  0  0  0  0  0  0  0  0  0
   17.2667  -10.4217   14.2317 C   0  0  0  0  0  0  0  0  0  0  0  0
   16.5953   -9.4027   14.9248 C   0  0  0  0  0  0  0  0  0  0  0  0
   16.5295   -9.4096   16.3248 C   0  0  0  0  0  0  0  0  0  0  0  0
   17.1440  -10.4498   17.0333 C   0  0  0  0  0  0  0  0  0  0  0  0
   17.8145  -11.4684   16.3522 C   0  0  0  0  0  0  0  0  0  0  0  0
   17.8787  -11.4592   14.9560 C   0  0  0  0  0  0  0  0  0  0  0  0
   18.6022  -12.5615   14.2612 C   0  0  0  0  0  0  0  0  0  0  0  0
   15.8221   -8.3350   17.0427 C   0  0  0  0  0  0  0  0  0  0  0  0
   15.9451   -8.2090   18.4566 N   0  0  0  0  0  0  0  0  0  0  0  0
   15.1009   -7.5162   16.4125 O   0  0  0  0  0  0  0  0  0  0  0  0
   16.5057   -8.8424   18.9603 H   0  0  0  0  0  0  0  0  0  0  0  0
   15.4696   -7.4884   18.9298 H   0  0  0  0  0  0  0  0  0  0  0  0
   16.2497   -9.9158   11.9624 C   0  0  0  0  0  0  0  0  0  0  0  0
   19.9362   -7.5223    5.4153 C   0  0  0  0  0  0  0  0  0  0  0  0
   19.3828   -7.8358    6.7581 C   0  0  0  0  0  0  0  0  0  0  0  0
   18.3148   -8.7248    6.8886 C   0  0  0  0  0  0  0  0  0  0  0  0
   17.7980   -9.0204    8.1187 N   0  0  0  0  0  0  0  0  0  0  0  0
   16.7516   -9.8967    8.2307 C   0  0  0  0  0  0  0  0  0  0  0  0
   16.2509  -10.4432    7.2097 O   0  0  0  0  0  0  0  0  0  0  0  0
   16.2236  -10.1992    9.4849 C   0  0  0  0  0  0  0  0  0  0  0  0
   16.7747   -9.5918   10.6093 C   0  0  0  0  0  0  0  0  0  0  0  0
   17.8164   -8.7332   10.4735 N   0  0  0  0  0  0  0  0  0  0  0  0
   18.3285   -8.4405    9.2502 C   0  0  0  0  0  0  0  0  0  0  0  0
   19.3984   -7.5475    9.1514 C   0  0  0  0  0  0  0  0  0  0  0  0
   19.9259   -7.2456    7.8973 C   0  0  0  0  0  0  0  0  0  0  0  0
 16 17  1  0  0  0
 17 18  2  0  0  0
 18 19  1  0  0  0
 19 20  1  0  0  0
 20 21  2  0  0  0
 20 22  1  0  0  0
 22 23  2  0  0  0
 23 15  1  0  0  0
 23 24  1  0  0  0
 15  1  1  0  0  0
  1  3  1  0  0  0
  3  4  2  0  0  0
  4  5  1  0  0  0
  5  6  2  0  0  0
  5 10  1  0  0  0
  6  7  1  0  0  0
  7  8  2  0  0  0
  8  9  1  0  0  0
  8  3  1  0  0  0
 10 11  1  0  0  0
 10 12  2  0  0  0
 24 25  2  0  0  0
 25 26  1  0  0  0
 25 19  1  0  0  0
 26 27  2  0  0  0
 27 17  1  0  0  0
  1  2  1  0  0  0
 11 13  1  0  0  0
 11 14  1  0  0  0
M  END
>  <minimizedAffinity>
-8.63383

>  <minimizedRMSD>
0.73506

$$$$
CSSS00160655000 MCULE-7627097313 MolPort-006-810-086


 29 31  0  0  0  0  0  0  0  0999 V2000
   16.4173   -9.3403   13.9336 C   0  0  0  0  0  0  0  0  0  0  0  0
   17.2733   -9.5351   15.1702 C   0  0  0  0  0  0  0  0  0  0  0  0
   16.4617   -9.2598   16.4229 C   0  0  0  0  0  0  0  0  0  0  0  0
   15.5413   -8.0711   16.2069 C   0  0  0  0  0  0  0  0  0  0  0  0
   15.6616   -7.8663   18.7167 N   0  0  0  0  0  0  0  0  0  0  0  0
   14.9300   -7.6645   17.5004 C   0  0  0  0  0  0  0  0  0  0  0  0
   13.7692   -7.1754   17.5081 O   0  0  0  0  0  0  0  0  0  0  0  0
   16.5570   -8.2665   18.6311 H   0  0  0  0  0  0  0  0  0  0  0  0
   16.7749   -6.0544   23.0965 C   0  0  0  0  0  0  0  0  0  0  0  0
   15.7682   -6.6605   22.1868 C   0  0  0  0  0  0  0  0  0  0  0  0
   14.4686   -6.8918   22.6406 C   0  0  0  0  0  0  0  0  0  0  0  0
   13.5366   -7.4614   21.7728 C   0  0  0  0  0  0  0  0  0  0  0  0
   13.9120   -7.7913   20.4698 C   0  0  0  0  0  0  0  0  0  0  0  0
   15.2256   -7.5463   20.0450 C   0  0  0  0  0  0  0  0  0  0  0  0
   16.1143   -6.9891   20.9128 N   0  0  0  0  0  0  0  0  0  0  0  0
   16.6789  -10.4706   12.9538 C   0  0  0  0  0  0  0  0  0  0  0  0
   16.8220   -9.9467   11.5960 N   0  0  0  0  0  0  0  0  0  0  0  0
   15.7680  -10.0493   10.7307 C   0  0  0  0  0  0  0  0  0  0  0  0
   14.5709  -10.6282   11.1402 O   0  0  0  0  0  0  0  0  0  0  0  0
   15.8753   -9.5836    9.4592 N   0  0  0  0  0  0  0  0  0  0  0  0
   17.0218   -9.0143    9.0146 C   0  0  0  0  0  0  0  0  0  0  0  0
   17.1066   -8.5416    7.7018 C   0  0  0  0  0  0  0  0  0  0  0  0
   18.2919   -7.9580    7.2440 C   0  0  0  0  0  0  0  0  0  0  0  0
   19.3945   -7.8465    8.0968 C   0  0  0  0  0  0  0  0  0  0  0  0
   19.3153   -8.3180    9.4107 C   0  0  0  0  0  0  0  0  0  0  0  0
   18.1288   -8.9035    9.8767 C   0  0  0  0  0  0  0  0  0  0  0  0
   18.0050   -9.3902   11.1852 C   0  0  0  0  0  0  0  0  0  0  0  0
   18.9847   -9.3172   11.9797 O   0  0  0  0  0  0  0  0  0  0  0  0
   14.4829  -10.9537   12.0144 H   0  0  0  0  0  0  0  0  0  0  0  0
  9 10  1  0  0  0
 10 11  2  0  0  0
 11 12  1  0  0  0
 12 13  2  0  0  0
 13 14  1  0  0  0
 14  5  1  0  0  0
 14 15  2  0  0  0
  5  6  1  0  0  0
  6  7  2  0  0  0
  6  4  1  0  0  0
  4  3  1  0  0  0
  3  2  1  0  0  0
  2  1  1  0  0  0
  1 16  1  0  0  0
 16 17  1  0  0  0
 17 18  1  0  0  0
 18 19  1  0  0  0
 18 20  2  0  0  0
 20 21  1  0  0  0
 21 22  2  0  0  0
 22 23  1  0  0  0
 23 24  2  0  0  0
 24 25  1  0  0  0
 25 26  2  0  0  0
 26 27  1  0  0  0
 26 21  1  0  0  0
 27 28  2  0  0  0
 27 17  1  0  0  0
 15 10  1  0  0  0
  5  8  1  0  0  0
 19 29  1  0  0  0
M  END
>  <minimizedAffinity>
-8.62688

>  <minimizedRMSD>
1.52048

$$$$
38510138 CSSS03437105191 MCULE-6318070642 MolPort-019-919-009 PubChem-45535363 ZINC000038510138 ZINC38510138


 33 36  0  0  0  0  0  0  0  0999 V2000
   16.9292   -9.5392   13.1751 C   0  0  0  0  0  0  0  0  0  0  0  0
   16.8322   -9.0658   16.7872 C   0  0  0  0  0  0  0  0  0  0  0  0
   16.3848   -8.9264   15.5231 N   0  0  0  0  0  0  0  0  0  0  0  0
   17.2230   -9.5250   14.6337 C   0  0  0  0  0  0  0  0  0  0  0  0
   18.3427  -10.1611   15.1728 C   0  0  0  0  0  0  0  0  0  0  0  0
   18.2610   -9.9371   16.8414 S   0  0  0  0  0  0  0  0  0  0  0  0
   14.9636   -7.7668   17.9175 C   0  0  0  0  0  0  0  0  0  0  0  0
   14.4459   -7.4298   16.8177 O   0  0  0  0  0  0  0  0  0  0  0  0
   16.1612   -8.5555   17.9433 N   0  0  0  0  0  0  0  0  0  0  0  0
   16.5512   -8.7614   18.8235 H   0  0  0  0  0  0  0  0  0  0  0  0
   12.5585   -6.1680   22.7563 F   0  0  0  0  0  0  0  0  0  0  0  0
   13.1349   -6.5528   21.5926 C   0  0  0  0  0  0  0  0  0  0  0  0
   12.5911   -6.1404   20.3728 C   0  0  0  0  0  0  0  0  0  0  0  0
   13.1889   -6.5351   19.1722 C   0  0  0  0  0  0  0  0  0  0  0  0
   14.3341   -7.3468   19.1825 C   0  0  0  0  0  0  0  0  0  0  0  0
   14.8736   -7.7545   20.4115 C   0  0  0  0  0  0  0  0  0  0  0  0
   14.2774   -7.3575   21.6122 C   0  0  0  0  0  0  0  0  0  0  0  0
   15.4276   -9.6026   12.9518 C   0  0  0  0  0  0  0  0  0  0  0  0
   15.1326   -9.9509   11.5351 C   0  0  0  0  0  0  0  0  0  0  0  0
   13.9556  -10.2583   11.2027 O   0  0  0  0  0  0  0  0  0  0  0  0
   16.1873   -9.9534   10.5685 N   0  0  0  0  0  0  0  0  0  0  0  0
   17.1015   -9.7449   10.8684 H   0  0  0  0  0  0  0  0  0  0  0  0
   15.9669  -10.2513    9.1599 C   0  0  0  0  0  0  0  0  0  0  0  0
   16.9672   -9.5361    8.3168 C   0  0  0  0  0  0  0  0  0  0  0  0
   17.0399   -9.7065    6.9694 N   0  0  0  0  0  0  0  0  0  0  0  0
   18.0544   -8.8972    6.6337 C   0  0  0  0  0  0  0  0  0  0  0  0
   18.5838   -8.6809    5.3628 C   0  0  0  0  0  0  0  0  0  0  0  0
   19.6671   -7.7885    5.2584 C   0  0  0  0  0  0  0  0  0  0  0  0
   20.1818   -7.1465    6.4084 C   0  0  0  0  0  0  0  0  0  0  0  0
   19.6192   -7.3878    7.6771 C   0  0  0  0  0  0  0  0  0  0  0  0
   18.5504   -8.2775    7.7422 C   0  0  0  0  0  0  0  0  0  0  0  0
   17.8750   -8.6648    8.8332 N   0  0  0  0  0  0  0  0  0  0  0  0
   18.0032   -8.3890    9.7695 H   0  0  0  0  0  0  0  0  0  0  0  0
 11 12  1  0  0  0
 12 13  2  0  0  0
 13 14  1  0  0  0
 14 15  2  0  0  0
 15 16  1  0  0  0
 15  7  1  0  0  0
 16 17  2  0  0  0
 17 12  1  0  0  0
  7  8  2  0  0  0
  7  9  1  0  0  0
  9  2  1  0  0  0
  2  3  2  0  0  0
  3  4  1  0  0  0
  4  1  1  0  0  0
  4  5  2  0  0  0
  1 18  1  0  0  0
 18 19  1  0  0  0
 19 20  2  0  0  0
 19 21  1  0  0  0
 21 23  1  0  0  0
 23 24  1  0  0  0
 24 25  2  0  0  0
 25 26  1  0  0  0
 26 27  2  0  0  0
 27 28  1  0  0  0
 28 29  2  0  0  0
 29 30  1  0  0  0
 30 31  2  0  0  0
 31 32  1  0  0  0
 31 26  1  0  0  0
 32 24  1  0  0  0
  5  6  1  0  0  0
  6  2  1  0  0  0
  9 10  1  0  0  0
 21 22  1  0  0  0
 32 33  1  0  0  0
M  END
>  <minimizedAffinity>
-8.61825

>  <minimizedRMSD>
1.47285

$$$$
CSC027129015 12563929 CSSS00027129015 MCULE-4112746109 MolPort-005-758-542 PubChem-25360597 Z135291012 ZINC000012563929 ZINC12563929


 33 37  0  0  0  0  0  0  0  0999 V2000
   16.7914   -9.2297   10.8959 C   0  0  0  0  0  0  0  0  0  0  0  0
   17.6880   -8.3236   10.4106 N   0  0  0  0  0  0  0  0  0  0  0  0
   18.0632   -8.4109    9.1123 C   0  0  0  0  0  0  0  0  0  0  0  0
   17.5773   -9.3854    8.2682 C   0  0  0  0  0  0  0  0  0  0  0  0
   18.0842   -9.3130    6.9662 C   0  0  0  0  0  0  0  0  0  0  0  0
   18.9829   -8.2481    6.8239 C   0  0  0  0  0  0  0  0  0  0  0  0
   19.1372   -7.4179    8.2993 S   0  0  0  0  0  0  0  0  0  0  0  0
   16.6683  -10.3112    8.7770 C   0  0  0  0  0  0  0  0  0  0  0  0
   16.1952  -11.2246    8.0505 O   0  0  0  0  0  0  0  0  0  0  0  0
   16.2965  -10.2143   10.0854 N   0  0  0  0  0  0  0  0  0  0  0  0
   15.6584  -10.8668   10.4545 H   0  0  0  0  0  0  0  0  0  0  0  0
   19.6905   -7.9002    5.5784 C   0  0  0  0  0  0  0  0  0  0  0  0
   20.8634   -7.1323    5.6194 C   0  0  0  0  0  0  0  0  0  0  0  0
   21.5347   -6.8020    4.4385 C   0  0  0  0  0  0  0  0  0  0  0  0
   21.0380   -7.2375    3.2072 C   0  0  0  0  0  0  0  0  0  0  0  0
   19.8701   -8.0031    3.1565 C   0  0  0  0  0  0  0  0  0  0  0  0
   19.1989   -8.3332    4.3376 C   0  0  0  0  0  0  0  0  0  0  0  0
   16.3839   -9.1740   12.3246 C   0  0  0  0  0  0  0  0  0  0  0  0
   17.2206  -10.0717   13.1061 N   0  0  0  0  0  0  0  0  0  0  0  0
   17.8223  -10.6883   12.6298 H   0  0  0  0  0  0  0  0  0  0  0  0
   16.4401   -9.2183   16.6739 C   0  0  0  0  0  0  0  0  0  0  0  0
   17.2111  -10.1851   17.3343 C   0  0  0  0  0  0  0  0  0  0  0  0
   17.9737  -11.1006   16.6041 C   0  0  0  0  0  0  0  0  0  0  0  0
   17.9711  -11.0561   15.2075 C   0  0  0  0  0  0  0  0  0  0  0  0
   17.2074  -10.0978   14.5350 C   0  0  0  0  0  0  0  0  0  0  0  0
   16.4432   -9.1806   15.2721 C   0  0  0  0  0  0  0  0  0  0  0  0
   14.8061   -7.5093   16.8528 O   0  0  0  0  0  0  0  0  0  0  0  0
   15.6366   -8.2531   17.4439 C   0  0  0  0  0  0  0  0  0  0  0  0
   15.7973   -8.1576   18.8619 N   0  0  0  0  0  0  0  0  0  0  0  0
   16.4473   -8.7470   19.3084 H   0  0  0  0  0  0  0  0  0  0  0  0
   15.0320   -7.2185   19.6651 C   0  0  0  0  0  0  0  0  0  0  0  0
   14.5199   -7.9254   20.9022 C   0  0  0  0  0  0  0  0  0  0  0  0
   15.7271   -7.0173   20.9958 C   0  0  0  0  0  0  0  0  0  0  0  0
 27 28  2  0  0  0
 28 29  1  0  0  0
 28 21  1  0  0  0
 29 31  1  0  0  0
 31 32  1  0  0  0
 32 33  1  0  0  0
 33 31  1  0  0  0
 21 22  2  0  0  0
 22 23  1  0  0  0
 23 24  2  0  0  0
 24 25  1  0  0  0
 25 19  1  0  0  0
 25 26  2  0  0  0
 19 18  1  0  0  0
 18  1  1  0  0  0
  1  2  2  0  0  0
  2  3  1  0  0  0
  3  4  2  0  0  0
  4  5  1  0  0  0
  4  8  1  0  0  0
  5  6  2  0  0  0
  6  7  1  0  0  0
  6 12  1  0  0  0
  7  3  1  0  0  0
 12 13  2  0  0  0
 13 14  1  0  0  0
 14 15  2  0  0  0
 15 16  1  0  0  0
 16 17  2  0  0  0
 17 12  1  0  0  0
  8  9  2  0  0  0
  8 10  1  0  0  0
 10  1  1  0  0  0
 26 21  1  0  0  0
 29 30  1  0  0  0
 19 20  1  0  0  0
 10 11  1  0  0  0
M  END
>  <minimizedAffinity>
-8.61586

>  <minimizedRMSD>
0.68909

$$$$
CSC027129048 12632765 CSSS00027129048 MCULE-2900828748 MolPort-005-675-464 PubChem-24232522 Z135291190 ZINC000012632765 ZINC12632765


 28 31  0  0  0  0  0  0  0  0999 V2000
   17.4939  -10.4588   13.1687 N   0  0  0  0  0  0  0  0  0  0  0  0
   16.8304  -10.9647   12.6462 H   0  0  0  0  0  0  0  0  0  0  0  0
   17.3598  -10.4224   14.5910 C   0  0  0  0  0  0  0  0  0  0  0  0
   17.9836  -11.4082   15.3611 C   0  0  0  0  0  0  0  0  0  0  0  0
   17.8664  -11.3929   16.7534 C   0  0  0  0  0  0  0  0  0  0  0  0
   17.1234  -10.3898   17.3816 C   0  0  0  0  0  0  0  0  0  0  0  0
   16.4920   -9.3946   16.6226 C   0  0  0  0  0  0  0  0  0  0  0  0
   16.6148   -9.4173   15.2258 C   0  0  0  0  0  0  0  0  0  0  0  0
   15.7090   -8.3370   17.2851 C   0  0  0  0  0  0  0  0  0  0  0  0
   15.0255   -7.5313   16.5952 O   0  0  0  0  0  0  0  0  0  0  0  0
   15.7234   -8.2217   18.7107 N   0  0  0  0  0  0  0  0  0  0  0  0
   16.2595   -8.8598   19.2347 H   0  0  0  0  0  0  0  0  0  0  0  0
   14.9723   -7.1931   19.4106 C   0  0  0  0  0  0  0  0  0  0  0  0
   13.6179   -7.7460   19.8011 C   0  0  0  0  0  0  0  0  0  0  0  0
   14.7184   -7.6419   20.8348 C   0  0  0  0  0  0  0  0  0  0  0  0
   18.5681   -9.7808   12.4588 C   0  0  0  0  0  0  0  0  0  0  0  0
   20.1125   -6.9984    5.8515 C   0  0  0  0  0  0  0  0  0  0  0  0
   19.1751   -7.7136    6.7559 C   0  0  0  0  0  0  0  0  0  0  0  0
   19.5323   -7.9567    8.0808 C   0  0  0  0  0  0  0  0  0  0  0  0
   18.6411   -8.6298    8.9198 C   0  0  0  0  0  0  0  0  0  0  0  0
   18.9912   -8.8660   10.2106 N   0  0  0  0  0  0  0  0  0  0  0  0
   18.1506   -9.5123   11.0570 C   0  0  0  0  0  0  0  0  0  0  0  0
   16.9129   -9.9573   10.6018 C   0  0  0  0  0  0  0  0  0  0  0  0
   16.5567   -9.7132    9.2763 C   0  0  0  0  0  0  0  0  0  0  0  0
   15.4335  -10.1123    8.8629 O   0  0  0  0  0  0  0  0  0  0  0  0
   17.4191   -9.0515    8.4435 N   0  0  0  0  0  0  0  0  0  0  0  0
   17.0689   -8.8130    7.1442 C   0  0  0  0  0  0  0  0  0  0  0  0
   17.9373   -8.1423    6.2811 C   0  0  0  0  0  0  0  0  0  0  0  0
 17 18  1  0  0  0
 18 19  2  0  0  0
 19 20  1  0  0  0
 20 21  2  0  0  0
 21 22  1  0  0  0
 22 16  1  0  0  0
 22 23  2  0  0  0
 16  1  1  0  0  0
  1  3  1  0  0  0
  3  4  2  0  0  0
  4  5  1  0  0  0
  5  6  2  0  0  0
  6  7  1  0  0  0
  7  8  2  0  0  0
  7  9  1  0  0  0
  8  3  1  0  0  0
  9 10  2  0  0  0
  9 11  1  0  0  0
 11 13  1  0  0  0
 13 14  1  0  0  0
 14 15  1  0  0  0
 15 13  1  0  0  0
 23 24  1  0  0  0
 24 25  2  0  0  0
 24 26  1  0  0  0
 26 27  1  0  0  0
 26 20  1  0  0  0
 27 28  2  0  0  0
 28 18  1  0  0  0
  1  2  1  0  0  0
 11 12  1  0  0  0
M  END
>  <minimizedAffinity>
-8.60685

>  <minimizedRMSD>
1.01140

$$$$
1875258719 CSSS00160451946 MCULE-5889997382 MolPort-046-808-611 PubChem-145890821 Z1640929479


 24 26  0  0  0  0  0  0  0  0999 V2000
   17.6175   -9.6117   13.2394 N   0  0  0  0  0  0  0  0  0  0  0  0
   17.3829   -8.6767   13.4393 H   0  0  0  0  0  0  0  0  0  0  0  0
   17.3429  -10.1731   15.6388 C   0  0  0  0  0  0  0  0  0  0  0  0
   17.7494  -10.5298   14.3311 C   0  0  0  0  0  0  0  0  0  0  0  0
   18.2891  -11.8061   14.1134 C   0  0  0  0  0  0  0  0  0  0  0  0
   18.4204  -12.6868   15.1390 N   0  0  0  0  0  0  0  0  0  0  0  0
   18.0374  -12.3668   16.4014 C   0  0  0  0  0  0  0  0  0  0  0  0
   17.4952  -11.1107   16.6697 C   0  0  0  0  0  0  0  0  0  0  0  0
   16.3503   -8.5639   17.3061 N   0  0  0  0  0  0  0  0  0  0  0  0
   16.7615   -8.8492   15.9714 C   0  0  0  0  0  0  0  0  0  0  0  0
   16.6207   -7.9596   15.0914 O   0  0  0  0  0  0  0  0  0  0  0  0
   16.4518   -9.2458   18.0088 H   0  0  0  0  0  0  0  0  0  0  0  0
   15.9647   -7.6849   17.5251 H   0  0  0  0  0  0  0  0  0  0  0  0
   17.8135   -9.9940   11.8503 C   0  0  0  0  0  0  0  0  0  0  0  0
   16.5101   -9.8322   11.0939 C   0  0  0  0  0  0  0  0  0  0  0  0
   16.7750   -9.7281    9.6289 C   0  0  0  0  0  0  0  0  0  0  0  0
   17.6879   -8.9259    9.0587 N   0  0  0  0  0  0  0  0  0  0  0  0
   17.5486   -9.1614    7.7484 C   0  0  0  0  0  0  0  0  0  0  0  0
   18.3362   -8.5020    6.8092 C   0  0  0  0  0  0  0  0  0  0  0  0
   19.2787   -7.5813    7.2997 C   0  0  0  0  0  0  0  0  0  0  0  0
   19.4041   -7.3488    8.6850 C   0  0  0  0  0  0  0  0  0  0  0  0
   18.5789   -8.0463    9.5803 C   0  0  0  0  0  0  0  0  0  0  0  0
   16.5874  -10.0700    7.5013 N   0  0  0  0  0  0  0  0  0  0  0  0
   16.0990  -10.4247    8.6878 N   0  0  0  0  0  0  0  0  0  0  0  0
  9 10  1  0  0  0
 10  3  1  0  0  0
  3  4  2  0  0  0
  4  1  1  0  0  0
  1 14  1  0  0  0
 14 15  1  0  0  0
 15 16  1  0  0  0
 16 17  1  0  0  0
 17 18  1  0  0  0
 18 19  1  0  0  0
 19 20  2  0  0  0
 20 21  1  0  0  0
 21 22  2  0  0  0
 18 23  2  0  0  0
 23 24  1  0  0  0
  4  5  1  0  0  0
  5  6  2  0  0  0
  6  7  1  0  0  0
  7  8  2  0  0  0
 10 11  2  0  0  0
  8  3  1  0  0  0
 24 16  2  0  0  0
 22 17  1  0  0  0
  9 12  1  0  0  0
  9 13  1  0  0  0
  1  2  1  0  0  0
M  END
>  <minimizedAffinity>
-8.56035

>  <minimizedRMSD>
1.07533

$$$$
CSSS00534150469 Z1573580083


 30 33  0  0  0  0  0  0  0  0999 V2000
   16.8197   -9.4568   14.5986 C   0  0  0  0  0  0  0  0  0  0  0  0
   17.6179  -10.4762   15.1375 C   0  0  0  0  0  0  0  0  0  0  0  0
   17.6535  -10.6849   16.5183 C   0  0  0  0  0  0  0  0  0  0  0  0
   16.8925   -9.8765   17.3667 C   0  0  0  0  0  0  0  0  0  0  0  0
   16.0908   -8.8537   16.8407 C   0  0  0  0  0  0  0  0  0  0  0  0
   16.0606   -8.6511   15.4531 C   0  0  0  0  0  0  0  0  0  0  0  0
   15.2878   -8.0027   17.7357 C   0  0  0  0  0  0  0  0  0  0  0  0
   14.5130   -7.1325   17.2515 O   0  0  0  0  0  0  0  0  0  0  0  0
   15.3892   -8.1597   19.1552 N   0  0  0  0  0  0  0  0  0  0  0  0
   16.0299   -8.8169   19.5113 H   0  0  0  0  0  0  0  0  0  0  0  0
   14.5864   -7.3899   20.0954 C   0  0  0  0  0  0  0  0  0  0  0  0
   13.1715   -7.3187   19.6311 C   0  0  0  0  0  0  0  0  0  0  0  0
   12.5601   -6.0759   19.4455 C   0  0  0  0  0  0  0  0  0  0  0  0
   11.2388   -6.0259   18.9981 C   0  0  0  0  0  0  0  0  0  0  0  0
   10.5466   -7.2107   18.7406 C   0  0  0  0  0  0  0  0  0  0  0  0
   11.1924   -8.4337   18.9358 C   0  0  0  0  0  0  0  0  0  0  0  0
   12.4806   -8.4627   19.3724 N   0  0  0  0  0  0  0  0  0  0  0  0
   16.7668   -9.2230   13.1899 N   0  0  0  0  0  0  0  0  0  0  0  0
   16.1501   -8.5348   12.8501 H   0  0  0  0  0  0  0  0  0  0  0  0
   17.5837   -9.9568   12.2355 C   0  0  0  0  0  0  0  0  0  0  0  0
   20.1017   -7.4276    8.0502 C   0  0  0  0  0  0  0  0  0  0  0  0
   18.8380   -8.1586    8.3266 C   0  0  0  0  0  0  0  0  0  0  0  0
   17.8799   -8.3286    7.3086 C   0  0  0  0  0  0  0  0  0  0  0  0
   16.6823   -9.0173    7.5635 C   0  0  0  0  0  0  0  0  0  0  0  0
   16.4932   -9.5166    8.8501 C   0  0  0  0  0  0  0  0  0  0  0  0
   15.4104  -10.1915    9.2847 N   0  0  0  0  0  0  0  0  0  0  0  0
   15.6803  -10.4552   10.5892 C   0  0  0  0  0  0  0  0  0  0  0  0
   16.9287   -9.9356   10.8968 C   0  0  0  0  0  0  0  0  0  0  0  0
   17.4221   -9.3433    9.8014 N   0  0  0  0  0  0  0  0  0  0  0  0
   18.5914   -8.6837    9.6030 C   0  0  0  0  0  0  0  0  0  0  0  0
 21 22  1  0  0  0
 22 23  1  0  0  0
 23 24  2  0  0  0
 24 25  1  0  0  0
 25 26  2  0  0  0
 26 27  1  0  0  0
 27 28  2  0  0  0
 28 20  1  0  0  0
 20 18  1  0  0  0
 18  1  1  0  0  0
  1  2  2  0  0  0
  2  3  1  0  0  0
  3  4  2  0  0  0
  4  5  1  0  0  0
  5  6  2  0  0  0
  5  7  1  0  0  0
  7  8  2  0  0  0
  7  9  1  0  0  0
  9 11  1  0  0  0
 11 12  1  0  0  0
 12 13  2  0  0  0
 13 14  1  0  0  0
 14 15  2  0  0  0
 15 16  1  0  0  0
 16 17  2  0  0  0
 28 29  1  0  0  0
 29 30  1  0  0  0
 30 22  2  0  0  0
 29 25  1  0  0  0
  6  1  1  0  0  0
 17 12  1  0  0  0
 18 19  1  0  0  0
  9 10  1  0  0  0
M  END
>  <minimizedAffinity>
-8.49959

>  <minimizedRMSD>
1.18604

$$$$
CSC026575745 9112477 CSSS00026575745 MCULE-9341145901 MolPort-005-539-137 PubChem-16234687 Z191871888 ZINC000009112477 ZINC09112477


 25 27  0  0  0  0  0  0  0  0999 V2000
   16.8413   -9.5223   12.8710 C   0  0  0  0  0  0  0  0  0  0  0  0
   16.0182   -8.5872   12.6726 O   0  0  0  0  0  0  0  0  0  0  0  0
   17.5038  -10.1432   11.7612 N   0  0  0  0  0  0  0  0  0  0  0  0
   17.9889  -10.9845   11.9228 H   0  0  0  0  0  0  0  0  0  0  0  0
   17.5011   -9.6207   10.4549 N   0  0  0  0  0  0  0  0  0  0  0  0
   16.4614   -9.9664    9.6336 C   0  0  0  0  0  0  0  0  0  0  0  0
   16.4016   -9.5142    8.3494 N   0  0  0  0  0  0  0  0  0  0  0  0
   17.3976   -8.7209    7.8948 C   0  0  0  0  0  0  0  0  0  0  0  0
   18.4732   -8.3713    8.6715 C   0  0  0  0  0  0  0  0  0  0  0  0
   19.4077   -7.5670    8.0085 C   0  0  0  0  0  0  0  0  0  0  0  0
   19.0354   -7.2896    6.6874 C   0  0  0  0  0  0  0  0  0  0  0  0
   17.5541   -8.0551    6.3711 S   0  0  0  0  0  0  0  0  0  0  0  0
   18.5343   -8.8456    9.9812 C   0  0  0  0  0  0  0  0  0  0  0  0
   19.5376   -8.5881   10.7011 O   0  0  0  0  0  0  0  0  0  0  0  0
   16.8443   -9.7380   16.6517 C   0  0  0  0  0  0  0  0  0  0  0  0
   17.5629  -10.9216   16.8475 C   0  0  0  0  0  0  0  0  0  0  0  0
   18.0439  -11.6461   15.7538 C   0  0  0  0  0  0  0  0  0  0  0  0
   17.8080  -11.1895   14.4548 C   0  0  0  0  0  0  0  0  0  0  0  0
   17.0892  -10.0057   14.2402 C   0  0  0  0  0  0  0  0  0  0  0  0
   16.6111   -9.2856   15.3442 C   0  0  0  0  0  0  0  0  0  0  0  0
   14.9956   -7.3608   19.1044 C   0  0  0  0  0  0  0  0  0  0  0  0
   15.3665   -7.9962   17.8136 C   0  0  0  0  0  0  0  0  0  0  0  0
   14.7956   -7.6225   16.7552 O   0  0  0  0  0  0  0  0  0  0  0  0
   16.3671   -9.0221   17.7990 N   0  0  0  0  0  0  0  0  0  0  0  0
   16.7682   -9.2600   18.6661 H   0  0  0  0  0  0  0  0  0  0  0  0
 21 22  1  0  0  0
 22 23  2  0  0  0
 22 24  1  0  0  0
 24 15  1  0  0  0
 15 16  2  0  0  0
 16 17  1  0  0  0
 17 18  2  0  0  0
 18 19  1  0  0  0
 19 20  2  0  0  0
 19  1  1  0  0  0
 20 15  1  0  0  0
  1  2  2  0  0  0
  1  3  1  0  0  0
  3  5  1  0  0  0
  5  6  1  0  0  0
  6  7  2  0  0  0
  7  8  1  0  0  0
  8  9  2  0  0  0
  9 10  1  0  0  0
  9 13  1  0  0  0
 10 11  2  0  0  0
 11 12  1  0  0  0
 12  8  1  0  0  0
 13 14  2  0  0  0
 13  5  1  0  0  0
 24 25  1  0  0  0
  3  4  1  0  0  0
M  END
>  <minimizedAffinity>
-8.49573

>  <minimizedRMSD>
0.69512

$$$$
CSC027880459 3373677 CHEMBL1475640 CSSS00027880459 MCULE-1536119508 MolPort-004-278-037 PubChem-2491450 Z19573077 ZINC000003373677 ZINC03373677


 28 30  0  0  0  0  0  0  0  0999 V2000
   16.7685   -9.4887   11.0735 C   0  0  0  0  0  0  0  0  0  0  0  0
   17.5876   -9.9929   12.2144 C   0  0  0  0  0  0  0  0  0  0  0  0
   18.5974  -10.7047   11.9667 O   0  0  0  0  0  0  0  0  0  0  0  0
   16.6234   -8.9776   16.2721 C   0  0  0  0  0  0  0  0  0  0  0  0
   15.9910   -8.3173   15.2085 C   0  0  0  0  0  0  0  0  0  0  0  0
   16.3029   -8.6466   13.8870 C   0  0  0  0  0  0  0  0  0  0  0  0
   17.2519   -9.6409   13.6082 C   0  0  0  0  0  0  0  0  0  0  0  0
   17.8822  -10.2998   14.6733 C   0  0  0  0  0  0  0  0  0  0  0  0
   17.5692   -9.9695   15.9948 C   0  0  0  0  0  0  0  0  0  0  0  0
   15.0802   -7.6710   19.5883 C   0  0  0  0  0  0  0  0  0  0  0  0
   15.2344   -7.8798   18.1254 C   0  0  0  0  0  0  0  0  0  0  0  0
   14.4027   -7.3588   17.3365 O   0  0  0  0  0  0  0  0  0  0  0  0
   16.3283   -8.6687   17.6412 N   0  0  0  0  0  0  0  0  0  0  0  0
   16.9407   -9.0368   18.3185 H   0  0  0  0  0  0  0  0  0  0  0  0
   17.6205   -9.1552    9.9875 O   0  0  0  0  0  0  0  0  0  0  0  0
   17.2146   -9.3009    8.6605 C   0  0  0  0  0  0  0  0  0  0  0  0
   16.1587   -9.9297    8.3771 O   0  0  0  0  0  0  0  0  0  0  0  0
   18.0250   -8.7161    7.5892 C   0  0  0  0  0  0  0  0  0  0  0  0
   17.8221   -8.9776    6.2731 N   0  0  0  0  0  0  0  0  0  0  0  0
   18.7433   -8.2675    5.6535 N   0  0  0  0  0  0  0  0  0  0  0  0
   19.4630   -7.6119    6.5642 C   0  0  0  0  0  0  0  0  0  0  0  0
   19.0542   -7.8561    7.8205 N   0  0  0  0  0  0  0  0  0  0  0  0
   20.4880   -6.7997    6.2081 N   0  0  0  0  0  0  0  0  0  0  0  0
   20.7808   -6.6577    4.8810 C   0  0  0  0  0  0  0  0  0  0  0  0
   21.8990   -5.7731    4.4626 C   0  0  0  0  0  0  0  0  0  0  0  0
   20.0297   -7.3429    3.9042 C   0  0  0  0  0  0  0  0  0  0  0  0
   18.9795   -8.1713    4.3217 C   0  0  0  0  0  0  0  0  0  0  0  0
   18.1576   -8.9163    3.3278 C   0  0  0  0  0  0  0  0  0  0  0  0
 10 11  1  0  0  0
 11 12  2  0  0  0
 11 13  1  0  0  0
 13  4  1  0  0  0
  4  5  2  0  0  0
  5  6  1  0  0  0
  6  7  2  0  0  0
  7  8  1  0  0  0
  7  2  1  0  0  0
  8  9  2  0  0  0
  9  4  1  0  0  0
  2  3  2  0  0  0
  2  1  1  0  0  0
  1 15  1  0  0  0
 15 16  1  0  0  0
 16 17  2  0  0  0
 16 18  1  0  0  0
 18 19  2  0  0  0
 19 20  1  0  0  0
 20 21  1  0  0  0
 21 22  2  0  0  0
 21 23  1  0  0  0
 22 18  1  0  0  0
 23 24  2  0  0  0
 24 25  1  0  0  0
 24 26  1  0  0  0
 26 27  2  0  0  0
 27 28  1  0  0  0
 27 20  1  0  0  0
 13 14  1  0  0  0
M  END
>  <minimizedAffinity>
-8.49555

>  <minimizedRMSD>
2.37147

$$$$
CSC026167029 3450601 CSSS00026167029 MCULE-4503188306 MolPort-004-276-953 PubChem-2570853 Z24132972 ZINC000003450601 ZINC03450601


 29 31  0  0  0  0  0  0  0  0999 V2000
   17.9341  -10.9977   13.4809 C   0  0  0  0  0  0  0  0  0  0  0  0
   18.0360  -12.2559   13.4712 O   0  0  0  0  0  0  0  0  0  0  0  0
   16.4765   -8.9819   16.9707 C   0  0  0  0  0  0  0  0  0  0  0  0
   16.2933   -8.4223   15.6976 C   0  0  0  0  0  0  0  0  0  0  0  0
   16.7692   -9.0811   14.5607 C   0  0  0  0  0  0  0  0  0  0  0  0
   17.4346  -10.3078   14.6811 C   0  0  0  0  0  0  0  0  0  0  0  0
   17.6177  -10.8668   15.9535 C   0  0  0  0  0  0  0  0  0  0  0  0
   17.1411  -10.2066   17.0897 C   0  0  0  0  0  0  0  0  0  0  0  0
   14.4723   -7.0077   19.5637 N   0  0  0  0  0  0  0  0  0  0  0  0
   14.7900   -7.5847   18.3034 C   0  0  0  0  0  0  0  0  0  0  0  0
   14.0016   -7.4265   17.3345 O   0  0  0  0  0  0  0  0  0  0  0  0
   16.0024   -8.3356   18.1602 N   0  0  0  0  0  0  0  0  0  0  0  0
   13.6420   -6.4900   19.6728 H   0  0  0  0  0  0  0  0  0  0  0  0
   15.0825   -7.1259   20.3272 H   0  0  0  0  0  0  0  0  0  0  0  0
   16.5686   -8.4163   18.9615 H   0  0  0  0  0  0  0  0  0  0  0  0
   18.2939  -10.2538   12.3549 O   0  0  0  0  0  0  0  0  0  0  0  0
   17.4474   -9.2489   11.8163 C   0  0  0  0  0  0  0  0  0  0  0  0
   17.6208   -9.1903   10.3410 C   0  0  0  0  0  0  0  0  0  0  0  0
   16.8052   -9.9563    9.5134 C   0  0  0  0  0  0  0  0  0  0  0  0
   16.9699   -9.8608    8.1325 C   0  0  0  0  0  0  0  0  0  0  0  0
   16.2347  -10.5580    7.3805 O   0  0  0  0  0  0  0  0  0  0  0  0
   17.9159   -9.0200    7.6097 N   0  0  0  0  0  0  0  0  0  0  0  0
   18.0762   -8.9271    6.2558 C   0  0  0  0  0  0  0  0  0  0  0  0
   19.0338   -8.0726    5.7075 C   0  0  0  0  0  0  0  0  0  0  0  0
   19.2451   -7.9542    3.8179 Br  0  0  0  0  0  0  0  0  0  0  0  0
   19.8329   -7.3065    6.5534 C   0  0  0  0  0  0  0  0  0  0  0  0
   19.6690   -7.4017    7.9340 C   0  0  0  0  0  0  0  0  0  0  0  0
   18.7027   -8.2668    8.4533 C   0  0  0  0  0  0  0  0  0  0  0  0
   18.5446   -8.3576    9.7991 N   0  0  0  0  0  0  0  0  0  0  0  0
  9 10  1  0  0  0
 10 11  2  0  0  0
 10 12  1  0  0  0
 12  3  1  0  0  0
  3  4  2  0  0  0
  4  5  1  0  0  0
  5  6  2  0  0  0
  6  7  1  0  0  0
  6  1  1  0  0  0
  7  8  2  0  0  0
  8  3  1  0  0  0
  1  2  2  0  0  0
  1 16  1  0  0  0
 16 17  1  0  0  0
 17 18  1  0  0  0
 18 19  2  0  0  0
 19 20  1  0  0  0
 20 21  2  0  0  0
 20 22  1  0  0  0
 22 23  1  0  0  0
 23 24  2  0  0  0
 24 25  1  0  0  0
 24 26  1  0  0  0
 26 27  2  0  0  0
 27 28  1  0  0  0
 28 29  2  0  0  0
 28 22  1  0  0  0
 29 18  1  0  0  0
  9 13  1  0  0  0
  9 14  1  0  0  0
 12 15  1  0  0  0
M  END
>  <minimizedAffinity>
-8.43531

>  <minimizedRMSD>
1.06412

$$$$
CSC027665012 CSSS00027665012 MCULE-6094543514 MolPort-023-184-765 Z1343690819


 30 32  0  0  0  0  0  0  0  0999 V2000
   18.0464  -10.3747   11.6108 N   0  0  0  0  0  0  0  0  0  0  0  0
   17.3414   -9.3438   10.9025 C   0  0  0  0  0  0  0  0  0  0  0  0
   16.4960   -8.6247   11.5007 O   0  0  0  0  0  0  0  0  0  0  0  0
   18.6902  -10.9058   11.0886 H   0  0  0  0  0  0  0  0  0  0  0  0
   17.6064   -9.1280    9.4563 C   0  0  0  0  0  0  0  0  0  0  0  0
   16.7360   -9.6786    8.4905 C   0  0  0  0  0  0  0  0  0  0  0  0
   15.6154  -10.4079    8.8721 O   0  0  0  0  0  0  0  0  0  0  0  0
   16.9677   -9.4872    7.1663 N   0  0  0  0  0  0  0  0  0  0  0  0
   18.0246   -8.7693    6.7149 C   0  0  0  0  0  0  0  0  0  0  0  0
   18.9296   -8.1913    7.6301 C   0  0  0  0  0  0  0  0  0  0  0  0
   20.0201   -7.4537    7.1392 C   0  0  0  0  0  0  0  0  0  0  0  0
   20.2040   -7.2931    5.7632 C   0  0  0  0  0  0  0  0  0  0  0  0
   19.3019   -7.8679    4.8645 C   0  0  0  0  0  0  0  0  0  0  0  0
   18.2142   -8.6049    5.3395 C   0  0  0  0  0  0  0  0  0  0  0  0
   18.7202   -8.3726    9.0107 C   0  0  0  0  0  0  0  0  0  0  0  0
   19.7061   -7.8025    9.9881 C   0  0  0  0  0  0  0  0  0  0  0  0
   15.4371  -10.5516    9.7807 H   0  0  0  0  0  0  0  0  0  0  0  0
   17.6995  -11.4282   15.7112 C   0  0  0  0  0  0  0  0  0  0  0  0
   16.9264  -10.3708   15.2041 C   0  0  0  0  0  0  0  0  0  0  0  0
   17.0405  -10.0226   13.8499 C   0  0  0  0  0  0  0  0  0  0  0  0
   17.9127  -10.7132   12.9979 C   0  0  0  0  0  0  0  0  0  0  0  0
   18.6776  -11.7626   13.5107 C   0  0  0  0  0  0  0  0  0  0  0  0
   18.5734  -12.1193   14.8563 C   0  0  0  0  0  0  0  0  0  0  0  0
   16.0354   -9.6692   16.0851 N   0  0  0  0  0  0  0  0  0  0  0  0
   15.8594   -8.2498   16.1780 C   0  0  0  0  0  0  0  0  0  0  0  0
   14.8839   -7.7011   17.1551 C   0  0  0  0  0  0  0  0  0  0  0  0
   16.5141   -7.4588   15.4492 O   0  0  0  0  0  0  0  0  0  0  0  0
   15.4877  -10.2213   16.6888 H   0  0  0  0  0  0  0  0  0  0  0  0
   18.5759  -11.4490   18.0275 C   0  0  0  0  0  0  0  0  0  0  0  0
   17.5851  -11.7751   17.0623 O   0  0  0  0  0  0  0  0  0  0  0  0
 29 30  1  0  0  0
 30 18  1  0  0  0
 18 19  2  0  0  0
 19 24  1  0  0  0
 24 25  1  0  0  0
 25 26  1  0  0  0
 25 27  2  0  0  0
 19 20  1  0  0  0
 20 21  2  0  0  0
 21  1  1  0  0  0
  1  2  1  0  0  0
  2  5  1  0  0  0
  5  6  2  0  0  0
  6  7  1  0  0  0
  6  8  1  0  0  0
  8  9  2  0  0  0
  9 10  1  0  0  0
 10 11  1  0  0  0
 11 12  2  0  0  0
 12 13  1  0  0  0
 13 14  2  0  0  0
 10 15  2  0  0  0
 15 16  1  0  0  0
  2  3  2  0  0  0
 21 22  1  0  0  0
 22 23  2  0  0  0
 23 18  1  0  0  0
 15  5  1  0  0  0
 14  9  1  0  0  0
 24 28  1  0  0  0
  1  4  1  0  0  0
  7 17  1  0  0  0
M  END
>  <minimizedAffinity>
-8.42446

>  <minimizedRMSD>
1.84878

$$$$
36359645 CSSS00160788560 LN00832643 MCULE-1656256382 MolPort-008-339-713 PubChem-45494014 ZINC000036359645 ZINC36359645


 29 32  0  0  0  0  0  0  0  0999 V2000
   15.9075   -9.3214   15.9377 C   0  0  0  0  0  0  0  0  0  0  0  0
   16.1189   -8.0818   16.7894 C   0  0  0  0  0  0  0  0  0  0  0  0
   13.8056   -7.7107   17.1973 O   0  0  0  0  0  0  0  0  0  0  0  0
   14.9522   -7.8833   17.6902 C   0  0  0  0  0  0  0  0  0  0  0  0
   15.1375   -7.9263   19.1063 N   0  0  0  0  0  0  0  0  0  0  0  0
   16.0411   -8.0929   19.4600 H   0  0  0  0  0  0  0  0  0  0  0  0
   14.0434   -7.7337   20.0468 C   0  0  0  0  0  0  0  0  0  0  0  0
   13.3727   -6.3702   19.8031 C   0  0  0  0  0  0  0  0  0  0  0  0
   13.5454   -5.6565   21.0841 C   0  0  0  0  0  0  0  0  0  0  0  0
   13.1030   -4.3674   21.3834 C   0  0  0  0  0  0  0  0  0  0  0  0
   13.3614   -3.8508   22.6625 C   0  0  0  0  0  0  0  0  0  0  0  0
   14.0522   -4.6246   23.6123 C   0  0  0  0  0  0  0  0  0  0  0  0
   14.4878   -5.9185   23.2870 C   0  0  0  0  0  0  0  0  0  0  0  0
   14.2186   -6.4104   22.0092 C   0  0  0  0  0  0  0  0  0  0  0  0
   14.5953   -7.7367   21.4803 C   0  0  0  0  0  0  0  0  0  0  0  0
   16.8260   -9.2969   14.7295 C   0  0  0  0  0  0  0  0  0  0  0  0
   16.0169   -9.3733   13.4490 C   0  0  0  0  0  0  0  0  0  0  0  0
   16.5892  -10.4575   12.5530 C   0  0  0  0  0  0  0  0  0  0  0  0
   16.7649   -9.9574   11.1937 N   0  0  0  0  0  0  0  0  0  0  0  0
   15.8035  -10.2260   10.2661 C   0  0  0  0  0  0  0  0  0  0  0  0
   15.9378   -9.7953    8.9853 N   0  0  0  0  0  0  0  0  0  0  0  0
   17.0315   -9.0938    8.5979 C   0  0  0  0  0  0  0  0  0  0  0  0
   17.1527   -8.6576    7.2753 C   0  0  0  0  0  0  0  0  0  0  0  0
   18.2827   -7.9365    6.8775 C   0  0  0  0  0  0  0  0  0  0  0  0
   19.2939   -7.6503    7.8000 C   0  0  0  0  0  0  0  0  0  0  0  0
   19.1789   -8.0838    9.1243 C   0  0  0  0  0  0  0  0  0  0  0  0
   18.0480   -8.8069    9.5308 C   0  0  0  0  0  0  0  0  0  0  0  0
   17.8904   -9.2614   10.8480 C   0  0  0  0  0  0  0  0  0  0  0  0
   18.7833   -9.0262   11.7100 O   0  0  0  0  0  0  0  0  0  0  0  0
  3  4  2  0  0  0
  4  2  1  0  0  0
  4  5  1  0  0  0
  2  1  1  0  0  0
  1 16  1  0  0  0
 16 17  1  0  0  0
 17 18  1  0  0  0
 18 19  1  0  0  0
 19 20  1  0  0  0
 20 21  2  0  0  0
 21 22  1  0  0  0
 22 23  2  0  0  0
 23 24  1  0  0  0
 24 25  2  0  0  0
 25 26  1  0  0  0
 26 27  2  0  0  0
 27 28  1  0  0  0
 27 22  1  0  0  0
 28 29  2  0  0  0
 28 19  1  0  0  0
  5  7  1  0  0  0
  7  8  1  0  0  0
  8  9  1  0  0  0
  9 10  2  0  0  0
 10 11  1  0  0  0
 11 12  2  0  0  0
 12 13  1  0  0  0
 13 14  2  0  0  0
 14 15  1  0  0  0
 14  9  1  0  0  0
 15  7  1  0  0  0
  5  6  1  0  0  0
M  END
>  <minimizedAffinity>
-8.42435

>  <minimizedRMSD>
2.00460

$$$$
CSC058131642 CSSS00058131642 MCULE-9715313456 MolPort-046-631-672 Z1583404247


 28 31  0  0  0  0  0  0  0  0999 V2000
   18.0830  -10.0412   12.5917 N   0  0  0  0  0  0  0  0  0  0  0  0
   18.8779  -11.2338   12.8740 C   0  0  0  0  0  0  0  0  0  0  0  0
   18.0966  -12.1558   13.8073 C   0  0  0  0  0  0  0  0  0  0  0  0
   17.6765  -11.3945   15.0639 C   0  0  0  0  0  0  0  0  0  0  0  0
   16.8500  -10.1616   14.6922 C   0  0  0  0  0  0  0  0  0  0  0  0
   17.6422   -9.2614   13.7461 C   0  0  0  0  0  0  0  0  0  0  0  0
   17.2472   -8.1727    6.6577 C   0  0  0  0  0  0  0  0  0  0  0  0
   17.9483   -8.3143    7.9660 C   0  0  0  0  0  0  0  0  0  0  0  0
   17.3761   -9.0385    9.0275 C   0  0  0  0  0  0  0  0  0  0  0  0
   16.1702   -9.6471    8.8752 N   0  0  0  0  0  0  0  0  0  0  0  0
   15.6150  -10.3642    9.8835 C   0  0  0  0  0  0  0  0  0  0  0  0
   16.2574  -10.4798   11.0732 N   0  0  0  0  0  0  0  0  0  0  0  0
   17.4610   -9.8849   11.3014 C   0  0  0  0  0  0  0  0  0  0  0  0
   18.0644   -9.1478   10.2586 C   0  0  0  0  0  0  0  0  0  0  0  0
   19.3263   -8.5511   10.3937 C   0  0  0  0  0  0  0  0  0  0  0  0
   19.8906   -7.8379    9.3346 C   0  0  0  0  0  0  0  0  0  0  0  0
   19.2020   -7.7182    8.1263 C   0  0  0  0  0  0  0  0  0  0  0  0
   16.4565   -9.4075   15.9177 C   0  0  0  0  0  0  0  0  0  0  0  0
   17.2546   -9.2308   16.9877 N   0  0  0  0  0  0  0  0  0  0  0  0
   16.5873   -8.5185   17.8784 N   0  0  0  0  0  0  0  0  0  0  0  0
   15.3715   -8.2478   17.3682 C   0  0  0  0  0  0  0  0  0  0  0  0
   15.2320   -8.7966   16.1054 C   0  0  0  0  0  0  0  0  0  0  0  0
   16.9209   -8.2354   18.7604 H   0  0  0  0  0  0  0  0  0  0  0  0
   14.3471   -7.4714   18.0756 C   0  0  0  0  0  0  0  0  0  0  0  0
   14.4520   -7.2620   19.4797 N   0  0  0  0  0  0  0  0  0  0  0  0
   13.3703   -6.9862   17.4462 O   0  0  0  0  0  0  0  0  0  0  0  0
   15.2130   -7.6384   19.9780 H   0  0  0  0  0  0  0  0  0  0  0  0
   13.7634   -6.7408   19.9524 H   0  0  0  0  0  0  0  0  0  0  0  0
  7  8  1  0  0  0
  8  9  2  0  0  0
  9 10  1  0  0  0
 10 11  2  0  0  0
 11 12  1  0  0  0
 12 13  2  0  0  0
 13  1  1  0  0  0
  1  2  1  0  0  0
  2  3  1  0  0  0
  3  4  1  0  0  0
  4  5  1  0  0  0
  5  6  1  0  0  0
  5 18  1  0  0  0
 18 19  2  0  0  0
 19 20  1  0  0  0
 20 21  1  0  0  0
 21 22  2  0  0  0
 21 24  1  0  0  0
 24 25  1  0  0  0
 24 26  2  0  0  0
 13 14  1  0  0  0
 14 15  2  0  0  0
 15 16  1  0  0  0
 16 17  2  0  0  0
 17  8  1  0  0  0
 14  9  1  0  0  0
  6  1  1  0  0  0
 22 18  1  0  0  0
 20 23  1  0  0  0
 25 27  1  0  0  0
 25 28  1  0  0  0
M  END
>  <minimizedAffinity>
-8.41968

>  <minimizedRMSD>
2.00639

$$$$
CSC026945369 11545865 CSSS00026945369 MCULE-6801469002 MolPort-005-604-901 PubChem-17474915 Z91189157 ZINC000011545865


 29 31  0  0  0  0  0  0  0  0999 V2000
   17.3484  -10.6043   13.9407 C   0  0  0  0  0  0  0  0  0  0  0  0
   16.4948   -9.8481   13.0790 N   0  0  0  0  0  0  0  0  0  0  0  0
   18.0542  -11.5417   13.4824 O   0  0  0  0  0  0  0  0  0  0  0  0
   15.9144   -9.1585   13.4750 H   0  0  0  0  0  0  0  0  0  0  0  0
   17.4232  -10.2732   15.3890 C   0  0  0  0  0  0  0  0  0  0  0  0
   15.7813   -9.8188   16.0181 S   0  0  0  0  0  0  0  0  0  0  0  0
   16.4906   -8.5964   17.1569 C   0  0  0  0  0  0  0  0  0  0  0  0
   15.4131   -8.0468   19.3692 N   0  0  0  0  0  0  0  0  0  0  0  0
   15.4069   -7.9454   17.9391 C   0  0  0  0  0  0  0  0  0  0  0  0
   14.4784   -7.3523   17.3297 O   0  0  0  0  0  0  0  0  0  0  0  0
   16.1184   -8.6042   19.7706 H   0  0  0  0  0  0  0  0  0  0  0  0
   11.6887   -5.3706   23.2221 Cl  0  0  0  0  0  0  0  0  0  0  0  0
   12.7650   -6.1596   22.0891 C   0  0  0  0  0  0  0  0  0  0  0  0
   12.4066   -6.2649   20.7427 C   0  0  0  0  0  0  0  0  0  0  0  0
   13.2693   -6.8901   19.8377 C   0  0  0  0  0  0  0  0  0  0  0  0
   14.4949   -7.4178   20.2733 C   0  0  0  0  0  0  0  0  0  0  0  0
   14.8466   -7.3065   21.6231 C   0  0  0  0  0  0  0  0  0  0  0  0
   13.9841   -6.6818   22.5299 C   0  0  0  0  0  0  0  0  0  0  0  0
   16.4496  -10.0575   11.6384 C   0  0  0  0  0  0  0  0  0  0  0  0
   17.5005   -9.2048   10.9411 C   0  0  0  0  0  0  0  0  0  0  0  0
   17.3929   -9.3412    9.4567 C   0  0  0  0  0  0  0  0  0  0  0  0
   18.1376   -8.6674    8.5682 N   0  0  0  0  0  0  0  0  0  0  0  0
   17.6875   -9.0932    7.3818 C   0  0  0  0  0  0  0  0  0  0  0  0
   18.2214   -8.6089    6.1919 C   0  0  0  0  0  0  0  0  0  0  0  0
   19.2503   -7.6563    6.2956 C   0  0  0  0  0  0  0  0  0  0  0  0
   19.7052   -7.2215    7.5580 C   0  0  0  0  0  0  0  0  0  0  0  0
   19.1223   -7.7475    8.7207 C   0  0  0  0  0  0  0  0  0  0  0  0
   16.7012   -9.9986    7.5155 N   0  0  0  0  0  0  0  0  0  0  0  0
   16.5162  -10.1549    8.8248 N   0  0  0  0  0  0  0  0  0  0  0  0
 12 13  1  0  0  0
 13 14  2  0  0  0
 14 15  1  0  0  0
 15 16  2  0  0  0
 16  8  1  0  0  0
  8  9  1  0  0  0
  9  7  1  0  0  0
  7  6  1  0  0  0
  6  5  1  0  0  0
  5  1  1  0  0  0
  1  2  1  0  0  0
  2 19  1  0  0  0
 19 20  1  0  0  0
 20 21  1  0  0  0
 21 22  1  0  0  0
 22 23  1  0  0  0
 23 24  1  0  0  0
 24 25  2  0  0  0
 25 26  1  0  0  0
 26 27  2  0  0  0
 23 28  2  0  0  0
 28 29  1  0  0  0
  1  3  2  0  0  0
  9 10  2  0  0  0
 16 17  1  0  0  0
 17 18  2  0  0  0
 18 13  1  0  0  0
 29 21  2  0  0  0
 27 22  1  0  0  0
  8 11  1  0  0  0
  2  4  1  0  0  0
M  END
>  <minimizedAffinity>
-8.41781

>  <minimizedRMSD>
1.69232

$$$$
1772817583 CSSS02125549826 MCULE-3984495892 MolPort-046-758-136


 24 26  0  0  0  0  0  0  0  0999 V2000
   17.9746  -10.7052   13.0990 C   0  0  0  0  0  0  0  0  0  0  0  0
   16.3128   -8.4223   16.3785 C   0  0  0  0  0  0  0  0  0  0  0  0
   16.7726   -9.8554   16.6472 C   0  0  0  0  0  0  0  0  0  0  0  0
   17.7155  -10.3225   15.5420 C   0  0  0  0  0  0  0  0  0  0  0  0
   17.0212  -10.2349   14.1860 C   0  0  0  0  0  0  0  0  0  0  0  0
   16.5806   -8.7963   13.9163 C   0  0  0  0  0  0  0  0  0  0  0  0
   15.6320   -8.3225   15.0134 C   0  0  0  0  0  0  0  0  0  0  0  0
   14.9679   -7.6016   19.9146 C   0  0  0  0  0  0  0  0  0  0  0  0
   15.8159   -8.0368   18.8179 N   0  0  0  0  0  0  0  0  0  0  0  0
   15.3918   -7.9577   17.4573 C   0  0  0  0  0  0  0  0  0  0  0  0
   14.2516   -7.5004   17.1685 O   0  0  0  0  0  0  0  0  0  0  0  0
   16.7097   -8.3971   19.0193 H   0  0  0  0  0  0  0  0  0  0  0  0
   18.2035   -9.6489   12.1218 N   0  0  0  0  0  0  0  0  0  0  0  0
   18.8335   -8.9271   12.3484 H   0  0  0  0  0  0  0  0  0  0  0  0
   17.5538   -9.6136   10.8481 C   0  0  0  0  0  0  0  0  0  0  0  0
   18.0960   -8.8958    9.7898 C   0  0  0  0  0  0  0  0  0  0  0  0
   19.2204   -8.1671    9.7633 N   0  0  0  0  0  0  0  0  0  0  0  0
   19.2779   -7.6828    8.4950 C   0  0  0  0  0  0  0  0  0  0  0  0
   18.1914   -8.1041    7.7195 C   0  0  0  0  0  0  0  0  0  0  0  0
   17.4656   -8.8759    8.5916 C   0  0  0  0  0  0  0  0  0  0  0  0
   16.3051   -9.5403    8.3734 N   0  0  0  0  0  0  0  0  0  0  0  0
   15.7627  -10.2517    9.4067 C   0  0  0  0  0  0  0  0  0  0  0  0
   16.3834  -10.2857   10.6283 N   0  0  0  0  0  0  0  0  0  0  0  0
   19.8598   -8.0166   10.4966 H   0  0  0  0  0  0  0  0  0  0  0  0
  8  9  1  0  0  0
  9 10  1  0  0  0
 10 11  2  0  0  0
  2 10  1  0  0  0
  2  3  1  0  0  0
  3  4  1  0  0  0
  4  5  1  0  0  0
  5  1  1  0  0  0
  1 13  1  0  0  0
 13 15  1  0  0  0
 15 16  2  0  0  0
 16 17  1  0  0  0
 17 18  1  0  0  0
 18 19  2  0  0  0
 19 20  1  0  0  0
 20 21  2  0  0  0
 21 22  1  0  0  0
 22 23  2  0  0  0
  5  6  1  0  0  0
  6  7  1  0  0  0
  7  2  1  0  0  0
 23 15  1  0  0  0
 20 16  1  0  0  0
  9 12  1  0  0  0
 13 14  1  0  0  0
 17 24  1  0  0  0
M  END
>  <minimizedAffinity>
-8.40731

>  <minimizedRMSD>
1.07354

$$$$
1776006571 CSSS00138536664 MCULE-8733788986 MolPort-046-730-641 PubChem-139017357 Z3366954948


 28 31  0  0  0  0  0  0  0  0999 V2000
   16.8710  -10.7782   12.7517 N   0  0  0  0  0  0  0  0  0  0  0  0
   17.2650  -11.6396   12.4833 H   0  0  0  0  0  0  0  0  0  0  0  0
   17.3268  -10.1651   13.9594 C   0  0  0  0  0  0  0  0  0  0  0  0
   16.4247   -9.6014   14.8741 C   0  0  0  0  0  0  0  0  0  0  0  0
   16.8873   -9.0036   16.0542 C   0  0  0  0  0  0  0  0  0  0  0  0
   18.2642   -8.9732   16.3144 C   0  0  0  0  0  0  0  0  0  0  0  0
   19.1663   -9.5335   15.4061 C   0  0  0  0  0  0  0  0  0  0  0  0
   18.6976  -10.1279   14.2315 C   0  0  0  0  0  0  0  0  0  0  0  0
   15.9362   -8.4136   17.0102 C   0  0  0  0  0  0  0  0  0  0  0  0
   14.7445   -7.8908   16.6393 N   0  0  0  0  0  0  0  0  0  0  0  0
   14.2078   -7.4726   17.7973 C   0  0  0  0  0  0  0  0  0  0  0  0
   12.8760   -6.8160   17.9072 C   0  0  0  0  0  0  0  0  0  0  0  0
   15.0727   -7.7472   18.8274 C   0  0  0  0  0  0  0  0  0  0  0  0
   14.8596   -7.4456   20.2699 C   0  0  0  0  0  0  0  0  0  0  0  0
   16.1729   -8.3442   18.3408 N   0  0  0  0  0  0  0  0  0  0  0  0
   16.9645   -8.6574   18.8352 H   0  0  0  0  0  0  0  0  0  0  0  0
   15.8500  -10.1850   11.9010 C   0  0  0  0  0  0  0  0  0  0  0  0
   17.9077   -8.4452    5.8296 C   0  0  0  0  0  0  0  0  0  0  0  0
   18.2926   -8.4421    7.2299 N   0  0  0  0  0  0  0  0  0  0  0  0
   19.4465   -7.9694    7.6899 N   0  0  0  0  0  0  0  0  0  0  0  0
   19.4524   -8.1362    9.0368 C   0  0  0  0  0  0  0  0  0  0  0  0
   20.5750   -7.7338    9.9268 C   0  0  0  0  0  0  0  0  0  0  0  0
   18.2677   -8.7293    9.4221 C   0  0  0  0  0  0  0  0  0  0  0  0
   17.7475   -9.1267   10.6481 C   0  0  0  0  0  0  0  0  0  0  0  0
   16.4661   -9.7112   10.6329 C   0  0  0  0  0  0  0  0  0  0  0  0
   15.7796   -9.8806    9.4056 C   0  0  0  0  0  0  0  0  0  0  0  0
   16.3427   -9.4705    8.2280 N   0  0  0  0  0  0  0  0  0  0  0  0
   17.5739   -8.9026    8.2643 C   0  0  0  0  0  0  0  0  0  0  0  0
 18 19  1  0  0  0
 19 20  1  0  0  0
 20 21  2  0  0  0
 21 22  1  0  0  0
 21 23  1  0  0  0
 23 24  2  0  0  0
 24 25  1  0  0  0
 25 17  1  0  0  0
 17  1  1  0  0  0
  1  3  1  0  0  0
  3  4  2  0  0  0
  4  5  1  0  0  0
  5  6  2  0  0  0
  6  7  1  0  0  0
  7  8  2  0  0  0
  5  9  1  0  0  0
  9 10  2  0  0  0
 10 11  1  0  0  0
 11 12  1  0  0  0
 11 13  2  0  0  0
 13 14  1  0  0  0
 13 15  1  0  0  0
 25 26  2  0  0  0
 26 27  1  0  0  0
 27 28  2  0  0  0
 28 19  1  0  0  0
 28 23  1  0  0  0
  8  3  1  0  0  0
 15  9  1  0  0  0
  1  2  1  0  0  0
 15 16  1  0  0  0
M  END
>  <minimizedAffinity>
-8.39731

>  <minimizedRMSD>
1.20107

$$$$
CSC027067451 42924596 CSSS00027067451 MCULE-2313198120 MolPort-020-112-944 PubChem-56812703 Z407299294 ZINC000042924596 ZINC42924596


 24 25  0  0  0  0  0  0  0  0999 V2000
   19.3197   -7.5951    5.0392 C   0  0  0  0  0  0  0  0  0  0  0  0
   19.0161   -7.9286    6.4550 C   0  0  0  0  0  0  0  0  0  0  0  0
   19.9028   -7.5466    7.4682 C   0  0  0  0  0  0  0  0  0  0  0  0
   19.6215   -7.8582    8.8025 C   0  0  0  0  0  0  0  0  0  0  0  0
   18.4516   -8.5524    9.1219 C   0  0  0  0  0  0  0  0  0  0  0  0
   18.1524   -8.8724   10.4427 C   0  0  0  0  0  0  0  0  0  0  0  0
   16.9783   -9.5690   10.7634 C   0  0  0  0  0  0  0  0  0  0  0  0
   16.1077   -9.9367    9.7046 C   0  0  0  0  0  0  0  0  0  0  0  0
   14.8350  -10.6795    9.9352 C   0  0  0  0  0  0  0  0  0  0  0  0
   16.4239   -9.6115    8.4208 N   0  0  0  0  0  0  0  0  0  0  0  0
   17.5588   -8.9373    8.1044 C   0  0  0  0  0  0  0  0  0  0  0  0
   17.8443   -8.6237    6.7725 C   0  0  0  0  0  0  0  0  0  0  0  0
   16.7179   -9.8784   12.1925 C   0  0  0  0  0  0  0  0  0  0  0  0
   15.6433   -9.5235   12.7484 O   0  0  0  0  0  0  0  0  0  0  0  0
   17.7004  -10.5883   12.9521 N   0  0  0  0  0  0  0  0  0  0  0  0
   18.5350  -10.8661   12.5099 H   0  0  0  0  0  0  0  0  0  0  0  0
   17.5064  -10.9132   14.3567 C   0  0  0  0  0  0  0  0  0  0  0  0
   18.7573  -10.5654   15.1486 C   0  0  0  0  0  0  0  0  0  0  0  0
   18.7670   -9.0962   15.5508 C   0  0  0  0  0  0  0  0  0  0  0  0
   17.4087   -8.6429   15.9690 C   0  0  0  0  0  0  0  0  0  0  0  0
   16.8682   -9.0539   17.2199 N   0  0  0  0  0  0  0  0  0  0  0  0
   16.7441   -7.8826   15.2186 O   0  0  0  0  0  0  0  0  0  0  0  0
   17.3866   -9.6488   17.8086 H   0  0  0  0  0  0  0  0  0  0  0  0
   15.9759   -8.7432   17.4965 H   0  0  0  0  0  0  0  0  0  0  0  0
  1  2  1  0  0  0
  2  3  2  0  0  0
  3  4  1  0  0  0
  4  5  2  0  0  0
  5  6  1  0  0  0
  6  7  2  0  0  0
  7 13  1  0  0  0
  7  8  1  0  0  0
 13 14  2  0  0  0
 13 15  1  0  0  0
 15 17  1  0  0  0
 17 18  1  0  0  0
 18 19  1  0  0  0
 19 20  1  0  0  0
 20 21  1  0  0  0
 20 22  2  0  0  0
  8  9  1  0  0  0
  8 10  2  0  0  0
 10 11  1  0  0  0
 11 12  2  0  0  0
 11  5  1  0  0  0
 12  2  1  0  0  0
 15 16  1  0  0  0
 21 23  1  0  0  0
 21 24  1  0  0  0
M  END
>  <minimizedAffinity>
-8.39270

>  <minimizedRMSD>
1.01634

$$$$
CSSS00159624606 MCULE-8075052945 MolPort-027-873-653


 26 28  0  0  0  0  0  0  0  0999 V2000
   17.4886  -10.3626   13.4459 C   0  0  0  0  0  0  0  0  0  0  0  0
   17.4400   -9.9860   12.0066 C   0  0  0  0  0  0  0  0  0  0  0  0
   16.3444  -10.3677   11.2273 C   0  0  0  0  0  0  0  0  0  0  0  0
   16.2969  -10.0075    9.8791 C   0  0  0  0  0  0  0  0  0  0  0  0
   15.2062  -10.3910    9.1065 O   0  0  0  0  0  0  0  0  0  0  0  0
   17.3485   -9.2662    9.3227 C   0  0  0  0  0  0  0  0  0  0  0  0
   18.4367   -8.8969   10.1462 C   0  0  0  0  0  0  0  0  0  0  0  0
   19.4961   -8.1577    9.6127 C   0  0  0  0  0  0  0  0  0  0  0  0
   19.4789   -7.7829    8.2658 C   0  0  0  0  0  0  0  0  0  0  0  0
   18.4034   -8.1457    7.4485 C   0  0  0  0  0  0  0  0  0  0  0  0
   18.3918   -7.7454    6.0174 C   0  0  0  0  0  0  0  0  0  0  0  0
   17.3399   -8.8857    7.9745 C   0  0  0  0  0  0  0  0  0  0  0  0
   18.4527   -9.2622   11.4555 N   0  0  0  0  0  0  0  0  0  0  0  0
   14.5103  -10.8863    9.4916 H   0  0  0  0  0  0  0  0  0  0  0  0
   17.4333   -9.1684   14.2699 N   0  0  0  0  0  0  0  0  0  0  0  0
   17.9996   -8.4285   13.8549 H   0  0  0  0  0  0  0  0  0  0  0  0
   17.9633   -9.5333   15.5717 C   0  0  0  0  0  0  0  0  0  0  0  0
   16.9046   -9.3243   16.6409 C   0  0  0  0  0  0  0  0  0  0  0  0
   15.5748   -8.2399   16.0310 S   0  0  0  0  0  0  0  0  0  0  0  0
   13.8472   -7.2266   17.9462 N   0  0  0  0  0  0  0  0  0  0  0  0
   13.9140   -7.0908   19.2842 C   0  0  0  0  0  0  0  0  0  0  0  0
   12.8310   -6.4863   20.1036 C   0  0  0  0  0  0  0  0  0  0  0  0
   15.0670   -7.5526   19.8000 N   0  0  0  0  0  0  0  0  0  0  0  0
   15.7782   -8.0044   18.7822 N   0  0  0  0  0  0  0  0  0  0  0  0
   15.0353   -7.8032   17.6797 C   0  0  0  0  0  0  0  0  0  0  0  0
   16.6750   -8.4086   18.8230 H   0  0  0  0  0  0  0  0  0  0  0  0
 20 21  1  0  0  0
 21 22  1  0  0  0
 21 23  2  0  0  0
 23 24  1  0  0  0
 24 25  1  0  0  0
 25 19  1  0  0  0
 19 18  1  0  0  0
 18 17  1  0  0  0
 17 15  1  0  0  0
 15  1  1  0  0  0
  1  2  1  0  0  0
  2  3  2  0  0  0
  3  4  1  0  0  0
  4  5  1  0  0  0
  4  6  2  0  0  0
  6  7  1  0  0  0
  7  8  1  0  0  0
  8  9  2  0  0  0
  9 10  1  0  0  0
 10 11  1  0  0  0
 10 12  2  0  0  0
  7 13  2  0  0  0
 25 20  2  0  0  0
 13  2  1  0  0  0
 12  6  1  0  0  0
 24 26  1  0  0  0
 15 16  1  0  0  0
  5 14  1  0  0  0
M  END
>  <minimizedAffinity>
-8.38582

>  <minimizedRMSD>
2.01726

$$$$
CSC026815460 8131910 CSSS00026815460 MCULE-1491191857 MolPort-004-174-755 PubChem-9266650 Z73430513 ZINC000008131910


 29 32  0  0  0  0  0  0  0  0999 V2000
   16.2492   -8.7129   16.9994 C   0  0  0  0  0  0  0  0  0  0  0  0
   16.9297   -9.9313   17.0879 C   0  0  0  0  0  0  0  0  0  0  0  0
   17.4530  -10.5348   15.9409 C   0  0  0  0  0  0  0  0  0  0  0  0
   17.3017   -9.9255   14.6874 C   0  0  0  0  0  0  0  0  0  0  0  0
   16.6197   -8.7044   14.5983 C   0  0  0  0  0  0  0  0  0  0  0  0
   16.0971   -8.1023   15.7460 C   0  0  0  0  0  0  0  0  0  0  0  0
   13.6699   -7.3490   17.3805 O   0  0  0  0  0  0  0  0  0  0  0  0
   14.4622   -7.4659   18.3536 C   0  0  0  0  0  0  0  0  0  0  0  0
   15.7270   -8.1259   18.1990 N   0  0  0  0  0  0  0  0  0  0  0  0
   16.2959   -8.1814   19.0006 H   0  0  0  0  0  0  0  0  0  0  0  0
   14.0863   -6.9200   19.6625 C   0  0  0  0  0  0  0  0  0  0  0  0
   12.7562   -5.9462   19.9712 S   0  0  0  0  0  0  0  0  0  0  0  0
   13.0189   -5.7588   21.6222 C   0  0  0  0  0  0  0  0  0  0  0  0
   14.1720   -6.4734   21.9398 C   0  0  0  0  0  0  0  0  0  0  0  0
   14.7711   -7.1228   20.8505 C   0  0  0  0  0  0  0  0  0  0  0  0
   17.8533  -10.5602   13.4775 C   0  0  0  0  0  0  0  0  0  0  0  0
   17.3522  -10.1980   12.1884 N   0  0  0  0  0  0  0  0  0  0  0  0
   18.7683  -11.4229   13.5779 O   0  0  0  0  0  0  0  0  0  0  0  0
   16.6356   -9.5257   12.1271 H   0  0  0  0  0  0  0  0  0  0  0  0
   17.8675  -10.7909   10.9656 C   0  0  0  0  0  0  0  0  0  0  0  0
   17.3409  -10.0430    9.7892 C   0  0  0  0  0  0  0  0  0  0  0  0
   17.9850   -9.0528    9.1541 N   0  0  0  0  0  0  0  0  0  0  0  0
   17.1156   -8.6512    8.2194 C   0  0  0  0  0  0  0  0  0  0  0  0
   17.4264   -7.6158    7.3428 C   0  0  0  0  0  0  0  0  0  0  0  0
   18.6899   -7.0158    7.4861 C   0  0  0  0  0  0  0  0  0  0  0  0
   19.5872   -7.4560    8.4812 C   0  0  0  0  0  0  0  0  0  0  0  0
   19.2124   -8.5052    9.3346 C   0  0  0  0  0  0  0  0  0  0  0  0
   15.9682   -9.3526    8.2674 N   0  0  0  0  0  0  0  0  0  0  0  0
   16.1096  -10.2265    9.2616 N   0  0  0  0  0  0  0  0  0  0  0  0
  7  8  2  0  0  0
  8 11  1  0  0  0
 11 12  1  0  0  0
 12 13  1  0  0  0
 13 14  2  0  0  0
 14 15  1  0  0  0
  8  9  1  0  0  0
  9  1  1  0  0  0
  1  2  2  0  0  0
  2  3  1  0  0  0
  3  4  2  0  0  0
  4 16  1  0  0  0
 16 17  1  0  0  0
 17 20  1  0  0  0
 20 21  1  0  0  0
 21 22  1  0  0  0
 22 23  1  0  0  0
 23 24  1  0  0  0
 24 25  2  0  0  0
 25 26  1  0  0  0
 26 27  2  0  0  0
 23 28  2  0  0  0
 28 29  1  0  0  0
 16 18  2  0  0  0
  4  5  1  0  0  0
  5  6  2  0  0  0
 15 11  2  0  0  0
  6  1  1  0  0  0
 29 21  2  0  0  0
 27 22  1  0  0  0
  9 10  1  0  0  0
 17 19  1  0  0  0
M  END
>  <minimizedAffinity>
-8.38367

>  <minimizedRMSD>
0.98991

$$$$
CSC026947577 8352324 CSSS00026947577 MCULE-6181435897 MolPort-005-584-888 PubChem-9474181 Z91101386 ZINC000008352324


 29 32  0  0  0  0  0  0  0  0999 V2000
   16.1723   -8.6397   17.0009 C   0  0  0  0  0  0  0  0  0  0  0  0
   16.8501   -9.8586   17.1030 C   0  0  0  0  0  0  0  0  0  0  0  0
   17.3922  -10.4646   15.9660 C   0  0  0  0  0  0  0  0  0  0  0  0
   17.2627   -9.8572   14.7090 C   0  0  0  0  0  0  0  0  0  0  0  0
   16.5835   -8.6356   14.6065 C   0  0  0  0  0  0  0  0  0  0  0  0
   16.0420   -8.0311   15.7441 C   0  0  0  0  0  0  0  0  0  0  0  0
   13.5684   -7.3119   17.3476 O   0  0  0  0  0  0  0  0  0  0  0  0
   14.3542   -7.4085   18.3278 C   0  0  0  0  0  0  0  0  0  0  0  0
   15.6304   -8.0501   18.1905 N   0  0  0  0  0  0  0  0  0  0  0  0
   16.1929   -8.0896   18.9976 H   0  0  0  0  0  0  0  0  0  0  0  0
   13.9550   -6.8559   19.6261 C   0  0  0  0  0  0  0  0  0  0  0  0
   13.1338   -5.8469   19.7679 O   0  0  0  0  0  0  0  0  0  0  0  0
   12.9826   -5.5978   21.0463 C   0  0  0  0  0  0  0  0  0  0  0  0
   13.7470   -6.4934   21.7748 C   0  0  0  0  0  0  0  0  0  0  0  0
   14.3801   -7.3122   20.8559 C   0  0  0  0  0  0  0  0  0  0  0  0
   17.8339  -10.4944   13.5097 C   0  0  0  0  0  0  0  0  0  0  0  0
   17.3131  -10.1796   12.2161 N   0  0  0  0  0  0  0  0  0  0  0  0
   18.7834  -11.3176   13.6233 O   0  0  0  0  0  0  0  0  0  0  0  0
   16.5698   -9.5381   12.1446 H   0  0  0  0  0  0  0  0  0  0  0  0
   17.8464  -10.7769   11.0031 C   0  0  0  0  0  0  0  0  0  0  0  0
   17.3295  -10.0394    9.8159 C   0  0  0  0  0  0  0  0  0  0  0  0
   17.9779   -9.0533    9.1789 N   0  0  0  0  0  0  0  0  0  0  0  0
   17.1165   -8.6606    8.2330 C   0  0  0  0  0  0  0  0  0  0  0  0
   17.4337   -7.6319    7.3509 C   0  0  0  0  0  0  0  0  0  0  0  0
   18.6949   -7.0286    7.5010 C   0  0  0  0  0  0  0  0  0  0  0  0
   19.5837   -7.4594    8.5078 C   0  0  0  0  0  0  0  0  0  0  0  0
   19.2026   -8.5021    9.3662 C   0  0  0  0  0  0  0  0  0  0  0  0
   15.9698   -9.3635    8.2760 N   0  0  0  0  0  0  0  0  0  0  0  0
   16.1035  -10.2291    9.2786 N   0  0  0  0  0  0  0  0  0  0  0  0
  7  8  2  0  0  0
  8 11  1  0  0  0
 11 12  1  0  0  0
 12 13  1  0  0  0
 13 14  2  0  0  0
 14 15  1  0  0  0
  8  9  1  0  0  0
  9  1  1  0  0  0
  1  2  2  0  0  0
  2  3  1  0  0  0
  3  4  2  0  0  0
  4 16  1  0  0  0
 16 17  1  0  0  0
 17 20  1  0  0  0
 20 21  1  0  0  0
 21 22  1  0  0  0
 22 23  1  0  0  0
 23 24  1  0  0  0
 24 25  2  0  0  0
 25 26  1  0  0  0
 26 27  2  0  0  0
 23 28  2  0  0  0
 28 29  1  0  0  0
 16 18  2  0  0  0
  4  5  1  0  0  0
  5  6  2  0  0  0
 15 11  2  0  0  0
  6  1  1  0  0  0
 29 21  2  0  0  0
 27 22  1  0  0  0
  9 10  1  0  0  0
 17 19  1  0  0  0
M  END
>  <minimizedAffinity>
-8.38253

>  <minimizedRMSD>
0.90746

$$$$
CSSS02472663100 Z4295979073


 26 29  0  0  0  0  0  0  0  0999 V2000
   16.3849  -10.1980   11.5620 C   0  0  0  0  0  0  0  0  0  0  0  0
   15.3524   -9.7722   12.1468 O   0  0  0  0  0  0  0  0  0  0  0  0
   17.3791  -10.9144   12.2955 N   0  0  0  0  0  0  0  0  0  0  0  0
   18.1719  -11.2514   11.8189 H   0  0  0  0  0  0  0  0  0  0  0  0
   20.0493   -7.1710    6.8616 C   0  0  0  0  0  0  0  0  0  0  0  0
   19.1576   -7.8912    7.8071 C   0  0  0  0  0  0  0  0  0  0  0  0
   19.4136   -7.8322    9.1921 C   0  0  0  0  0  0  0  0  0  0  0  0
   18.5692   -8.5134   10.0815 C   0  0  0  0  0  0  0  0  0  0  0  0
   17.5283   -9.2095    9.5582 N   0  0  0  0  0  0  0  0  0  0  0  0
   16.5566   -9.9505   10.1211 C   0  0  0  0  0  0  0  0  0  0  0  0
   15.7335  -10.4502    9.1702 N   0  0  0  0  0  0  0  0  0  0  0  0
   16.1793  -10.0282    7.9898 N   0  0  0  0  0  0  0  0  0  0  0  0
   17.2659   -9.2788    8.2466 C   0  0  0  0  0  0  0  0  0  0  0  0
   18.0656   -8.6253    7.3135 C   0  0  0  0  0  0  0  0  0  0  0  0
   17.2587  -11.1621   13.7229 C   0  0  0  0  0  0  0  0  0  0  0  0
   18.2815  -10.3247   14.4806 C   0  0  0  0  0  0  0  0  0  0  0  0
   18.5170  -10.8712   15.8903 C   0  0  0  0  0  0  0  0  0  0  0  0
   18.2803   -9.6533   16.7844 C   0  0  0  0  0  0  0  0  0  0  0  0
   18.7328   -8.5333   15.8846 C   0  0  0  0  0  0  0  0  0  0  0  0
   17.8381   -8.8747   14.7264 C   0  0  0  0  0  0  0  0  0  0  0  0
   16.4630   -8.8811   15.4095 C   0  0  0  0  0  0  0  0  0  0  0  0
   15.9438   -7.5832   15.4509 O   0  0  0  0  0  0  0  0  0  0  0  0
   16.7698   -9.4252   16.8190 C   0  0  0  0  0  0  0  0  0  0  0  0
   16.4495   -8.4993   17.8170 O   0  0  0  0  0  0  0  0  0  0  0  0
   16.5716   -6.9981   15.9032 H   0  0  0  0  0  0  0  0  0  0  0  0
   16.9389   -7.6760   17.6634 H   0  0  0  0  0  0  0  0  0  0  0  0
  5  6  1  0  0  0
  6  7  1  0  0  0
  7  8  2  0  0  0
  8  9  1  0  0  0
  9 10  1  0  0  0
 10 11  2  0  0  0
 11 12  1  0  0  0
 12 13  2  0  0  0
 13 14  1  0  0  0
 10  1  1  0  0  0
  1  2  2  0  0  0
  1  3  1  0  0  0
  3 15  1  0  0  0
 16 15  1  0  0  0
 16 17  1  0  0  0
 18 17  1  0  0  0
 18 19  1  0  0  0
 20 19  1  0  0  0
 20 21  1  0  0  0
 21 22  1  0  0  0
 21 23  1  0  0  0
 23 24  1  0  0  0
 14  6  2  0  0  0
 20 16  1  0  0  0
 13  9  1  0  0  0
 23 18  1  0  0  0
  3  4  1  0  0  0
 22 25  1  0  0  0
 24 26  1  0  0  0
M  END
>  <minimizedAffinity>
-8.36673

>  <minimizedRMSD>
0.79216

$$$$
CSC026638933 9366051 CSSS00026638933 MCULE-7923543433 MolPort-005-789-093 PubChem-17548039 Z52656342 ZINC000009366051 ZINC09366051


 31 34  0  0  0  0  0  0  0  0999 V2000
   17.7187  -10.5629   14.2285 C   0  0  0  0  0  0  0  0  0  0  0  0
   18.1376  -11.5791   15.0925 C   0  0  0  0  0  0  0  0  0  0  0  0
   17.7753  -11.5516   16.4416 C   0  0  0  0  0  0  0  0  0  0  0  0
   16.9907  -10.5056   16.9341 C   0  0  0  0  0  0  0  0  0  0  0  0
   16.5620   -9.4790   16.0813 C   0  0  0  0  0  0  0  0  0  0  0  0
   16.9302   -9.5140   14.7288 C   0  0  0  0  0  0  0  0  0  0  0  0
   15.7361   -8.3753   16.6007 C   0  0  0  0  0  0  0  0  0  0  0  0
   15.5062   -7.3662   15.8794 O   0  0  0  0  0  0  0  0  0  0  0  0
   15.1903   -8.4497   17.9221 N   0  0  0  0  0  0  0  0  0  0  0  0
   15.3451   -9.2663   18.4498 H   0  0  0  0  0  0  0  0  0  0  0  0
   14.4159   -7.3707   18.5205 C   0  0  0  0  0  0  0  0  0  0  0  0
   14.6613   -7.3073   19.9900 C   0  0  0  0  0  0  0  0  0  0  0  0
   15.9071   -6.8926   20.4738 C   0  0  0  0  0  0  0  0  0  0  0  0
   16.1433   -6.8459   21.8511 C   0  0  0  0  0  0  0  0  0  0  0  0
   15.1349   -7.2157   22.7465 C   0  0  0  0  0  0  0  0  0  0  0  0
   13.8903   -7.6331   22.2647 C   0  0  0  0  0  0  0  0  0  0  0  0
   13.6538   -7.6800   20.8873 C   0  0  0  0  0  0  0  0  0  0  0  0
   18.0974  -10.6181   12.8849 O   0  0  0  0  0  0  0  0  0  0  0  0
   18.8886   -9.6104   12.2687 C   0  0  0  0  0  0  0  0  0  0  0  0
   20.1140   -6.9137    5.5606 C   0  0  0  0  0  0  0  0  0  0  0  0
   19.2340   -7.6443    6.5092 C   0  0  0  0  0  0  0  0  0  0  0  0
   19.6420   -7.8449    7.8266 C   0  0  0  0  0  0  0  0  0  0  0  0
   18.8046   -8.5331    8.7075 C   0  0  0  0  0  0  0  0  0  0  0  0
   19.2040   -8.7277    9.9909 N   0  0  0  0  0  0  0  0  0  0  0  0
   18.4160   -9.3865   10.8771 C   0  0  0  0  0  0  0  0  0  0  0  0
   17.1833   -9.8889   10.4714 C   0  0  0  0  0  0  0  0  0  0  0  0
   16.7762   -9.6876    9.1534 C   0  0  0  0  0  0  0  0  0  0  0  0
   15.6571  -10.1386    8.7847 O   0  0  0  0  0  0  0  0  0  0  0  0
   17.5854   -9.0113    8.2797 N   0  0  0  0  0  0  0  0  0  0  0  0
   17.1854   -8.8146    6.9879 C   0  0  0  0  0  0  0  0  0  0  0  0
   17.9994   -8.1301    6.0836 C   0  0  0  0  0  0  0  0  0  0  0  0
 20 21  1  0  0  0
 21 22  2  0  0  0
 22 23  1  0  0  0
 23 24  2  0  0  0
 24 25  1  0  0  0
 25 19  1  0  0  0
 25 26  2  0  0  0
 19 18  1  0  0  0
 18  1  1  0  0  0
  1  2  2  0  0  0
  2  3  1  0  0  0
  3  4  2  0  0  0
  4  5  1  0  0  0
  5  6  2  0  0  0
  5  7  1  0  0  0
  6  1  1  0  0  0
  7  8  2  0  0  0
  7  9  1  0  0  0
  9 11  1  0  0  0
 11 12  1  0  0  0
 12 13  2  0  0  0
 13 14  1  0  0  0
 14 15  2  0  0  0
 15 16  1  0  0  0
 16 17  2  0  0  0
 17 12  1  0  0  0
 26 27  1  0  0  0
 27 28  2  0  0  0
 27 29  1  0  0  0
 29 30  1  0  0  0
 29 23  1  0  0  0
 30 31  2  0  0  0
 31 21  1  0  0  0
  9 10  1  0  0  0
M  END
>  <minimizedAffinity>
-8.35222

>  <minimizedRMSD>
1.86648

$$$$
CSC027449454 97049051 CSSS00027449454 MCULE-8363131125 MolPort-029-931-336 PubChem-75518061 Z1621753259 ZINC000097049051 ZINC97049051


 23 24  0  0  0  0  0  0  0  0999 V2000
   19.1466   -7.8001    4.5413 C   0  0  0  0  0  0  0  0  0  0  0  0
   18.9389   -8.0482    5.9916 C   0  0  0  0  0  0  0  0  0  0  0  0
   19.8727   -7.5772    6.9214 C   0  0  0  0  0  0  0  0  0  0  0  0
   19.6818   -7.8081    8.2877 C   0  0  0  0  0  0  0  0  0  0  0  0
   18.5552   -8.5111    8.7226 C   0  0  0  0  0  0  0  0  0  0  0  0
   18.3458   -8.7518   10.0773 C   0  0  0  0  0  0  0  0  0  0  0  0
   17.2156   -9.4568   10.5123 C   0  0  0  0  0  0  0  0  0  0  0  0
   16.2942   -9.9166    9.5363 C   0  0  0  0  0  0  0  0  0  0  0  0
   15.0614  -10.6763    9.8938 C   0  0  0  0  0  0  0  0  0  0  0  0
   16.5222   -9.6680    8.2172 N   0  0  0  0  0  0  0  0  0  0  0  0
   17.6149   -8.9857    7.7888 C   0  0  0  0  0  0  0  0  0  0  0  0
   17.8102   -8.7523    6.4245 C   0  0  0  0  0  0  0  0  0  0  0  0
   17.0556   -9.6761   11.9705 C   0  0  0  0  0  0  0  0  0  0  0  0
   15.9226   -9.5980   12.5196 O   0  0  0  0  0  0  0  0  0  0  0  0
   18.1816   -9.9716   12.7435 O   0  0  0  0  0  0  0  0  0  0  0  0
   18.3205  -11.2077   13.4302 C   0  0  0  0  0  0  0  0  0  0  0  0
   18.0892  -11.0026   14.9187 C   0  0  0  0  0  0  0  0  0  0  0  0
   18.5360   -9.6148   15.3590 C   0  0  0  0  0  0  0  0  0  0  0  0
   17.3854   -8.8157   15.8721 C   0  0  0  0  0  0  0  0  0  0  0  0
   16.9166   -9.0046   17.2027 N   0  0  0  0  0  0  0  0  0  0  0  0
   16.8366   -7.9610   15.1297 O   0  0  0  0  0  0  0  0  0  0  0  0
   17.3447   -9.6729   17.7852 H   0  0  0  0  0  0  0  0  0  0  0  0
   16.1642   -8.4669   17.5405 H   0  0  0  0  0  0  0  0  0  0  0  0
  1  2  1  0  0  0
  2  3  2  0  0  0
  3  4  1  0  0  0
  4  5  2  0  0  0
  5  6  1  0  0  0
  6  7  2  0  0  0
  7 13  1  0  0  0
  7  8  1  0  0  0
 13 14  2  0  0  0
 13 15  1  0  0  0
 15 16  1  0  0  0
 16 17  1  0  0  0
 17 18  1  0  0  0
 18 19  1  0  0  0
 19 20  1  0  0  0
 19 21  2  0  0  0
  8  9  1  0  0  0
  8 10  2  0  0  0
 10 11  1  0  0  0
 11 12  2  0  0  0
 11  5  1  0  0  0
 12  2  1  0  0  0
 20 22  1  0  0  0
 20 23  1  0  0  0
M  END
>  <minimizedAffinity>
-8.32799

>  <minimizedRMSD>
1.29079

$$$$
CSSS00736390890 PubChem-166297326 Z4034625157


 30 31  0  0  0  0  0  0  0  0999 V2000
   18.3781  -12.5936   13.9557 C   0  0  0  0  0  0  0  0  0  0  0  0
   18.3353  -11.0874   13.7515 C   0  0  0  0  0  0  0  0  0  0  0  0
   18.0887  -10.7661   12.3489 N   0  0  0  0  0  0  0  0  0  0  0  0
   17.2167   -9.7241   11.8905 C   0  0  0  0  0  0  0  0  0  0  0  0
   16.5947   -9.0113   12.7232 O   0  0  0  0  0  0  0  0  0  0  0  0
   18.5549  -11.3038   11.6685 H   0  0  0  0  0  0  0  0  0  0  0  0
   17.0492   -9.4890   10.4405 C   0  0  0  0  0  0  0  0  0  0  0  0
   17.9329   -8.8431    9.5990 C   0  0  0  0  0  0  0  0  0  0  0  0
   19.1750   -8.2466    9.8115 C   0  0  0  0  0  0  0  0  0  0  0  0
   19.8131   -7.6681    8.6989 C   0  0  0  0  0  0  0  0  0  0  0  0
   19.2049   -7.6995    7.4239 C   0  0  0  0  0  0  0  0  0  0  0  0
   17.9497   -8.3100    7.2428 C   0  0  0  0  0  0  0  0  0  0  0  0
   17.3436   -8.8738    8.3622 C   0  0  0  0  0  0  0  0  0  0  0  0
   16.1567   -9.5022    8.4196 N   0  0  0  0  0  0  0  0  0  0  0  0
   15.9867   -9.8719    9.6844 N   0  0  0  0  0  0  0  0  0  0  0  0
   14.8049  -10.5862   10.1390 C   0  0  0  0  0  0  0  0  0  0  0  0
   17.2833  -10.4409   14.6433 C   0  0  0  0  0  0  0  0  0  0  0  0
   17.9121   -9.8255   15.8027 N   0  0  0  0  0  0  0  0  0  0  0  0
   19.2928   -9.5616   15.4385 C   0  0  0  0  0  0  0  0  0  0  0  0
   17.2796   -8.5301   15.9954 C   0  0  0  0  0  0  0  0  0  0  0  0
   16.0355   -8.6802   16.8033 C   0  0  0  0  0  0  0  0  0  0  0  0
   15.1723   -9.5322   16.4626 O   0  0  0  0  0  0  0  0  0  0  0  0
   15.8321   -7.8574   17.9542 N   0  0  0  0  0  0  0  0  0  0  0  0
   16.5328   -7.2121   18.2029 H   0  0  0  0  0  0  0  0  0  0  0  0
   14.6311   -7.9343   18.7742 C   0  0  0  0  0  0  0  0  0  0  0  0
   13.4779   -7.1695   18.1230 C   0  0  0  0  0  0  0  0  0  0  0  0
   12.1987   -7.1340   18.9642 C   0  0  0  0  0  0  0  0  0  0  0  0
   11.1136   -7.8755   18.2125 C   0  0  0  0  0  0  0  0  0  0  0  0
   12.4110   -7.8204   20.3020 C   0  0  0  0  0  0  0  0  0  0  0  0
   11.7312   -5.7082   19.1933 C   0  0  0  0  0  0  0  0  0  0  0  0
  1  2  1  0  0  0
  2 17  1  0  0  0
 17 18  1  0  0  0
 18 19  1  0  0  0
 18 20  1  0  0  0
 20 21  1  0  0  0
 21 22  2  0  0  0
 21 23  1  0  0  0
 23 25  1  0  0  0
 25 26  1  0  0  0
 26 27  1  0  0  0
 27 28  1  0  0  0
 27 29  1  0  0  0
 27 30  1  0  0  0
  2  3  1  0  0  0
  3  4  1  0  0  0
  4  5  2  0  0  0
  4  7  1  0  0  0
  7  8  2  0  0  0
  8  9  1  0  0  0
  9 10  2  0  0  0
 10 11  1  0  0  0
 11 12  2  0  0  0
 12 13  1  0  0  0
 13 14  2  0  0  0
 14 15  1  0  0  0
 15 16  1  0  0  0
 15  7  1  0  0  0
 13  8  1  0  0  0
 23 24  1  0  0  0
  3  6  1  0  0  0
M  END
>  <minimizedAffinity>
-8.29954

>  <minimizedRMSD>
2.51443

$$$$
CSC028154101 8352384 CSSS00028154101 MCULE-8304130710 MolPort-009-876-393 PubChem-9474241 Z95891135 ZINC000008352384


 29 31  0  0  0  0  0  0  0  0999 V2000
   16.2004   -8.6865   16.9588 C   0  0  0  0  0  0  0  0  0  0  0  0
   16.8411   -9.9280   17.0167 C   0  0  0  0  0  0  0  0  0  0  0  0
   17.3372  -10.5237   15.8536 C   0  0  0  0  0  0  0  0  0  0  0  0
   17.1978   -9.8835   14.6141 C   0  0  0  0  0  0  0  0  0  0  0  0
   16.5560   -8.6391   14.5557 C   0  0  0  0  0  0  0  0  0  0  0  0
   16.0607   -8.0447   15.7193 C   0  0  0  0  0  0  0  0  0  0  0  0
   14.4825   -7.3793   18.3435 C   0  0  0  0  0  0  0  0  0  0  0  0
   15.7044   -8.1090   18.1744 N   0  0  0  0  0  0  0  0  0  0  0  0
   13.7107   -7.1775   17.3663 O   0  0  0  0  0  0  0  0  0  0  0  0
   16.2621   -8.2261   18.9772 H   0  0  0  0  0  0  0  0  0  0  0  0
   14.1601   -6.8926   19.6176 O   0  0  0  0  0  0  0  0  0  0  0  0
   12.1375   -8.2303   19.7136 C   0  0  0  0  0  0  0  0  0  0  0  0
   12.8724   -7.0048   20.2289 C   0  0  0  0  0  0  0  0  0  0  0  0
   13.0571   -7.1510   21.7244 C   0  0  0  0  0  0  0  0  0  0  0  0
   12.0427   -5.7595   19.9672 C   0  0  0  0  0  0  0  0  0  0  0  0
   17.7190  -10.5110   13.3873 C   0  0  0  0  0  0  0  0  0  0  0  0
   17.9715   -9.7136   12.2278 N   0  0  0  0  0  0  0  0  0  0  0  0
   17.9414  -11.7526   13.3584 O   0  0  0  0  0  0  0  0  0  0  0  0
   17.7850   -8.7476   12.2635 H   0  0  0  0  0  0  0  0  0  0  0  0
   18.4949  -10.2845   10.9980 C   0  0  0  0  0  0  0  0  0  0  0  0
   17.6911   -9.7983    9.8412 C   0  0  0  0  0  0  0  0  0  0  0  0
   18.1031   -8.8918    8.9425 N   0  0  0  0  0  0  0  0  0  0  0  0
   17.0445   -8.7309    8.1396 C   0  0  0  0  0  0  0  0  0  0  0  0
   17.0827   -7.8486    7.0640 C   0  0  0  0  0  0  0  0  0  0  0  0
   18.2793   -7.1382    6.8636 C   0  0  0  0  0  0  0  0  0  0  0  0
   19.3798   -7.3238    7.7260 C   0  0  0  0  0  0  0  0  0  0  0  0
   19.2764   -8.2284    8.7939 C   0  0  0  0  0  0  0  0  0  0  0  0
   16.0060   -9.4978    8.5195 N   0  0  0  0  0  0  0  0  0  0  0  0
   16.4136  -10.1666    9.5959 N   0  0  0  0  0  0  0  0  0  0  0  0
 12 13  1  0  0  0
 13 11  1  0  0  0
 11  7  1  0  0  0
  7  8  1  0  0  0
  8  1  1  0  0  0
  1  2  2  0  0  0
  2  3  1  0  0  0
  3  4  2  0  0  0
  4 16  1  0  0  0
 16 17  1  0  0  0
 17 20  1  0  0  0
 20 21  1  0  0  0
 21 22  1  0  0  0
 22 23  1  0  0  0
 23 24  1  0  0  0
 24 25  2  0  0  0
 25 26  1  0  0  0
 26 27  2  0  0  0
 23 28  2  0  0  0
 28 29  1  0  0  0
 16 18  2  0  0  0
  4  5  1  0  0  0
  5  6  2  0  0  0
  7  9  2  0  0  0
 13 14  1  0  0  0
 13 15  1  0  0  0
  6  1  1  0  0  0
 29 21  2  0  0  0
 27 22  1  0  0  0
  8 10  1  0  0  0
 17 19  1  0  0  0
M  END
>  <minimizedAffinity>
-8.29500

>  <minimizedRMSD>
1.40067

$$$$
5302491 CSSS00160788546 LN00694382 MCULE-9491052114 MolPort-000-489-574 PubChem-4907219 ZINC000005302491 ZINC05302491


 26 28  0  0  0  0  0  0  0  0999 V2000
   17.8565  -10.6420   13.8771 C   0  0  0  0  0  0  0  0  0  0  0  0
   17.0252   -9.4816   14.4035 C   0  0  0  0  0  0  0  0  0  0  0  0
   17.3359   -9.2269   15.8680 C   0  0  0  0  0  0  0  0  0  0  0  0
   15.5955   -7.6183   15.7338 O   0  0  0  0  0  0  0  0  0  0  0  0
   16.2670   -8.3874   16.4715 C   0  0  0  0  0  0  0  0  0  0  0  0
   15.9997   -8.4933   17.8759 N   0  0  0  0  0  0  0  0  0  0  0  0
   16.5568   -9.1252   18.3853 H   0  0  0  0  0  0  0  0  0  0  0  0
   15.0039   -7.7728   18.6145 C   0  0  0  0  0  0  0  0  0  0  0  0
   13.8118   -7.3300   18.0268 C   0  0  0  0  0  0  0  0  0  0  0  0
   12.8725   -6.6318   18.7870 C   0  0  0  0  0  0  0  0  0  0  0  0
   13.1378   -6.3829   20.1347 C   0  0  0  0  0  0  0  0  0  0  0  0
   14.2993   -6.8184   20.6925 N   0  0  0  0  0  0  0  0  0  0  0  0
   15.2264   -7.5004   19.9671 C   0  0  0  0  0  0  0  0  0  0  0  0
   18.0430  -10.5469   12.3706 C   0  0  0  0  0  0  0  0  0  0  0  0
   16.9096   -9.7477   11.7443 C   0  0  0  0  0  0  0  0  0  0  0  0
   17.1740   -9.5127   10.3297 N   0  0  0  0  0  0  0  0  0  0  0  0
   16.3287  -10.0738    9.4227 C   0  0  0  0  0  0  0  0  0  0  0  0
   16.5136   -9.8791    8.0914 N   0  0  0  0  0  0  0  0  0  0  0  0
   17.5392   -9.1187    7.6346 C   0  0  0  0  0  0  0  0  0  0  0  0
   17.7149   -8.9304    6.2606 C   0  0  0  0  0  0  0  0  0  0  0  0
   18.7708   -8.1427    5.7921 C   0  0  0  0  0  0  0  0  0  0  0  0
   19.6527   -7.5407    6.6953 C   0  0  0  0  0  0  0  0  0  0  0  0
   19.4822   -7.7247    8.0707 C   0  0  0  0  0  0  0  0  0  0  0  0
   18.4260   -8.5145    8.5479 C   0  0  0  0  0  0  0  0  0  0  0  0
   18.2161   -8.7258    9.9181 C   0  0  0  0  0  0  0  0  0  0  0  0
   18.9833   -8.1889   10.7661 O   0  0  0  0  0  0  0  0  0  0  0  0
  4  5  2  0  0  0
  5  3  1  0  0  0
  5  6  1  0  0  0
  3  2  1  0  0  0
  2  1  1  0  0  0
  1 14  1  0  0  0
 14 15  1  0  0  0
 15 16  1  0  0  0
 16 17  1  0  0  0
 17 18  2  0  0  0
 18 19  1  0  0  0
 19 20  2  0  0  0
 20 21  1  0  0  0
 21 22  2  0  0  0
 22 23  1  0  0  0
 23 24  2  0  0  0
 24 25  1  0  0  0
 24 19  1  0  0  0
 25 26  2  0  0  0
 25 16  1  0  0  0
  6  8  1  0  0  0
  8  9  2  0  0  0
  9 10  1  0  0  0
 10 11  2  0  0  0
 11 12  1  0  0  0
 12 13  2  0  0  0
 13  8  1  0  0  0
  6  7  1  0  0  0
M  END
>  <minimizedAffinity>
-8.27814

>  <minimizedRMSD>
1.36123

$$$$
CSC026686442 18375985 CSSS00026686442 MCULE-2475729542 MolPort-009-376-669 PubChem-45849627 Z98943529 ZINC000018375985


 30 33  0  0  0  0  0  0  0  0999 V2000
   15.8119   -8.4106   17.2091 C   0  0  0  0  0  0  0  0  0  0  0  0
   15.6563   -8.2596   15.8233 C   0  0  0  0  0  0  0  0  0  0  0  0
   16.2451   -9.1708   14.9424 C   0  0  0  0  0  0  0  0  0  0  0  0
   16.9972  -10.2450   15.4348 C   0  0  0  0  0  0  0  0  0  0  0  0
   17.1525  -10.3957   16.8197 C   0  0  0  0  0  0  0  0  0  0  0  0
   16.5630   -9.4835   17.6996 C   0  0  0  0  0  0  0  0  0  0  0  0
   12.9590   -8.0240   17.8221 O   0  0  0  0  0  0  0  0  0  0  0  0
   13.8248   -7.3313   18.4206 C   0  0  0  0  0  0  0  0  0  0  0  0
   15.2230   -7.4964   18.1439 N   0  0  0  0  0  0  0  0  0  0  0  0
   15.8430   -6.9218   18.6487 H   0  0  0  0  0  0  0  0  0  0  0  0
   13.3927   -6.3430   19.4142 C   0  0  0  0  0  0  0  0  0  0  0  0
   12.7662   -5.2336   19.1149 O   0  0  0  0  0  0  0  0  0  0  0  0
   12.5211   -4.5721   20.2200 C   0  0  0  0  0  0  0  0  0  0  0  0
   13.0149   -5.2904   21.2958 C   0  0  0  0  0  0  0  0  0  0  0  0
   13.5818   -6.4411   20.7765 C   0  0  0  0  0  0  0  0  0  0  0  0
   17.6154  -11.2020   14.5030 C   0  0  0  0  0  0  0  0  0  0  0  0
   18.1090  -12.2792   14.9382 O   0  0  0  0  0  0  0  0  0  0  0  0
   17.6526  -10.9119   13.1374 O   0  0  0  0  0  0  0  0  0  0  0  0
   18.5491   -9.9521   12.5974 C   0  0  0  0  0  0  0  0  0  0  0  0
   18.1374   -9.6118   11.2099 C   0  0  0  0  0  0  0  0  0  0  0  0
   18.9126   -8.7952   10.4533 N   0  0  0  0  0  0  0  0  0  0  0  0
   18.5440   -8.4487    9.1929 C   0  0  0  0  0  0  0  0  0  0  0  0
   17.3636   -8.9192    8.6608 N   0  0  0  0  0  0  0  0  0  0  0  0
   16.9944   -8.5690    7.3924 C   0  0  0  0  0  0  0  0  0  0  0  0
   17.8009   -7.7334    6.6178 C   0  0  0  0  0  0  0  0  0  0  0  0
   18.9959   -7.2529    7.1497 C   0  0  0  0  0  0  0  0  0  0  0  0
   19.3722   -7.6101    8.4432 C   0  0  0  0  0  0  0  0  0  0  0  0
   16.5594   -9.7374    9.4086 C   0  0  0  0  0  0  0  0  0  0  0  0
   15.4718  -10.1780    8.9450 O   0  0  0  0  0  0  0  0  0  0  0  0
   16.9349  -10.0950   10.7025 C   0  0  0  0  0  0  0  0  0  0  0  0
  7  8  2  0  0  0
  8 11  1  0  0  0
 11 12  1  0  0  0
 12 13  1  0  0  0
 13 14  2  0  0  0
 14 15  1  0  0  0
  8  9  1  0  0  0
  9  1  1  0  0  0
  1  2  2  0  0  0
  2  3  1  0  0  0
  3  4  2  0  0  0
  4 16  1  0  0  0
 16 18  1  0  0  0
 18 19  1  0  0  0
 19 20  1  0  0  0
 20 21  1  0  0  0
 21 22  2  0  0  0
 22 23  1  0  0  0
 23 24  1  0  0  0
 24 25  2  0  0  0
 25 26  1  0  0  0
 26 27  2  0  0  0
 23 28  1  0  0  0
 28 29  2  0  0  0
 28 30  1  0  0  0
 16 17  2  0  0  0
  4  5  1  0  0  0
  5  6  2  0  0  0
 15 11  2  0  0  0
  6  1  1  0  0  0
 30 20  2  0  0  0
 27 22  1  0  0  0
  9 10  1  0  0  0
M  END
>  <minimizedAffinity>
-8.27156

>  <minimizedRMSD>
1.43816

$$$$
CSSS00159623833 MCULE-1311366858 MolPort-027-867-814


 24 25  0  0  0  0  0  0  0  0999 V2000
   17.3876   -9.8654   11.9952 C   0  0  0  0  0  0  0  0  0  0  0  0
   16.3141  -10.2983   11.2126 C   0  0  0  0  0  0  0  0  0  0  0  0
   16.2927  -10.0065    9.8474 C   0  0  0  0  0  0  0  0  0  0  0  0
   15.2218  -10.4375    9.0721 O   0  0  0  0  0  0  0  0  0  0  0  0
   17.3495   -9.2841    9.2767 C   0  0  0  0  0  0  0  0  0  0  0  0
   17.3662   -8.9705    7.9115 C   0  0  0  0  0  0  0  0  0  0  0  0
   18.4351   -8.2492    7.3712 C   0  0  0  0  0  0  0  0  0  0  0  0
   18.4491   -7.9183    5.9227 C   0  0  0  0  0  0  0  0  0  0  0  0
   19.4911   -7.8387    8.1912 C   0  0  0  0  0  0  0  0  0  0  0  0
   19.4834   -8.1471    9.5548 C   0  0  0  0  0  0  0  0  0  0  0  0
   18.4183   -8.8675   10.1026 C   0  0  0  0  0  0  0  0  0  0  0  0
   18.4097   -9.1678   11.4284 N   0  0  0  0  0  0  0  0  0  0  0  0
   14.5219  -10.9197    9.4667 H   0  0  0  0  0  0  0  0  0  0  0  0
   17.4150  -10.1819   13.4493 C   0  0  0  0  0  0  0  0  0  0  0  0
   16.9310   -9.0443   14.2111 N   0  0  0  0  0  0  0  0  0  0  0  0
   17.1508   -8.1758   13.7236 H   0  0  0  0  0  0  0  0  0  0  0  0
   17.6081   -9.0823   15.4958 C   0  0  0  0  0  0  0  0  0  0  0  0
   16.5900   -9.1811   16.6166 C   0  0  0  0  0  0  0  0  0  0  0  0
   15.4562   -8.1980   16.3859 C   0  0  0  0  0  0  0  0  0  0  0  0
   15.2077   -7.5070   20.1859 C   0  0  0  0  0  0  0  0  0  0  0  0
   15.6839   -7.9386   18.8827 N   0  0  0  0  0  0  0  0  0  0  0  0
   14.9272   -7.7208   17.6917 C   0  0  0  0  0  0  0  0  0  0  0  0
   13.8036   -7.1523   17.7398 O   0  0  0  0  0  0  0  0  0  0  0  0
   16.5540   -8.3948   18.8191 H   0  0  0  0  0  0  0  0  0  0  0  0
 20 21  1  0  0  0
 21 22  1  0  0  0
 22 23  2  0  0  0
 22 19  1  0  0  0
 19 18  1  0  0  0
 18 17  1  0  0  0
 17 15  1  0  0  0
 15 14  1  0  0  0
 14  1  1  0  0  0
  1  2  2  0  0  0
  2  3  1  0  0  0
  3  4  1  0  0  0
  3  5  2  0  0  0
  5  6  1  0  0  0
  6  7  2  0  0  0
  7  8  1  0  0  0
  7  9  1  0  0  0
  9 10  2  0  0  0
 10 11  1  0  0  0
 11 12  2  0  0  0
 11  5  1  0  0  0
 12  1  1  0  0  0
 21 24  1  0  0  0
 15 16  1  0  0  0
  4 13  1  0  0  0
M  END
>  <minimizedAffinity>
-8.24511

>  <minimizedRMSD>
1.52590

$$$$
CSC026790034 69811158 CSSS00026790034 MCULE-7173612426 MolPort-020-155-279 PubChem-53607401 Z1103032437 ZINC000069811158 ZINC69811158


 26 29  0  0  0  0  0  0  0  0999 V2000
   16.5504   -9.3604   16.3611 C   0  0  0  0  0  0  0  0  0  0  0  0
   17.2716  -10.3271   17.0754 C   0  0  0  0  0  0  0  0  0  0  0  0
   17.9993  -11.3091   16.3982 C   0  0  0  0  0  0  0  0  0  0  0  0
   18.0113  -11.3321   15.0014 C   0  0  0  0  0  0  0  0  0  0  0  0
   17.2973  -10.3753   14.2736 C   0  0  0  0  0  0  0  0  0  0  0  0
   16.5677   -9.3906   14.9592 C   0  0  0  0  0  0  0  0  0  0  0  0
   15.1050   -7.4817   16.4263 O   0  0  0  0  0  0  0  0  0  0  0  0
   15.7829   -8.3252   17.0752 C   0  0  0  0  0  0  0  0  0  0  0  0
   15.8046   -8.2758   18.5045 N   0  0  0  0  0  0  0  0  0  0  0  0
   16.3408   -8.9394   18.9959 H   0  0  0  0  0  0  0  0  0  0  0  0
   15.0609   -7.2779   19.2547 C   0  0  0  0  0  0  0  0  0  0  0  0
   14.8910   -7.7541   20.6819 C   0  0  0  0  0  0  0  0  0  0  0  0
   13.7417   -7.8714   19.7041 C   0  0  0  0  0  0  0  0  0  0  0  0
   17.3289  -10.4246   12.8777 O   0  0  0  0  0  0  0  0  0  0  0  0
   16.2579   -9.9558   12.0690 C   0  0  0  0  0  0  0  0  0  0  0  0
   16.7653   -9.6269   10.7107 C   0  0  0  0  0  0  0  0  0  0  0  0
   16.2055  -10.2369    9.5922 C   0  0  0  0  0  0  0  0  0  0  0  0
   16.7181   -9.9305    8.3325 C   0  0  0  0  0  0  0  0  0  0  0  0
   16.2091  -10.4790    7.3167 O   0  0  0  0  0  0  0  0  0  0  0  0
   17.7582   -9.0483    8.2097 N   0  0  0  0  0  0  0  0  0  0  0  0
   18.2599   -8.7486    6.9743 C   0  0  0  0  0  0  0  0  0  0  0  0
   19.3218   -7.8538    6.8315 C   0  0  0  0  0  0  0  0  0  0  0  0
   19.8735   -7.2622    7.9661 C   0  0  0  0  0  0  0  0  0  0  0  0
   19.3618   -7.5680    9.2259 C   0  0  0  0  0  0  0  0  0  0  0  0
   18.2980   -8.4667    9.3358 C   0  0  0  0  0  0  0  0  0  0  0  0
   17.8011   -8.7632   10.5644 N   0  0  0  0  0  0  0  0  0  0  0  0
  7  8  2  0  0  0
  8  9  1  0  0  0
  8  1  1  0  0  0
  9 11  1  0  0  0
 11 12  1  0  0  0
 12 13  1  0  0  0
 13 11  1  0  0  0
  1  2  2  0  0  0
  2  3  1  0  0  0
  3  4  2  0  0  0
  4  5  1  0  0  0
  5 14  1  0  0  0
  5  6  2  0  0  0
 14 15  1  0  0  0
 15 16  1  0  0  0
 16 17  2  0  0  0
 17 18  1  0  0  0
 18 19  2  0  0  0
 18 20  1  0  0  0
 20 21  1  0  0  0
 21 22  2  0  0  0
 22 23  1  0  0  0
 23 24  2  0  0  0
 24 25  1  0  0  0
 25 26  2  0  0  0
 25 20  1  0  0  0
 26 16  1  0  0  0
  6  1  1  0  0  0
  9 10  1  0  0  0
M  END
>  <minimizedAffinity>
-8.24284

>  <minimizedRMSD>
0.66955

$$$$
CSSS03636344242 PubChem-166428768 Z5108695083


 27 29  0  0  0  0  0  0  0  0999 V2000
   16.0005   -9.7030   12.1856 O   0  0  0  0  0  0  0  0  0  0  0  0
   16.9133  -10.0138   13.2011 C   0  0  0  0  0  0  0  0  0  0  0  0
   16.9074   -9.2827   14.4158 C   0  0  0  0  0  0  0  0  0  0  0  0
   17.8446   -9.6187   15.4303 C   0  0  0  0  0  0  0  0  0  0  0  0
   18.7526  -10.6609   15.2124 C   0  0  0  0  0  0  0  0  0  0  0  0
   18.7525  -11.3738   14.0176 C   0  0  0  0  0  0  0  0  0  0  0  0
   17.8391  -11.0521   13.0194 C   0  0  0  0  0  0  0  0  0  0  0  0
   17.9461   -8.8851   16.8306 B   0  0  0  0  0  0  0  0  0  0  0  0
   19.1969   -8.2365   17.2188 O   0  0  0  0  0  0  0  0  0  0  0  0
   16.8137   -8.8389   17.7523 O   0  0  0  0  0  0  0  0  0  0  0  0
   19.8523   -8.3491   16.5126 H   0  0  0  0  0  0  0  0  0  0  0  0
   16.0596   -9.3077   17.3618 H   0  0  0  0  0  0  0  0  0  0  0  0
   15.9418   -8.1818   14.6350 C   0  0  0  0  0  0  0  0  0  0  0  0
   16.0073   -7.4011   15.6210 O   0  0  0  0  0  0  0  0  0  0  0  0
   15.9065  -10.4403   10.9734 C   0  0  0  0  0  0  0  0  0  0  0  0
   18.9632   -7.8176    7.1600 N   0  0  0  0  0  0  0  0  0  0  0  0
   19.9084   -7.2784    7.9265 N   0  0  0  0  0  0  0  0  0  0  0  0
   19.6882   -7.6266    9.2234 C   0  0  0  0  0  0  0  0  0  0  0  0
   18.5532   -8.4134    9.2429 C   0  0  0  0  0  0  0  0  0  0  0  0
   18.1345   -8.5072    7.9541 C   0  0  0  0  0  0  0  0  0  0  0  0
   17.0260   -9.2002    7.5917 N   0  0  0  0  0  0  0  0  0  0  0  0
   16.3070   -9.8351    8.5668 C   0  0  0  0  0  0  0  0  0  0  0  0
   16.7156   -9.7716    9.9207 C   0  0  0  0  0  0  0  0  0  0  0  0
   17.8626   -9.0356   10.2754 C   0  0  0  0  0  0  0  0  0  0  0  0
   19.9154   -6.7227    5.1633 C   0  0  0  0  0  0  0  0  0  0  0  0
   18.8503   -7.6593    5.7096 C   0  0  0  0  0  0  0  0  0  0  0  0
   18.9697   -9.0084    5.0257 C   0  0  0  0  0  0  0  0  0  0  0  0
 25 26  1  0  0  0
 26 27  1  0  0  0
 26 16  1  0  0  0
 16 17  1  0  0  0
 17 18  2  0  0  0
 18 19  1  0  0  0
 19 20  2  0  0  0
 20 21  1  0  0  0
 21 22  2  0  0  0
 22 23  1  0  0  0
 23 15  1  0  0  0
 15  1  1  0  0  0
  1  2  1  0  0  0
  2  3  2  0  0  0
  3 13  1  0  0  0
 13 14  2  0  0  0
  3  4  1  0  0  0
  4  8  1  0  0  0
  8  9  1  0  0  0
  8 10  1  0  0  0
  4  5  2  0  0  0
  5  6  1  0  0  0
  6  7  2  0  0  0
 23 24  2  0  0  0
 20 16  1  0  0  0
  7  2  1  0  0  0
 24 19  1  0  0  0
  9 11  1  0  0  0
 10 12  1  0  0  0
M  END
>  <minimizedAffinity>
-8.24123

>  <minimizedRMSD>
1.95805

$$$$
CSSS00160806237 MCULE-3518203197 MolPort-000-846-193


 27 29  0  0  0  0  0  0  0  0999 V2000
   16.6672  -10.3178   12.4498 C   0  0  0  0  0  0  0  0  0  0  0  0
   14.6462  -10.6340   10.5465 O   0  0  0  0  0  0  0  0  0  0  0  0
   15.8319  -10.0088   10.1741 C   0  0  0  0  0  0  0  0  0  0  0  0
   15.9723   -9.5638    8.8984 N   0  0  0  0  0  0  0  0  0  0  0  0
   17.1088   -8.9482    8.4912 C   0  0  0  0  0  0  0  0  0  0  0  0
   17.2289   -8.4989    7.1729 C   0  0  0  0  0  0  0  0  0  0  0  0
   18.4021   -7.8635    6.7549 C   0  0  0  0  0  0  0  0  0  0  0  0
   19.4573   -7.6759    7.6533 C   0  0  0  0  0  0  0  0  0  0  0  0
   19.3426   -8.1233    8.9729 C   0  0  0  0  0  0  0  0  0  0  0  0
   18.1684   -8.7617    9.3989 C   0  0  0  0  0  0  0  0  0  0  0  0
   18.0099   -9.2258   10.7119 C   0  0  0  0  0  0  0  0  0  0  0  0
   18.9417   -9.0738   11.5514 O   0  0  0  0  0  0  0  0  0  0  0  0
   16.8445   -9.8438   11.0789 N   0  0  0  0  0  0  0  0  0  0  0  0
   13.9575  -10.7431    9.9206 H   0  0  0  0  0  0  0  0  0  0  0  0
   16.0151   -9.2389   13.2947 C   0  0  0  0  0  0  0  0  0  0  0  0
   16.8993   -8.9277   14.4869 C   0  0  0  0  0  0  0  0  0  0  0  0
   16.1494   -8.0719   15.4915 C   0  0  0  0  0  0  0  0  0  0  0  0
   15.9151   -8.8467   16.7773 C   0  0  0  0  0  0  0  0  0  0  0  0
   15.2721   -7.9709   17.7949 C   0  0  0  0  0  0  0  0  0  0  0  0
   14.3407   -7.2000   17.4432 O   0  0  0  0  0  0  0  0  0  0  0  0
   15.7085   -8.0289   19.1589 N   0  0  0  0  0  0  0  0  0  0  0  0
   16.4305   -8.6591   19.3843 H   0  0  0  0  0  0  0  0  0  0  0  0
   15.1736   -7.2452   20.1958 N   0  0  0  0  0  0  0  0  0  0  0  0
   15.8755   -6.6839   21.1903 C   0  0  0  0  0  0  0  0  0  0  0  0
   15.0378   -6.0047   21.9973 N   0  0  0  0  0  0  0  0  0  0  0  0
   13.8109   -6.1386   21.5104 N   0  0  0  0  0  0  0  0  0  0  0  0
   13.8917   -6.9005   20.4029 C   0  0  0  0  0  0  0  0  0  0  0  0
  2  3  1  0  0  0
  3  4  2  0  0  0
  4  5  1  0  0  0
  5  6  2  0  0  0
  6  7  1  0  0  0
  7  8  2  0  0  0
  8  9  1  0  0  0
  9 10  2  0  0  0
 10 11  1  0  0  0
 10  5  1  0  0  0
 11 12  2  0  0  0
 11 13  1  0  0  0
 13  1  1  0  0  0
 13  3  1  0  0  0
  1 15  1  0  0  0
 15 16  1  0  0  0
 16 17  1  0  0  0
 17 18  1  0  0  0
 18 19  1  0  0  0
 19 20  2  0  0  0
 19 21  1  0  0  0
 21 23  1  0  0  0
 23 24  1  0  0  0
 24 25  2  0  0  0
 25 26  1  0  0  0
 26 27  2  0  0  0
 27 23  1  0  0  0
  2 14  1  0  0  0
 21 22  1  0  0  0
M  END
>  <minimizedAffinity>
-8.22958

>  <minimizedRMSD>
1.31906

$$$$
CSC025936047 95434874 CHEMBL4903331 CSSS00025936047 MCULE-5367979437 MolPort-027-919-312 PubChem-75387819 Z1502795468 ZINC000095434874


 28 31  0  0  0  0  0  0  0  0999 V2000
   16.8070   -9.8612   11.5495 C   0  0  0  0  0  0  0  0  0  0  0  0
   17.0328   -9.4981   10.2281 C   0  0  0  0  0  0  0  0  0  0  0  0
   16.0065   -9.5132    9.3382 C   0  0  0  0  0  0  0  0  0  0  0  0
   16.4107   -9.1434    8.1545 O   0  0  0  0  0  0  0  0  0  0  0  0
   17.7037   -8.8830    8.2578 C   0  0  0  0  0  0  0  0  0  0  0  0
   18.1706   -9.0899    9.5637 C   0  0  0  0  0  0  0  0  0  0  0  0
   14.7486   -9.8735    9.6890 N   0  0  0  0  0  0  0  0  0  0  0  0
   14.5174  -10.2322   10.9873 C   0  0  0  0  0  0  0  0  0  0  0  0
   15.5372  -10.2248   11.9032 N   0  0  0  0  0  0  0  0  0  0  0  0
   18.5297   -8.4326    7.1260 C   0  0  0  0  0  0  0  0  0  0  0  0
   18.2269   -8.8600    5.8261 C   0  0  0  0  0  0  0  0  0  0  0  0
   19.0059   -8.4373    4.7447 C   0  0  0  0  0  0  0  0  0  0  0  0
   20.0927   -7.5846    4.9570 C   0  0  0  0  0  0  0  0  0  0  0  0
   20.4008   -7.1543    6.2505 C   0  0  0  0  0  0  0  0  0  0  0  0
   19.6220   -7.5768    7.3318 C   0  0  0  0  0  0  0  0  0  0  0  0
   17.8688   -9.8538   12.5046 N   0  0  0  0  0  0  0  0  0  0  0  0
   18.5534   -9.1483   12.4513 H   0  0  0  0  0  0  0  0  0  0  0  0
   17.9701  -10.8555   13.5528 C   0  0  0  0  0  0  0  0  0  0  0  0
   16.8181   -9.0841   16.4044 C   0  0  0  0  0  0  0  0  0  0  0  0
   16.6813   -9.5121   15.1744 O   0  0  0  0  0  0  0  0  0  0  0  0
   17.7431  -10.2159   14.8762 C   0  0  0  0  0  0  0  0  0  0  0  0
   18.6245  -10.2563   15.9388 C   0  0  0  0  0  0  0  0  0  0  0  0
   18.0176   -9.5166   16.9420 C   0  0  0  0  0  0  0  0  0  0  0  0
   15.8461   -8.1406   18.5155 N   0  0  0  0  0  0  0  0  0  0  0  0
   15.8233   -8.2586   17.0967 C   0  0  0  0  0  0  0  0  0  0  0  0
   14.9425   -7.6488   16.4359 O   0  0  0  0  0  0  0  0  0  0  0  0
   16.5325   -8.6151   19.0380 H   0  0  0  0  0  0  0  0  0  0  0  0
   15.1754   -7.5847   18.9741 H   0  0  0  0  0  0  0  0  0  0  0  0
 24 25  1  0  0  0
 25 19  1  0  0  0
 19 20  1  0  0  0
 20 21  1  0  0  0
 21 18  1  0  0  0
 18 16  1  0  0  0
 16  1  1  0  0  0
  1  2  1  0  0  0
  2  3  2  0  0  0
  3  4  1  0  0  0
  4  5  1  0  0  0
  5 10  1  0  0  0
 10 11  2  0  0  0
 11 12  1  0  0  0
 12 13  2  0  0  0
 13 14  1  0  0  0
 14 15  2  0  0  0
  5  6  2  0  0  0
  3  7  1  0  0  0
  7  8  2  0  0  0
  8  9  1  0  0  0
 21 22  2  0  0  0
 22 23  1  0  0  0
 25 26  2  0  0  0
 23 19  2  0  0  0
  9  1  2  0  0  0
  6  2  1  0  0  0
 15 10  1  0  0  0
 24 27  1  0  0  0
 24 28  1  0  0  0
 16 17  1  0  0  0
M  END
>  <minimizedAffinity>
-8.22718

>  <minimizedRMSD>
2.40342

$$$$
CSC028182504 121988591 CSSS00028182504 MCULE-4800366173 MolPort-039-321-533 Z445514752 ZINC000121988591


 28 30  0  0  0  0  0  0  0  0999 V2000
   16.7384   -9.3993   13.2044 N   0  0  0  0  0  0  0  0  0  0  0  0
   16.0909   -8.8211   12.7400 H   0  0  0  0  0  0  0  0  0  0  0  0
   17.3500  -10.3950   15.4216 C   0  0  0  0  0  0  0  0  0  0  0  0
   17.2448  -10.3331   16.8212 C   0  0  0  0  0  0  0  0  0  0  0  0
   16.5011   -9.3261   17.4374 C   0  0  0  0  0  0  0  0  0  0  0  0
   15.8483   -8.3618   16.6691 C   0  0  0  0  0  0  0  0  0  0  0  0
   15.9486   -8.4168   15.2729 C   0  0  0  0  0  0  0  0  0  0  0  0
   16.6900   -9.4189   14.6378 C   0  0  0  0  0  0  0  0  0  0  0  0
   15.0929   -7.3419   17.3369 N   0  0  0  0  0  0  0  0  0  0  0  0
   13.8287   -7.5025   17.9925 C   0  0  0  0  0  0  0  0  0  0  0  0
   13.1886   -6.3259   18.6355 C   0  0  0  0  0  0  0  0  0  0  0  0
   13.2496   -8.6199   18.0345 O   0  0  0  0  0  0  0  0  0  0  0  0
   15.4831   -6.4381   17.3459 H   0  0  0  0  0  0  0  0  0  0  0  0
   18.0041  -12.7759   15.1969 C   0  0  0  0  0  0  0  0  0  0  0  0
   18.0984  -11.4102   14.8144 O   0  0  0  0  0  0  0  0  0  0  0  0
   17.6625  -10.1609   12.3780 C   0  0  0  0  0  0  0  0  0  0  0  0
   17.5484   -9.7201   10.9587 C   0  0  0  0  0  0  0  0  0  0  0  0
   16.4188  -10.0389   10.1876 C   0  0  0  0  0  0  0  0  0  0  0  0
   15.3870  -10.7974   10.7282 O   0  0  0  0  0  0  0  0  0  0  0  0
   16.3278   -9.6051    8.9007 N   0  0  0  0  0  0  0  0  0  0  0  0
   17.3085   -8.8571    8.3289 C   0  0  0  0  0  0  0  0  0  0  0  0
   17.1850   -8.4269    7.0048 C   0  0  0  0  0  0  0  0  0  0  0  0
   18.1971   -7.6552    6.4245 C   0  0  0  0  0  0  0  0  0  0  0  0
   19.3334   -7.3121    7.1658 C   0  0  0  0  0  0  0  0  0  0  0  0
   19.4633   -7.7391    8.4915 C   0  0  0  0  0  0  0  0  0  0  0  0
   18.4552   -8.5106    9.0751 C   0  0  0  0  0  0  0  0  0  0  0  0
   18.5655   -8.9458   10.3949 C   0  0  0  0  0  0  0  0  0  0  0  0
   15.4419  -11.0998   11.6134 H   0  0  0  0  0  0  0  0  0  0  0  0
 14 15  1  0  0  0
 15  3  1  0  0  0
  3  4  2  0  0  0
  4  5  1  0  0  0
  5  6  2  0  0  0
  6  9  1  0  0  0
  9 10  1  0  0  0
 10 11  1  0  0  0
 10 12  2  0  0  0
  6  7  1  0  0  0
  7  8  2  0  0  0
  8  1  1  0  0  0
  1 16  1  0  0  0
 16 17  1  0  0  0
 17 18  2  0  0  0
 18 19  1  0  0  0
 18 20  1  0  0  0
 20 21  2  0  0  0
 21 22  1  0  0  0
 22 23  2  0  0  0
 23 24  1  0  0  0
 24 25  2  0  0  0
 25 26  1  0  0  0
 26 27  2  0  0  0
  8  3  1  0  0  0
 27 17  1  0  0  0
 26 21  1  0  0  0
  9 13  1  0  0  0
  1  2  1  0  0  0
 19 28  1  0  0  0
M  END
>  <minimizedAffinity>
-8.22395

>  <minimizedRMSD>
1.23540

$$$$
CSC027490169 69153648 CSSS00027490169 MCULE-3237505004 MolPort-020-114-213 PubChem-53500173 Z428808780 ZINC000069153648 ZINC69153648


 25 27  0  0  0  0  0  0  0  0999 V2000
   16.2628   -9.9605   12.0575 C   0  0  0  0  0  0  0  0  0  0  0  0
   19.8967   -7.5288    5.4959 C   0  0  0  0  0  0  0  0  0  0  0  0
   19.3545   -7.8507    6.8413 C   0  0  0  0  0  0  0  0  0  0  0  0
   18.2855   -8.7381    6.9748 C   0  0  0  0  0  0  0  0  0  0  0  0
   17.7788   -9.0412    8.2073 N   0  0  0  0  0  0  0  0  0  0  0  0
   16.7315   -9.9160    8.3224 C   0  0  0  0  0  0  0  0  0  0  0  0
   16.2207  -10.4543    7.3020 O   0  0  0  0  0  0  0  0  0  0  0  0
   16.2138  -10.2260    9.5789 C   0  0  0  0  0  0  0  0  0  0  0  0
   16.7757   -9.6273   10.7025 C   0  0  0  0  0  0  0  0  0  0  0  0
   17.8187   -8.7708   10.5638 N   0  0  0  0  0  0  0  0  0  0  0  0
   18.3207   -8.4706    9.3382 C   0  0  0  0  0  0  0  0  0  0  0  0
   19.3918   -7.5795    9.2363 C   0  0  0  0  0  0  0  0  0  0  0  0
   19.9091   -7.2698    7.9798 C   0  0  0  0  0  0  0  0  0  0  0  0
   17.3265  -10.4514   12.8629 O   0  0  0  0  0  0  0  0  0  0  0  0
   17.3021  -10.3983   14.2588 C   0  0  0  0  0  0  0  0  0  0  0  0
   18.0189  -11.3536   14.9855 C   0  0  0  0  0  0  0  0  0  0  0  0
   18.0139  -11.3268   16.3824 C   0  0  0  0  0  0  0  0  0  0  0  0
   17.2906  -10.3424   17.0606 C   0  0  0  0  0  0  0  0  0  0  0  0
   16.5665   -9.3771   16.3473 C   0  0  0  0  0  0  0  0  0  0  0  0
   16.5767   -9.4111   14.9455 C   0  0  0  0  0  0  0  0  0  0  0  0
   15.8036   -8.3389   17.0620 C   0  0  0  0  0  0  0  0  0  0  0  0
   15.9128   -8.2081   18.4766 N   0  0  0  0  0  0  0  0  0  0  0  0
   15.0466   -7.5560   16.4284 O   0  0  0  0  0  0  0  0  0  0  0  0
   16.5010   -8.8137   18.9830 H   0  0  0  0  0  0  0  0  0  0  0  0
   15.4001   -7.5120   18.9476 H   0  0  0  0  0  0  0  0  0  0  0  0
  2  3  1  0  0  0
  3  4  2  0  0  0
  4  5  1  0  0  0
  5  6  1  0  0  0
  6  7  2  0  0  0
  6  8  1  0  0  0
  8  9  2  0  0  0
  9  1  1  0  0  0
  9 10  1  0  0  0
  1 14  1  0  0  0
 14 15  1  0  0  0
 15 16  2  0  0  0
 16 17  1  0  0  0
 17 18  2  0  0  0
 18 19  1  0  0  0
 19 20  2  0  0  0
 19 21  1  0  0  0
 20 15  1  0  0  0
 21 22  1  0  0  0
 21 23  2  0  0  0
 10 11  2  0  0  0
 11 12  1  0  0  0
 11  5  1  0  0  0
 12 13  2  0  0  0
 13  3  1  0  0  0
 22 24  1  0  0  0
 22 25  1  0  0  0
M  END
>  <minimizedAffinity>
-8.21662

>  <minimizedRMSD>
0.76429

$$$$
CSC026477485 7224507 CSSS00026477485 MCULE-2372334743 MolPort-005-659-632 PubChem-8329445 Z44500516 ZINC000007224507 ZINC07224507


 26 28  0  0  0  0  0  0  0  0999 V2000
   16.2171   -9.1710   12.7959 N   0  0  0  0  0  0  0  0  0  0  0  0
   15.8243   -8.2858   12.6189 H   0  0  0  0  0  0  0  0  0  0  0  0
   17.0332   -9.1819   16.4375 C   0  0  0  0  0  0  0  0  0  0  0  0
   18.3211   -9.7277   16.4220 C   0  0  0  0  0  0  0  0  0  0  0  0
   18.9208  -10.0920   15.2132 C   0  0  0  0  0  0  0  0  0  0  0  0
   18.2333   -9.9118   14.0104 C   0  0  0  0  0  0  0  0  0  0  0  0
   16.9417   -9.3657   14.0121 C   0  0  0  0  0  0  0  0  0  0  0  0
   16.3486   -9.0037   15.2255 C   0  0  0  0  0  0  0  0  0  0  0  0
   14.8782   -7.6727   19.2948 C   0  0  0  0  0  0  0  0  0  0  0  0
   15.3487   -7.9308   17.9093 C   0  0  0  0  0  0  0  0  0  0  0  0
   14.7703   -7.3637   16.9454 O   0  0  0  0  0  0  0  0  0  0  0  0
   16.4520   -8.8208   17.6979 N   0  0  0  0  0  0  0  0  0  0  0  0
   16.8523   -9.2261   18.5009 H   0  0  0  0  0  0  0  0  0  0  0  0
   16.0340  -10.2230   11.8074 C   0  0  0  0  0  0  0  0  0  0  0  0
   16.6625   -9.8170   10.5222 C   0  0  0  0  0  0  0  0  0  0  0  0
   16.1446  -10.2812    9.3166 C   0  0  0  0  0  0  0  0  0  0  0  0
   16.7377   -9.8652    8.1257 C   0  0  0  0  0  0  0  0  0  0  0  0
   16.2723  -10.2880    7.0318 O   0  0  0  0  0  0  0  0  0  0  0  0
   17.8071   -9.0101    8.1523 N   0  0  0  0  0  0  0  0  0  0  0  0
   18.3875   -8.6030    6.9841 C   0  0  0  0  0  0  0  0  0  0  0  0
   19.4763   -7.7299    6.9945 C   0  0  0  0  0  0  0  0  0  0  0  0
   20.0990   -7.2942    5.7177 C   0  0  0  0  0  0  0  0  0  0  0  0
   19.9738   -7.2698    8.2119 C   0  0  0  0  0  0  0  0  0  0  0  0
   19.3813   -7.6855    9.4029 C   0  0  0  0  0  0  0  0  0  0  0  0
   18.2933   -8.5607    9.3605 C   0  0  0  0  0  0  0  0  0  0  0  0
   17.7176   -8.9641   10.5226 N   0  0  0  0  0  0  0  0  0  0  0  0
  9 10  1  0  0  0
 10 11  2  0  0  0
 10 12  1  0  0  0
 12  3  1  0  0  0
  3  4  2  0  0  0
  4  5  1  0  0  0
  5  6  2  0  0  0
  6  7  1  0  0  0
  7  1  1  0  0  0
  7  8  2  0  0  0
  1 14  1  0  0  0
 14 15  1  0  0  0
 15 16  2  0  0  0
 16 17  1  0  0  0
 17 18  2  0  0  0
 17 19  1  0  0  0
 19 20  1  0  0  0
 20 21  2  0  0  0
 21 22  1  0  0  0
 21 23  1  0  0  0
 23 24  2  0  0  0
 24 25  1  0  0  0
 25 26  2  0  0  0
 25 19  1  0  0  0
 26 15  1  0  0  0
  8  3  1  0  0  0
 12 13  1  0  0  0
  1  2  1  0  0  0
M  END
>  <minimizedAffinity>
-8.20101

>  <minimizedRMSD>
1.20580

$$$$
CSSS00159954436 MCULE-3284978080 MolPort-045-959-794 PubChem-131949551


 30 33  0  0  0  0  0  0  0  0999 V2000
   16.3316   -8.4159   16.0988 C   0  0  0  0  0  0  0  0  0  0  0  0
   16.7546   -9.7657   16.6847 C   0  0  0  0  0  0  0  0  0  0  0  0
   17.8984  -10.4315   15.9020 C   0  0  0  0  0  0  0  0  0  0  0  0
   18.2384   -9.7114   14.5953 C   0  0  0  0  0  0  0  0  0  0  0  0
   17.0120   -9.3186   13.9006 N   0  0  0  0  0  0  0  0  0  0  0  0
   15.9716   -8.5797   14.6232 C   0  0  0  0  0  0  0  0  0  0  0  0
   16.7992   -9.6915   12.5303 C   0  0  0  0  0  0  0  0  0  0  0  0
   15.7274   -9.3767   11.9470 O   0  0  0  0  0  0  0  0  0  0  0  0
   15.1383   -7.8573   16.8560 C   0  0  0  0  0  0  0  0  0  0  0  0
   14.6468   -7.1566   19.2414 C   0  0  0  0  0  0  0  0  0  0  0  0
   13.7745   -6.3375   18.8443 O   0  0  0  0  0  0  0  0  0  0  0  0
   15.3496   -7.9646   18.2932 N   0  0  0  0  0  0  0  0  0  0  0  0
   16.0037   -8.6209   18.6260 H   0  0  0  0  0  0  0  0  0  0  0  0
   17.3672   -6.4286   20.7542 C   0  0  0  0  0  0  0  0  0  0  0  0
   16.1123   -6.9696   21.3466 C   0  0  0  0  0  0  0  0  0  0  0  0
   14.9390   -7.2807   20.6833 C   0  0  0  0  0  0  0  0  0  0  0  0
   14.1113   -7.7378   21.6948 C   0  0  0  0  0  0  0  0  0  0  0  0
   12.7083   -8.2188   21.5594 C   0  0  0  0  0  0  0  0  0  0  0  0
   14.7668   -7.6929   22.8702 N   0  0  0  0  0  0  0  0  0  0  0  0
   15.9583   -7.2290   22.6239 O   0  0  0  0  0  0  0  0  0  0  0  0
   17.8507  -10.4210   11.7577 C   0  0  0  0  0  0  0  0  0  0  0  0
   18.0717   -9.7652   10.4800 N   0  0  0  0  0  0  0  0  0  0  0  0
   18.8523   -8.6970   10.3328 N   0  0  0  0  0  0  0  0  0  0  0  0
   18.7522   -8.3839    9.0328 C   0  0  0  0  0  0  0  0  0  0  0  0
   19.3641   -7.3470    8.3361 C   0  0  0  0  0  0  0  0  0  0  0  0
   19.0749   -7.2438    6.9611 C   0  0  0  0  0  0  0  0  0  0  0  0
   18.1976   -8.1628    6.3372 C   0  0  0  0  0  0  0  0  0  0  0  0
   17.5963   -9.1989    7.0788 C   0  0  0  0  0  0  0  0  0  0  0  0
   17.9083   -9.2679    8.4326 C   0  0  0  0  0  0  0  0  0  0  0  0
   17.4732  -10.1419    9.3520 N   0  0  0  0  0  0  0  0  0  0  0  0
 14 15  1  0  0  0
 15 16  2  0  0  0
 16 10  1  0  0  0
 10 11  2  0  0  0
 10 12  1  0  0  0
 12  9  1  0  0  0
  9  1  1  0  0  0
  1  2  1  0  0  0
  2  3  1  0  0  0
  3  4  1  0  0  0
  4  5  1  0  0  0
  5  6  1  0  0  0
  5  7  1  0  0  0
  7  8  2  0  0  0
  7 21  1  0  0  0
 21 22  1  0  0  0
 22 23  1  0  0  0
 23 24  2  0  0  0
 24 25  1  0  0  0
 25 26  2  0  0  0
 26 27  1  0  0  0
 27 28  2  0  0  0
 28 29  1  0  0  0
 29 30  2  0  0  0
 16 17  1  0  0  0
 17 18  1  0  0  0
 17 19  2  0  0  0
 19 20  1  0  0  0
 20 15  1  0  0  0
  6  1  1  0  0  0
 30 22  1  0  0  0
 29 24  1  0  0  0
 12 13  1  0  0  0
M  END
>  <minimizedAffinity>
-8.18769

>  <minimizedRMSD>
2.11046

$$$$
CSSS00116254995 MCULE-9109492430 PubChem-9321451 Z25417409 ZINC08187191


 29 32  0  0  0  0  0  0  0  0999 V2000
   16.5414   -9.3948   16.2951 C   0  0  0  0  0  0  0  0  0  0  0  0
   16.5792   -9.5016   14.8975 C   0  0  0  0  0  0  0  0  0  0  0  0
   17.2733  -10.5538   14.2787 C   0  0  0  0  0  0  0  0  0  0  0  0
   17.9309  -11.5011   15.0693 C   0  0  0  0  0  0  0  0  0  0  0  0
   17.8978  -11.4021   16.4625 C   0  0  0  0  0  0  0  0  0  0  0  0
   17.2056  -10.3531   17.0730 C   0  0  0  0  0  0  0  0  0  0  0  0
   15.5964   -8.3008   18.3541 N   0  0  0  0  0  0  0  0  0  0  0  0
   15.8102   -8.2897   16.9387 C   0  0  0  0  0  0  0  0  0  0  0  0
   15.3761   -7.3310   16.2428 O   0  0  0  0  0  0  0  0  0  0  0  0
   15.9832   -9.0359   18.8826 H   0  0  0  0  0  0  0  0  0  0  0  0
   14.8318   -7.2726   19.0473 C   0  0  0  0  0  0  0  0  0  0  0  0
   10.6326   -7.9083   18.4446 C   0  0  0  0  0  0  0  0  0  0  0  0
   11.3118   -6.9521   17.6833 C   0  0  0  0  0  0  0  0  0  0  0  0
   12.6798   -6.7424   17.8831 C   0  0  0  0  0  0  0  0  0  0  0  0
   13.3698   -7.4872   18.8458 C   0  0  0  0  0  0  0  0  0  0  0  0
   12.6893   -8.4461   19.6052 C   0  0  0  0  0  0  0  0  0  0  0  0
   11.3212   -8.6555   19.4052 C   0  0  0  0  0  0  0  0  0  0  0  0
   17.3245  -10.6800   12.8881 O   0  0  0  0  0  0  0  0  0  0  0  0
   16.2494  -10.2925   12.0427 C   0  0  0  0  0  0  0  0  0  0  0  0
   16.7858   -9.8137   10.7416 C   0  0  0  0  0  0  0  0  0  0  0  0
   16.2212  -10.2747    9.5416 C   0  0  0  0  0  0  0  0  0  0  0  0
   16.7611   -9.8297    8.3297 C   0  0  0  0  0  0  0  0  0  0  0  0
   16.2716  -10.2242    7.2374 O   0  0  0  0  0  0  0  0  0  0  0  0
   17.8172   -8.9716    8.3554 N   0  0  0  0  0  0  0  0  0  0  0  0
   18.4574   -8.4483    7.2748 C   0  0  0  0  0  0  0  0  0  0  0  0
   19.5180   -7.5928    7.5951 C   0  0  0  0  0  0  0  0  0  0  0  0
   19.6286   -7.5132    9.2862 S   0  0  0  0  0  0  0  0  0  0  0  0
   18.3426   -8.5529    9.5240 C   0  0  0  0  0  0  0  0  0  0  0  0
   17.8485   -8.9611   10.7183 N   0  0  0  0  0  0  0  0  0  0  0  0
 12 13  2  0  0  0
 13 14  1  0  0  0
 14 15  2  0  0  0
 15 16  1  0  0  0
 16 17  2  0  0  0
 15 11  1  0  0  0
 11  7  1  0  0  0
  7  8  1  0  0  0
  8  9  2  0  0  0
  8  1  1  0  0  0
  1  2  2  0  0  0
  2  3  1  0  0  0
  3  4  2  0  0  0
  4  5  1  0  0  0
  5  6  2  0  0  0
  3 18  1  0  0  0
 18 19  1  0  0  0
 19 20  1  0  0  0
 20 21  2  0  0  0
 21 22  1  0  0  0
 22 23  2  0  0  0
 22 24  1  0  0  0
 24 25  1  0  0  0
 25 26  2  0  0  0
 26 27  1  0  0  0
 27 28  1  0  0  0
 28 29  2  0  0  0
 17 12  1  0  0  0
  6  1  1  0  0  0
 29 20  1  0  0  0
 28 24  1  0  0  0
  7 10  1  0  0  0
M  END
>  <minimizedAffinity>
-8.13531

>  <minimizedRMSD>
0.81225

$$$$
CSC026647969 14754271 CSSS00026647969 MCULE-2256776603 MolPort-005-692-366 PubChem-42915167 Z54069553 ZINC000014754271 ZINC14754271


 27 29  0  0  0  0  0  0  0  0999 V2000
   17.4090   -9.4644   11.8266 O   0  0  0  0  0  0  0  0  0  0  0  0
   17.5331  -10.2948   12.9427 C   0  0  0  0  0  0  0  0  0  0  0  0
   17.9832  -11.4674   12.8162 O   0  0  0  0  0  0  0  0  0  0  0  0
   16.3744   -8.8363   16.8025 C   0  0  0  0  0  0  0  0  0  0  0  0
   16.1203   -8.0781   15.6499 C   0  0  0  0  0  0  0  0  0  0  0  0
   16.4989   -8.5553   14.3922 C   0  0  0  0  0  0  0  0  0  0  0  0
   17.1363   -9.7965   14.2695 C   0  0  0  0  0  0  0  0  0  0  0  0
   17.3900  -10.5541   15.4214 C   0  0  0  0  0  0  0  0  0  0  0  0
   17.0109  -10.0754   16.6787 C   0  0  0  0  0  0  0  0  0  0  0  0
   14.6020   -7.2450   19.8705 C   0  0  0  0  0  0  0  0  0  0  0  0
   14.8262   -7.6347   18.4543 C   0  0  0  0  0  0  0  0  0  0  0  0
   13.9808   -7.3035   17.5819 O   0  0  0  0  0  0  0  0  0  0  0  0
   16.0009   -8.3799   18.1097 N   0  0  0  0  0  0  0  0  0  0  0  0
   16.6149   -8.6014   18.8467 H   0  0  0  0  0  0  0  0  0  0  0  0
   18.5224   -8.7791   11.2724 C   0  0  0  0  0  0  0  0  0  0  0  0
   18.4294   -8.7969    9.7886 C   0  0  0  0  0  0  0  0  0  0  0  0
   17.4238   -9.5276    9.1631 C   0  0  0  0  0  0  0  0  0  0  0  0
   17.3422   -9.5040    7.7716 C   0  0  0  0  0  0  0  0  0  0  0  0
   16.4339  -10.1694    7.2022 O   0  0  0  0  0  0  0  0  0  0  0  0
   18.2366   -8.7664    7.0430 N   0  0  0  0  0  0  0  0  0  0  0  0
   18.1555   -8.7438    5.6790 C   0  0  0  0  0  0  0  0  0  0  0  0
   19.0574   -7.9946    4.9212 C   0  0  0  0  0  0  0  0  0  0  0  0
   20.0501   -7.2624    5.5695 C   0  0  0  0  0  0  0  0  0  0  0  0
   21.0185   -6.4587    4.7794 C   0  0  0  0  0  0  0  0  0  0  0  0
   20.1328   -7.2854    6.9604 C   0  0  0  0  0  0  0  0  0  0  0  0
   19.2161   -8.0455    7.6904 C   0  0  0  0  0  0  0  0  0  0  0  0
   19.2983   -8.0664    9.0458 N   0  0  0  0  0  0  0  0  0  0  0  0
 10 11  1  0  0  0
 11 12  2  0  0  0
 11 13  1  0  0  0
 13  4  1  0  0  0
  4  5  2  0  0  0
  5  6  1  0  0  0
  6  7  2  0  0  0
  7  8  1  0  0  0
  7  2  1  0  0  0
  8  9  2  0  0  0
  9  4  1  0  0  0
  2  3  2  0  0  0
  2  1  1  0  0  0
  1 15  1  0  0  0
 15 16  1  0  0  0
 16 17  2  0  0  0
 17 18  1  0  0  0
 18 19  2  0  0  0
 18 20  1  0  0  0
 20 21  1  0  0  0
 21 22  2  0  0  0
 22 23  1  0  0  0
 23 24  1  0  0  0
 23 25  2  0  0  0
 25 26  1  0  0  0
 26 27  2  0  0  0
 26 20  1  0  0  0
 27 16  1  0  0  0
 13 14  1  0  0  0
M  END
>  <minimizedAffinity>
-8.12321

>  <minimizedRMSD>
1.40752

$$$$
CSSS05766160735 Z7918725494


 32 35  0  0  0  0  0  0  0  0999 V2000
   15.7090   -8.7775   16.8282 C   0  0  0  0  0  0  0  0  0  0  0  0
   15.9506   -8.1743   15.4433 C   0  0  0  0  0  0  0  0  0  0  0  0
   16.3132   -9.2708   14.4465 C   0  0  0  0  0  0  0  0  0  0  0  0
   17.5501  -10.0308   14.9251 C   0  0  0  0  0  0  0  0  0  0  0  0
   17.2810  -10.6544   16.2914 C   0  0  0  0  0  0  0  0  0  0  0  0
   16.9278   -9.5697   17.3044 C   0  0  0  0  0  0  0  0  0  0  0  0
   14.0201   -7.4117   18.1819 C   0  0  0  0  0  0  0  0  0  0  0  0
   13.0369   -8.0339   17.6982 O   0  0  0  0  0  0  0  0  0  0  0  0
   15.3591   -7.7386   17.7920 N   0  0  0  0  0  0  0  0  0  0  0  0
   16.0938   -7.2277   18.2023 H   0  0  0  0  0  0  0  0  0  0  0  0
   13.7858   -6.2983   19.1425 C   0  0  0  0  0  0  0  0  0  0  0  0
   15.5370   -7.2089   23.6655 C   0  0  0  0  0  0  0  0  0  0  0  0
   14.6574   -7.2031   22.4666 C   0  0  0  0  0  0  0  0  0  0  0  0
   14.9548   -6.5247   21.3425 N   0  0  0  0  0  0  0  0  0  0  0  0
   13.9087   -6.7930   20.5429 C   0  0  0  0  0  0  0  0  0  0  0  0
   13.0131   -7.6266   21.1745 C   0  0  0  0  0  0  0  0  0  0  0  0
   13.4944   -7.8816   22.4057 N   0  0  0  0  0  0  0  0  0  0  0  0
   13.0869   -8.4402   23.1066 H   0  0  0  0  0  0  0  0  0  0  0  0
   17.9110  -11.1245   13.9326 C   0  0  0  0  0  0  0  0  0  0  0  0
   17.3744  -10.8198   12.6124 N   0  0  0  0  0  0  0  0  0  0  0  0
   18.0467   -9.9721   11.6763 C   0  0  0  0  0  0  0  0  0  0  0  0
   19.1744   -9.4854   11.9601 O   0  0  0  0  0  0  0  0  0  0  0  0
   16.5107  -11.2149   12.3531 H   0  0  0  0  0  0  0  0  0  0  0  0
   17.4156   -9.6753   10.3792 C   0  0  0  0  0  0  0  0  0  0  0  0
   16.1876  -10.1579    9.9456 C   0  0  0  0  0  0  0  0  0  0  0  0
   15.9383   -9.6696    8.7042 N   0  0  0  0  0  0  0  0  0  0  0  0
   17.0147   -8.9101    8.4231 C   0  0  0  0  0  0  0  0  0  0  0  0
   17.2193   -8.1938    7.2461 C   0  0  0  0  0  0  0  0  0  0  0  0
   18.4091   -7.4563    7.1372 C   0  0  0  0  0  0  0  0  0  0  0  0
   19.3468   -7.4525    8.1868 C   0  0  0  0  0  0  0  0  0  0  0  0
   19.0848   -8.1934    9.3481 C   0  0  0  0  0  0  0  0  0  0  0  0
   17.9220   -8.8926    9.4116 N   0  0  0  0  0  0  0  0  0  0  0  0
 12 13  1  0  0  0
 13 14  2  0  0  0
 14 15  1  0  0  0
 15 11  1  0  0  0
 11  7  1  0  0  0
  7  8  2  0  0  0
  7  9  1  0  0  0
  1  9  1  0  0  0
  1  2  1  0  0  0
  2  3  1  0  0  0
  3  4  1  0  0  0
  4 19  1  0  0  0
 19 20  1  0  0  0
 20 21  1  0  0  0
 21 22  2  0  0  0
 21 24  1  0  0  0
 24 25  2  0  0  0
 25 26  1  0  0  0
 26 27  2  0  0  0
 27 28  1  0  0  0
 28 29  2  0  0  0
 29 30  1  0  0  0
 30 31  2  0  0  0
 31 32  1  0  0  0
  4  5  1  0  0  0
  5  6  1  0  0  0
 15 16  2  0  0  0
 16 17  1  0  0  0
 17 13  1  0  0  0
  6  1  1  0  0  0
 32 24  1  0  0  0
 32 27  1  0  0  0
  9 10  1  0  0  0
 20 23  1  0  0  0
 17 18  1  0  0  0
M  END
>  <minimizedAffinity>
-8.11758

>  <minimizedRMSD>
1.96695

$$$$
CSC027536468 71914300 CSSS00027536468 MCULE-5459149480 MolPort-020-095-190 PubChem-56806340 Z1230975453 ZINC000071914300 ZINC71914300


 25 26  0  0  0  0  0  0  0  0999 V2000
   19.0237   -7.8944    6.0411 C   0  0  0  0  0  0  0  0  0  0  0  0
   19.9308   -7.4585    7.0146 C   0  0  0  0  0  0  0  0  0  0  0  0
   19.7087   -7.7367    8.3671 C   0  0  0  0  0  0  0  0  0  0  0  0
   18.5741   -8.4544    8.7518 C   0  0  0  0  0  0  0  0  0  0  0  0
   18.3344   -8.7415   10.0923 C   0  0  0  0  0  0  0  0  0  0  0  0
   17.1956   -9.4618   10.4771 C   0  0  0  0  0  0  0  0  0  0  0  0
   16.2971   -9.8879    9.4650 C   0  0  0  0  0  0  0  0  0  0  0  0
   15.0571  -10.6593    9.7678 C   0  0  0  0  0  0  0  0  0  0  0  0
   16.5551   -9.5939    8.1608 N   0  0  0  0  0  0  0  0  0  0  0  0
   17.6566   -8.8967    7.7815 C   0  0  0  0  0  0  0  0  0  0  0  0
   17.8828   -8.6164    6.4316 C   0  0  0  0  0  0  0  0  0  0  0  0
   18.6444   -8.2827    3.6279 C   0  0  0  0  0  0  0  0  0  0  0  0
   19.2785   -7.5978    4.6994 O   0  0  0  0  0  0  0  0  0  0  0  0
   17.0019   -9.7300   11.9228 C   0  0  0  0  0  0  0  0  0  0  0  0
   15.8467   -9.7657   12.4284 O   0  0  0  0  0  0  0  0  0  0  0  0
   18.1218   -9.9474   12.7335 O   0  0  0  0  0  0  0  0  0  0  0  0
   18.3945  -11.2043   13.3439 C   0  0  0  0  0  0  0  0  0  0  0  0
   18.2362  -11.1125   14.8529 C   0  0  0  0  0  0  0  0  0  0  0  0
   18.3950   -9.6741   15.3090 C   0  0  0  0  0  0  0  0  0  0  0  0
   16.8105   -8.9995   15.7556 S   0  0  0  0  0  0  0  0  0  0  0  0
   16.7972   -8.6065   17.4378 N   0  0  0  0  0  0  0  0  0  0  0  0
   15.7323  -10.0059   15.4677 O   0  0  0  0  0  0  0  0  0  0  0  0
   16.5575   -7.7557   14.9522 O   0  0  0  0  0  0  0  0  0  0  0  0
   16.9688   -9.4497   17.9854 H   0  0  0  0  0  0  0  0  0  0  0  0
   15.8884   -8.2172   17.6889 H   0  0  0  0  0  0  0  0  0  0  0  0
 12 13  1  0  0  0
 13  1  1  0  0  0
  1  2  2  0  0  0
  2  3  1  0  0  0
  3  4  2  0  0  0
  4  5  1  0  0  0
  5  6  2  0  0  0
  6 14  1  0  0  0
  6  7  1  0  0  0
 14 15  2  0  0  0
 14 16  1  0  0  0
 16 17  1  0  0  0
 17 18  1  0  0  0
 18 19  1  0  0  0
 19 20  1  0  0  0
 20 21  1  0  0  0
 20 22  2  0  0  0
 20 23  2  0  0  0
  7  8  1  0  0  0
  7  9  2  0  0  0
  9 10  1  0  0  0
 10 11  2  0  0  0
 10  4  1  0  0  0
 11  1  1  0  0  0
 21 24  1  0  0  0
 21 25  1  0  0  0
M  END
>  <minimizedAffinity>
-8.08157

>  <minimizedRMSD>
1.26781

$$$$
CSC026443994 CSSS00026443994 MCULE-6665657268 MolPort-027-676-273 PubChem-71896656 Z732440326


 27 29  0  0  0  0  0  0  0  0999 V2000
   16.1903   -9.4782   12.5545 C   0  0  0  0  0  0  0  0  0  0  0  0
   15.5045   -8.4622   12.8493 O   0  0  0  0  0  0  0  0  0  0  0  0
   17.5306   -9.4115   14.7403 C   0  0  0  0  0  0  0  0  0  0  0  0
   18.5508   -9.9513   15.5330 C   0  0  0  0  0  0  0  0  0  0  0  0
   19.2997  -11.0405   15.0894 C   0  0  0  0  0  0  0  0  0  0  0  0
   19.0375  -11.6008   13.8416 C   0  0  0  0  0  0  0  0  0  0  0  0
   18.0249  -11.0728   13.0399 C   0  0  0  0  0  0  0  0  0  0  0  0
   17.2539   -9.9773   13.4659 C   0  0  0  0  0  0  0  0  0  0  0  0
   16.6693   -7.9802   15.4009 S   0  0  0  0  0  0  0  0  0  0  0  0
   16.0891   -8.8998   16.8577 C   0  0  0  0  0  0  0  0  0  0  0  0
   15.8009   -7.7830   19.0968 N   0  0  0  0  0  0  0  0  0  0  0  0
   15.3448   -7.9872   17.7650 C   0  0  0  0  0  0  0  0  0  0  0  0
   14.3297   -7.3709   17.3463 O   0  0  0  0  0  0  0  0  0  0  0  0
   15.3088   -7.1788   19.6985 H   0  0  0  0  0  0  0  0  0  0  0  0
   16.6088   -8.2457   19.4168 H   0  0  0  0  0  0  0  0  0  0  0  0
   15.9102  -10.1910   11.2613 C   0  0  0  0  0  0  0  0  0  0  0  0
   16.6993   -9.5999   10.1383 C   0  0  0  0  0  0  0  0  0  0  0  0
   16.4644   -9.9044    8.8338 N   0  0  0  0  0  0  0  0  0  0  0  0
   17.3936   -9.1649    8.2053 C   0  0  0  0  0  0  0  0  0  0  0  0
   17.6269   -9.0717    6.8357 C   0  0  0  0  0  0  0  0  0  0  0  0
   18.6683   -8.2225    6.4148 C   0  0  0  0  0  0  0  0  0  0  0  0
   19.4347   -7.5007    7.3595 C   0  0  0  0  0  0  0  0  0  0  0  0
   19.1689   -7.6174    8.7370 C   0  0  0  0  0  0  0  0  0  0  0  0
   18.1316   -8.4661    9.1131 C   0  0  0  0  0  0  0  0  0  0  0  0
   17.6933   -8.7420   10.3118 O   0  0  0  0  0  0  0  0  0  0  0  0
   14.4737  -10.1874   10.9521 C   0  0  0  0  0  0  0  0  0  0  0  0
   13.3414  -10.1827   10.7106 N   0  0  0  0  0  0  0  0  0  0  0  0
 11 12  1  0  0  0
 12 13  2  0  0  0
 12 10  1  0  0  0
 10  9  1  0  0  0
  9  3  1  0  0  0
  3  4  2  0  0  0
  4  5  1  0  0  0
  5  6  2  0  0  0
  6  7  1  0  0  0
  7  8  2  0  0  0
  8  1  1  0  0  0
  8  3  1  0  0  0
  1  2  2  0  0  0
 16  1  1  0  0  0
 16 26  1  0  0  0
 16 17  1  0  0  0
 26 27  3  0  0  0
 17 18  2  0  0  0
 18 19  1  0  0  0
 19 20  2  0  0  0
 20 21  1  0  0  0
 21 22  2  0  0  0
 22 23  1  0  0  0
 23 24  2  0  0  0
 24 25  1  0  0  0
 24 19  1  0  0  0
 25 17  1  0  0  0
 11 14  1  0  0  0
 11 15  1  0  0  0
M  END
>  <minimizedAffinity>
-8.05841

>  <minimizedRMSD>
2.13246

$$$$
CSC027051601 CSSS00027051601 MCULE-5983278800 MolPort-009-350-270 PubChem-47982125 Z838100860


 29 32  0  0  0  0  0  0  0  0999 V2000
   18.0049  -10.0855   14.2132 C   0  0  0  0  0  0  0  0  0  0  0  0
   18.6331  -11.2958   14.5214 C   0  0  0  0  0  0  0  0  0  0  0  0
   18.3581  -11.9367   15.7323 C   0  0  0  0  0  0  0  0  0  0  0  0
   17.4508  -11.3705   16.6329 C   0  0  0  0  0  0  0  0  0  0  0  0
   16.8114  -10.1631   16.3302 C   0  0  0  0  0  0  0  0  0  0  0  0
   17.0920   -9.5250   15.1121 C   0  0  0  0  0  0  0  0  0  0  0  0
   15.8839   -9.6167   17.2776 N   0  0  0  0  0  0  0  0  0  0  0  0
   15.2718   -8.3216   17.2290 C   0  0  0  0  0  0  0  0  0  0  0  0
   15.5285   -7.5133   16.2957 O   0  0  0  0  0  0  0  0  0  0  0  0
   15.6427  -10.1905   18.0403 H   0  0  0  0  0  0  0  0  0  0  0  0
   14.3313   -7.9259   18.3177 C   0  0  0  0  0  0  0  0  0  0  0  0
   15.0747   -7.7403   19.6210 C   0  0  0  0  0  0  0  0  0  0  0  0
   14.4425   -6.5230   20.2248 C   0  0  0  0  0  0  0  0  0  0  0  0
   13.3754   -6.1333   19.2288 C   0  0  0  0  0  0  0  0  0  0  0  0
   13.6831   -6.7242   17.9949 O   0  0  0  0  0  0  0  0  0  0  0  0
   18.2771   -9.4144   12.9139 C   0  0  0  0  0  0  0  0  0  0  0  0
   17.1762   -9.6582   11.9957 N   0  0  0  0  0  0  0  0  0  0  0  0
   16.3282  -10.0092   12.3520 H   0  0  0  0  0  0  0  0  0  0  0  0
   15.1102  -10.6232   10.2018 C   0  0  0  0  0  0  0  0  0  0  0  0
   16.2940   -9.8645    9.7080 C   0  0  0  0  0  0  0  0  0  0  0  0
   17.2846   -9.4052   10.5926 C   0  0  0  0  0  0  0  0  0  0  0  0
   18.3502   -8.7146   10.0989 N   0  0  0  0  0  0  0  0  0  0  0  0
   18.4719   -8.4628    8.7704 C   0  0  0  0  0  0  0  0  0  0  0  0
   19.5703   -7.7531    8.2787 C   0  0  0  0  0  0  0  0  0  0  0  0
   19.6784   -7.5026    6.9065 C   0  0  0  0  0  0  0  0  0  0  0  0
   18.6902   -7.9607    6.0273 C   0  0  0  0  0  0  0  0  0  0  0  0
   17.5887   -8.6718    6.5156 C   0  0  0  0  0  0  0  0  0  0  0  0
   17.4770   -8.9242    7.8853 C   0  0  0  0  0  0  0  0  0  0  0  0
   16.4150   -9.6125    8.3770 N   0  0  0  0  0  0  0  0  0  0  0  0
 19 20  1  0  0  0
 20 21  2  0  0  0
 21 17  1  0  0  0
 21 22  1  0  0  0
 17 16  1  0  0  0
 16  1  1  0  0  0
  1  2  2  0  0  0
  2  3  1  0  0  0
  3  4  2  0  0  0
  4  5  1  0  0  0
  5  7  1  0  0  0
  5  6  2  0  0  0
  7  8  1  0  0  0
  8  9  2  0  0  0
 11  8  1  0  0  0
 11 12  1  0  0  0
 12 13  1  0  0  0
 13 14  1  0  0  0
 14 15  1  0  0  0
 15 11  1  0  0  0
  6  1  1  0  0  0
 22 23  2  0  0  0
 23 24  1  0  0  0
 24 25  2  0  0  0
 25 26  1  0  0  0
 26 27  2  0  0  0
 27 28  1  0  0  0
 28 29  2  0  0  0
 28 23  1  0  0  0
 29 20  1  0  0  0
 17 18  1  0  0  0
  7 10  1  0  0  0
M  END
>  <minimizedAffinity>
-8.02835

>  <minimizedRMSD>
0.87804

$$$$
CSSS18609916222


 31 34  0  0  0  0  0  0  0  0999 V2000
   20.4535   -7.1091    4.8707 C   0  0  0  0  0  0  0  0  0  0  0  0
   19.4832   -7.8671    4.1981 C   0  0  0  0  0  0  0  0  0  0  0  0
   18.5158   -8.5777    4.9143 C   0  0  0  0  0  0  0  0  0  0  0  0
   18.5174   -8.5457    6.3148 C   0  0  0  0  0  0  0  0  0  0  0  0
   17.5706   -9.2433    7.0768 C   0  0  0  0  0  0  0  0  0  0  0  0
   16.6709   -9.9282    6.5202 O   0  0  0  0  0  0  0  0  0  0  0  0
   17.6238   -9.1828    8.4334 N   0  0  0  0  0  0  0  0  0  0  0  0
   18.5772   -8.4519    9.0705 C   0  0  0  0  0  0  0  0  0  0  0  0
   19.5116   -7.7743    8.3529 N   0  0  0  0  0  0  0  0  0  0  0  0
   19.5013   -7.8008    6.9957 C   0  0  0  0  0  0  0  0  0  0  0  0
   20.4663   -7.0945    6.2731 C   0  0  0  0  0  0  0  0  0  0  0  0
   16.9593   -9.6776    8.9651 H   0  0  0  0  0  0  0  0  0  0  0  0
   21.9011   -5.2353    4.7574 F   0  0  0  0  0  0  0  0  0  0  0  0
   21.5222   -6.3918    4.0980 C   0  0  0  0  0  0  0  0  0  0  0  0
   21.0605   -6.0498    2.8386 F   0  0  0  0  0  0  0  0  0  0  0  0
   22.6229   -7.2177    3.9664 F   0  0  0  0  0  0  0  0  0  0  0  0
   18.6250   -8.4305   10.5563 C   0  0  0  0  0  0  0  0  0  0  0  0
   17.6329   -9.3512   11.0900 N   0  0  0  0  0  0  0  0  0  0  0  0
   16.8449   -9.5646   10.5397 H   0  0  0  0  0  0  0  0  0  0  0  0
   17.7517   -9.9595   12.3778 C   0  0  0  0  0  0  0  0  0  0  0  0
   18.4572  -11.1609   12.5019 C   0  0  0  0  0  0  0  0  0  0  0  0
   18.5899  -11.7788   13.7488 C   0  0  0  0  0  0  0  0  0  0  0  0
   18.0163  -11.1971   14.8822 C   0  0  0  0  0  0  0  0  0  0  0  0
   18.1478  -11.8122   16.1269 C   0  0  0  0  0  0  0  0  0  0  0  0
   17.5673  -11.2149   17.2472 C   0  0  0  0  0  0  0  0  0  0  0  0
   16.8817  -10.0463   17.1236 N   0  0  0  0  0  0  0  0  0  0  0  0
   16.7348   -9.4204   15.9242 C   0  0  0  0  0  0  0  0  0  0  0  0
   16.0899   -8.3392   15.8644 O   0  0  0  0  0  0  0  0  0  0  0  0
   17.3017   -9.9840   14.7692 C   0  0  0  0  0  0  0  0  0  0  0  0
   17.1745   -9.3727   13.5141 C   0  0  0  0  0  0  0  0  0  0  0  0
   16.4799   -9.6414   17.9260 H   0  0  0  0  0  0  0  0  0  0  0  0
 13 14  1  0  0  0
 14 15  1  0  0  0
 14 16  1  0  0  0
 14  1  1  0  0  0
  1  2  2  0  0  0
  2  3  1  0  0  0
  3  4  2  0  0  0
  4  5  1  0  0  0
  5  6  2  0  0  0
  5  7  1  0  0  0
  7  8  1  0  0  0
  8 17  1  0  0  0
 17 18  1  0  0  0
 18 20  1  0  0  0
 20 21  2  0  0  0
 21 22  1  0  0  0
 22 23  2  0  0  0
 23 24  1  0  0  0
 24 25  2  0  0  0
 25 26  1  0  0  0
 26 27  1  0  0  0
 27 28  2  0  0  0
 27 29  1  0  0  0
 29 30  2  0  0  0
  8  9  2  0  0  0
  9 10  1  0  0  0
 10 11  2  0  0  0
 11  1  1  0  0  0
 10  4  1  0  0  0
 30 20  1  0  0  0
 29 23  1  0  0  0
  7 12  1  0  0  0
 18 19  1  0  0  0
 26 31  1  0  0  0
M  END
>  <minimizedAffinity>
-8.02654

>  <minimizedRMSD>
2.16342

$$$$
CSSS00132832276 MCULE-1221302643 MolPort-000-856-977


 30 32  0  0  0  0  0  0  0  0999 V2000
   16.0759   -9.2798   13.1717 C   0  0  0  0  0  0  0  0  0  0  0  0
   16.7123  -10.3463   12.2995 C   0  0  0  0  0  0  0  0  0  0  0  0
   14.7027  -10.6459   10.3815 O   0  0  0  0  0  0  0  0  0  0  0  0
   15.8830  -10.0003   10.0270 C   0  0  0  0  0  0  0  0  0  0  0  0
   16.0236   -9.5282    8.7612 N   0  0  0  0  0  0  0  0  0  0  0  0
   17.1549   -8.8921    8.3713 C   0  0  0  0  0  0  0  0  0  0  0  0
   17.2755   -8.4149    7.0629 C   0  0  0  0  0  0  0  0  0  0  0  0
   18.4433   -7.7584    6.6628 C   0  0  0  0  0  0  0  0  0  0  0  0
   19.4926   -7.5775    7.5694 C   0  0  0  0  0  0  0  0  0  0  0  0
   19.3775   -8.0527    8.8793 C   0  0  0  0  0  0  0  0  0  0  0  0
   18.2087   -8.7123    9.2871 C   0  0  0  0  0  0  0  0  0  0  0  0
   18.0500   -9.2046   10.5898 C   0  0  0  0  0  0  0  0  0  0  0  0
   18.9767   -9.0595   11.4362 O   0  0  0  0  0  0  0  0  0  0  0  0
   16.8900   -9.8427   10.9393 N   0  0  0  0  0  0  0  0  0  0  0  0
   14.0178  -10.7498    9.7506 H   0  0  0  0  0  0  0  0  0  0  0  0
   16.9579   -9.0215   14.3781 C   0  0  0  0  0  0  0  0  0  0  0  0
   16.2443   -8.1228   15.3717 C   0  0  0  0  0  0  0  0  0  0  0  0
   15.9346   -8.8856   16.6487 C   0  0  0  0  0  0  0  0  0  0  0  0
   15.2899   -7.9840   17.6425 C   0  0  0  0  0  0  0  0  0  0  0  0
   14.2699   -7.3235   17.3103 O   0  0  0  0  0  0  0  0  0  0  0  0
   15.8232   -7.8831   18.9656 N   0  0  0  0  0  0  0  0  0  0  0  0
   16.6280   -8.4033   19.1913 H   0  0  0  0  0  0  0  0  0  0  0  0
   15.2246   -7.0428   19.9917 C   0  0  0  0  0  0  0  0  0  0  0  0
   14.3626   -7.8844   20.9173 C   0  0  0  0  0  0  0  0  0  0  0  0
   13.5430   -6.9894   21.8344 C   0  0  0  0  0  0  0  0  0  0  0  0
   14.2320   -6.7739   23.0980 N   0  0  0  0  0  0  0  0  0  0  0  0
   15.1955   -7.5444   23.6272 C   0  0  0  0  0  0  0  0  0  0  0  0
   15.5375   -6.9836   24.8428 C   0  0  0  0  0  0  0  0  0  0  0  0
   14.7813   -5.8842   25.0509 N   0  0  0  0  0  0  0  0  0  0  0  0
   13.9880   -5.7822   23.9674 C   0  0  0  0  0  0  0  0  0  0  0  0
  3  4  1  0  0  0
  4  5  2  0  0  0
  5  6  1  0  0  0
  6  7  2  0  0  0
  7  8  1  0  0  0
  8  9  2  0  0  0
  9 10  1  0  0  0
 10 11  2  0  0  0
 11 12  1  0  0  0
 11  6  1  0  0  0
 12 13  2  0  0  0
 12 14  1  0  0  0
 14  2  1  0  0  0
 14  4  1  0  0  0
  2  1  1  0  0  0
  1 16  1  0  0  0
 16 17  1  0  0  0
 17 18  1  0  0  0
 18 19  1  0  0  0
 19 20  2  0  0  0
 19 21  1  0  0  0
 21 23  1  0  0  0
 23 24  1  0  0  0
 24 25  1  0  0  0
 25 26  1  0  0  0
 26 27  1  0  0  0
 27 28  2  0  0  0
 28 29  1  0  0  0
 29 30  2  0  0  0
 30 26  1  0  0  0
  3 15  1  0  0  0
 21 22  1  0  0  0
M  END
>  <minimizedAffinity>
-8.01964

>  <minimizedRMSD>
1.38101

$$$$
CSC026905146 6608040 CSSS00026905146 MCULE-8424862464 MolPort-004-474-900 PubChem-8011428 Z87518433 ZINC000006608040 ZINC06608040


 27 29  0  0  0  0  0  0  0  0999 V2000
   18.5620  -11.2420   13.2858 C   0  0  0  0  0  0  0  0  0  0  0  0
   19.0659  -12.3970   13.2098 O   0  0  0  0  0  0  0  0  0  0  0  0
   16.2716   -9.4677   18.2008 N   0  0  0  0  0  0  0  0  0  0  0  0
   16.8313   -9.8783   16.9575 C   0  0  0  0  0  0  0  0  0  0  0  0
   17.4917  -11.1093   16.9016 C   0  0  0  0  0  0  0  0  0  0  0  0
   18.0571  -11.5576   15.7076 C   0  0  0  0  0  0  0  0  0  0  0  0
   17.9692  -10.7774   14.5500 C   0  0  0  0  0  0  0  0  0  0  0  0
   17.3087   -9.5450   14.6034 C   0  0  0  0  0  0  0  0  0  0  0  0
   16.7325   -9.0756   15.7958 C   0  0  0  0  0  0  0  0  0  0  0  0
   16.3552  -10.0459   18.9932 H   0  0  0  0  0  0  0  0  0  0  0  0
   15.8012   -8.6055   18.2680 H   0  0  0  0  0  0  0  0  0  0  0  0
   16.0638   -7.7983   15.7934 N   0  0  0  0  0  0  0  0  0  0  0  0
   15.0246   -7.5278   16.6534 O   0  0  0  0  0  0  0  0  0  0  0  0
   16.4252   -6.9062   14.9978 O   0  0  0  0  0  0  0  0  0  0  0  0
   18.5626  -10.3992   12.1724 O   0  0  0  0  0  0  0  0  0  0  0  0
   17.3947   -9.7104   11.7504 C   0  0  0  0  0  0  0  0  0  0  0  0
   17.4896   -9.4133   10.2924 C   0  0  0  0  0  0  0  0  0  0  0  0
   16.4610   -9.7658    9.3995 C   0  0  0  0  0  0  0  0  0  0  0  0
   15.0215  -10.6082    9.9520 Cl  0  0  0  0  0  0  0  0  0  0  0  0
   16.5716   -9.4533    8.0793 N   0  0  0  0  0  0  0  0  0  0  0  0
   17.6558   -8.7974    7.5876 C   0  0  0  0  0  0  0  0  0  0  0  0
   17.7368   -8.4920    6.2262 C   0  0  0  0  0  0  0  0  0  0  0  0
   18.8545   -7.8139    5.7283 C   0  0  0  0  0  0  0  0  0  0  0  0
   19.8919   -7.4396    6.5899 C   0  0  0  0  0  0  0  0  0  0  0  0
   19.8170   -7.7421    7.9534 C   0  0  0  0  0  0  0  0  0  0  0  0
   18.7028   -8.4200    8.4547 C   0  0  0  0  0  0  0  0  0  0  0  0
   18.6087   -8.7305    9.8102 C   0  0  0  0  0  0  0  0  0  0  0  0
  3  4  1  0  0  0
  4  5  2  0  0  0
  5  6  1  0  0  0
  6  7  2  0  0  0
  7  8  1  0  0  0
  7  1  1  0  0  0
  8  9  2  0  0  0
  9 12  1  0  0  0
  9  4  1  0  0  0
 12 13  1  0  0  0
 12 14  2  0  0  0
  1  2  2  0  0  0
  1 15  1  0  0  0
 15 16  1  0  0  0
 16 17  1  0  0  0
 17 18  2  0  0  0
 18 19  1  0  0  0
 18 20  1  0  0  0
 20 21  2  0  0  0
 21 22  1  0  0  0
 22 23  2  0  0  0
 23 24  1  0  0  0
 24 25  2  0  0  0
 25 26  1  0  0  0
 26 27  2  0  0  0
 26 21  1  0  0  0
 27 17  1  0  0  0
  3 10  1  0  0  0
  3 11  1  0  0  0
M  CHG 1  12   1
M  CHG 1  13  -1
M  END
>  <minimizedAffinity>
-7.98536

>  <minimizedRMSD>
0.95553

$$$$
CSC026665342 58030277 CSSS00026665342 MCULE-6970525456 MolPort-009-093-140 PubChem-47067596 Z758731878 ZINC000058030277 ZINC58030277


 25 26  0  0  0  0  0  0  0  0999 V2000
   17.2959   -9.6706   11.8241 C   0  0  0  0  0  0  0  0  0  0  0  0
   16.4969   -9.0228   12.5533 O   0  0  0  0  0  0  0  0  0  0  0  0
   18.1729  -10.6320   12.4226 N   0  0  0  0  0  0  0  0  0  0  0  0
   18.7741  -11.1490   11.8390 H   0  0  0  0  0  0  0  0  0  0  0  0
   20.9381   -7.0226    5.9562 C   0  0  0  0  0  0  0  0  0  0  0  0
   19.7508   -7.7069    6.5306 C   0  0  0  0  0  0  0  0  0  0  0  0
   18.7121   -8.1260    5.6915 C   0  0  0  0  0  0  0  0  0  0  0  0
   17.5922   -8.7707    6.2274 C   0  0  0  0  0  0  0  0  0  0  0  0
   17.5106   -8.9967    7.6043 C   0  0  0  0  0  0  0  0  0  0  0  0
   16.4273   -9.6214    8.1326 N   0  0  0  0  0  0  0  0  0  0  0  0
   16.3079   -9.8611    9.4675 C   0  0  0  0  0  0  0  0  0  0  0  0
   15.0734  -10.5543    9.9368 C   0  0  0  0  0  0  0  0  0  0  0  0
   17.3376   -9.4535   10.3553 C   0  0  0  0  0  0  0  0  0  0  0  0
   18.4590   -8.8074    9.8156 C   0  0  0  0  0  0  0  0  0  0  0  0
   18.5559   -8.5747    8.4469 C   0  0  0  0  0  0  0  0  0  0  0  0
   19.6734   -7.9310    7.9091 C   0  0  0  0  0  0  0  0  0  0  0  0
   18.2135  -10.8774   13.8566 C   0  0  0  0  0  0  0  0  0  0  0  0
   18.9113   -9.7298   14.5601 C   0  0  0  0  0  0  0  0  0  0  0  0
   18.4297   -9.6492   15.9943 C   0  0  0  0  0  0  0  0  0  0  0  0
   16.7969   -8.9434   16.0500 S   0  0  0  0  0  0  0  0  0  0  0  0
   16.4314   -8.4828   17.6737 N   0  0  0  0  0  0  0  0  0  0  0  0
   16.7376   -7.7313   15.1638 O   0  0  0  0  0  0  0  0  0  0  0  0
   15.7903   -9.9561   15.5818 O   0  0  0  0  0  0  0  0  0  0  0  0
   17.1135   -7.7952   17.9938 H   0  0  0  0  0  0  0  0  0  0  0  0
   16.4683   -9.3046   18.2768 H   0  0  0  0  0  0  0  0  0  0  0  0
  5  6  1  0  0  0
  6  7  2  0  0  0
  7  8  1  0  0  0
  8  9  2  0  0  0
  9 10  1  0  0  0
 10 11  2  0  0  0
 11 12  1  0  0  0
 11 13  1  0  0  0
 13 14  2  0  0  0
 13  1  1  0  0  0
 14 15  1  0  0  0
 15 16  2  0  0  0
 15  9  1  0  0  0
 16  6  1  0  0  0
  1  2  2  0  0  0
  1  3  1  0  0  0
  3 17  1  0  0  0
 17 18  1  0  0  0
 18 19  1  0  0  0
 19 20  1  0  0  0
 20 21  1  0  0  0
 20 22  2  0  0  0
 20 23  2  0  0  0
  3  4  1  0  0  0
 21 24  1  0  0  0
 21 25  1  0  0  0
M  END
>  <minimizedAffinity>
-7.97983

>  <minimizedRMSD>
1.22114

$$$$
CSC027211281 17526689 CSSS00027211281 MCULE-3082167392 MolPort-009-416-229 PubChem-135887696 Z185291388 ZINC000017526689 ZINC17526689


 31 34  0  0  0  0  0  0  0  0999 V2000
   16.8938  -10.2581   13.1483 N   0  0  0  0  0  0  0  0  0  0  0  0
   17.7225  -10.3039   14.3172 C   0  0  0  0  0  0  0  0  0  0  0  0
   18.9275   -9.9395   14.2794 O   0  0  0  0  0  0  0  0  0  0  0  0
   15.9643  -10.5649   13.2537 H   0  0  0  0  0  0  0  0  0  0  0  0
   18.3985   -8.5255    8.1508 N   0  0  0  0  0  0  0  0  0  0  0  0
   19.5667   -7.9453    8.4124 N   0  0  0  0  0  0  0  0  0  0  0  0
   19.8275   -8.0520    9.7441 C   0  0  0  0  0  0  0  0  0  0  0  0
   18.7643   -8.7292   10.3113 C   0  0  0  0  0  0  0  0  0  0  0  0
   18.4897   -9.1184   11.6154 C   0  0  0  0  0  0  0  0  0  0  0  0
   17.2794   -9.8115   11.8415 C   0  0  0  0  0  0  0  0  0  0  0  0
   16.4155  -10.0735   10.7501 C   0  0  0  0  0  0  0  0  0  0  0  0
   16.7373   -9.6661    9.4847 N   0  0  0  0  0  0  0  0  0  0  0  0
   17.9050   -9.0037    9.2976 C   0  0  0  0  0  0  0  0  0  0  0  0
   18.8353   -8.4982    5.7495 C   0  0  0  0  0  0  0  0  0  0  0  0
   17.7806   -8.6134    6.8336 C   0  0  0  0  0  0  0  0  0  0  0  0
   16.7458   -7.5175    6.6640 C   0  0  0  0  0  0  0  0  0  0  0  0
   17.1393  -10.7669   15.6087 C   0  0  0  0  0  0  0  0  0  0  0  0
   15.9033   -9.9565   15.9632 C   0  0  0  0  0  0  0  0  0  0  0  0
   16.2846   -8.5263   16.3075 C   0  0  0  0  0  0  0  0  0  0  0  0
   15.4191   -8.0123   17.4046 C   0  0  0  0  0  0  0  0  0  0  0  0
   14.1551   -7.5980   17.1261 N   0  0  0  0  0  0  0  0  0  0  0  0
   13.3474   -7.1174   18.1056 C   0  0  0  0  0  0  0  0  0  0  0  0
   12.0490   -6.6985   17.8018 C   0  0  0  0  0  0  0  0  0  0  0  0
   11.2193   -6.2041   18.8132 C   0  0  0  0  0  0  0  0  0  0  0  0
   11.6851   -6.1269   20.1298 C   0  0  0  0  0  0  0  0  0  0  0  0
   12.9830   -6.5438   20.4411 C   0  0  0  0  0  0  0  0  0  0  0  0
   13.8202   -7.0406   19.4320 C   0  0  0  0  0  0  0  0  0  0  0  0
   15.1283   -7.4691   19.6937 C   0  0  0  0  0  0  0  0  0  0  0  0
   15.6029   -7.4210   20.8603 O   0  0  0  0  0  0  0  0  0  0  0  0
   15.8960   -7.9422   18.6771 N   0  0  0  0  0  0  0  0  0  0  0  0
   16.8153   -8.2401   18.8650 H   0  0  0  0  0  0  0  0  0  0  0  0
 14 15  1  0  0  0
 15 16  1  0  0  0
 15  5  1  0  0  0
  5  6  1  0  0  0
  6  7  2  0  0  0
  7  8  1  0  0  0
  8  9  2  0  0  0
  9 10  1  0  0  0
 10  1  1  0  0  0
 10 11  2  0  0  0
  1  2  1  0  0  0
  2  3  2  0  0  0
  2 17  1  0  0  0
 17 18  1  0  0  0
 18 19  1  0  0  0
 19 20  1  0  0  0
 20 21  2  0  0  0
 21 22  1  0  0  0
 22 23  2  0  0  0
 23 24  1  0  0  0
 24 25  2  0  0  0
 25 26  1  0  0  0
 26 27  2  0  0  0
 27 28  1  0  0  0
 27 22  1  0  0  0
 28 29  2  0  0  0
 28 30  1  0  0  0
 30 20  1  0  0  0
 11 12  1  0  0  0
 12 13  2  0  0  0
 13  5  1  0  0  0
 13  8  1  0  0  0
  1  4  1  0  0  0
 30 31  1  0  0  0
M  END
>  <minimizedAffinity>
-7.96464

>  <minimizedRMSD>
1.75641

$$$$
CSC027432189 32770459 CSSS00027432189 MCULE-5286694798 MolPort-009-264-020 PubChem-42886111 Z319535168 ZINC000032770459 ZINC32770459


 28 30  0  0  0  0  0  0  0  0999 V2000
   16.5975   -9.2113   12.9377 N   0  0  0  0  0  0  0  0  0  0  0  0
   16.7388   -8.2568   12.7423 H   0  0  0  0  0  0  0  0  0  0  0  0
   16.7820   -9.4676   16.6562 C   0  0  0  0  0  0  0  0  0  0  0  0
   17.5664  -10.6160   16.8071 C   0  0  0  0  0  0  0  0  0  0  0  0
   18.0347  -11.3055   15.6854 C   0  0  0  0  0  0  0  0  0  0  0  0
   17.7197  -10.8489   14.4033 C   0  0  0  0  0  0  0  0  0  0  0  0
   16.9340   -9.6991   14.2381 C   0  0  0  0  0  0  0  0  0  0  0  0
   16.4693   -9.0148   15.3653 C   0  0  0  0  0  0  0  0  0  0  0  0
   15.2038   -7.8926   17.9214 C   0  0  0  0  0  0  0  0  0  0  0  0
   14.5104   -7.6080   16.9094 O   0  0  0  0  0  0  0  0  0  0  0  0
   16.3198   -8.7884   17.8316 N   0  0  0  0  0  0  0  0  0  0  0  0
   16.8206   -8.9543   18.6629 H   0  0  0  0  0  0  0  0  0  0  0  0
   14.8620   -7.2781   19.2328 C   0  0  0  0  0  0  0  0  0  0  0  0
   13.2482   -7.0024   20.7108 C   0  0  0  0  0  0  0  0  0  0  0  0
   13.7395   -7.9073   19.7711 O   0  0  0  0  0  0  0  0  0  0  0  0
   16.0552  -10.0625   11.8896 C   0  0  0  0  0  0  0  0  0  0  0  0
   16.6809   -9.7124   10.5867 C   0  0  0  0  0  0  0  0  0  0  0  0
   16.1600  -10.2273    9.4033 C   0  0  0  0  0  0  0  0  0  0  0  0
   16.7506   -9.8631    8.1942 C   0  0  0  0  0  0  0  0  0  0  0  0
   16.2823  -10.3320    7.1206 O   0  0  0  0  0  0  0  0  0  0  0  0
   17.8206   -9.0086    8.1819 N   0  0  0  0  0  0  0  0  0  0  0  0
   18.3986   -8.6522    6.9960 C   0  0  0  0  0  0  0  0  0  0  0  0
   19.4881   -7.7803    6.9665 C   0  0  0  0  0  0  0  0  0  0  0  0
   20.1081   -7.4002    5.6709 C   0  0  0  0  0  0  0  0  0  0  0  0
   19.9887   -7.2689    8.1620 C   0  0  0  0  0  0  0  0  0  0  0  0
   19.3987   -7.6328    9.3710 C   0  0  0  0  0  0  0  0  0  0  0  0
   18.3100   -8.5083    9.3686 C   0  0  0  0  0  0  0  0  0  0  0  0
   17.7367   -8.8610   10.5482 N   0  0  0  0  0  0  0  0  0  0  0  0
 14 15  1  0  0  0
 15 13  1  0  0  0
 13  9  1  0  0  0
  9 10  2  0  0  0
  9 11  1  0  0  0
 11  3  1  0  0  0
  3  4  2  0  0  0
  4  5  1  0  0  0
  5  6  2  0  0  0
  6  7  1  0  0  0
  7  1  1  0  0  0
  7  8  2  0  0  0
  1 16  1  0  0  0
 16 17  1  0  0  0
 17 18  2  0  0  0
 18 19  1  0  0  0
 19 20  2  0  0  0
 19 21  1  0  0  0
 21 22  1  0  0  0
 22 23  2  0  0  0
 23 24  1  0  0  0
 23 25  1  0  0  0
 25 26  2  0  0  0
 26 27  1  0  0  0
 27 28  2  0  0  0
 27 21  1  0  0  0
 28 17  1  0  0  0
  8  3  1  0  0  0
 11 12  1  0  0  0
  1  2  1  0  0  0
M  END
>  <minimizedAffinity>
-7.93528

>  <minimizedRMSD>
0.95754

$$$$
79473387 CSSS00132615994 LN00404091 MCULE-2015743866 MolPort-023-293-710 PubChem-71700629 ZINC000079473387 ZINC79473387


 31 34  0  0  0  0  0  0  0  0999 V2000
   16.7508   -8.9355   16.1645 C   0  0  0  0  0  0  0  0  0  0  0  0
   14.8720   -7.5330   16.5523 O   0  0  0  0  0  0  0  0  0  0  0  0
   15.8328   -8.1721   17.0572 C   0  0  0  0  0  0  0  0  0  0  0  0
   16.0453   -8.2002   18.4748 N   0  0  0  0  0  0  0  0  0  0  0  0
   16.8106   -8.7294   18.7964 H   0  0  0  0  0  0  0  0  0  0  0  0
   15.2572   -7.5363   19.4720 C   0  0  0  0  0  0  0  0  0  0  0  0
   15.8490   -7.2231   20.6997 C   0  0  0  0  0  0  0  0  0  0  0  0
   15.1129   -6.5753   21.6949 C   0  0  0  0  0  0  0  0  0  0  0  0
   13.7771   -6.2354   21.4673 C   0  0  0  0  0  0  0  0  0  0  0  0
   13.1682   -6.5413   20.2425 C   0  0  0  0  0  0  0  0  0  0  0  0
   13.9157   -7.1921   19.2499 C   0  0  0  0  0  0  0  0  0  0  0  0
   11.7978   -6.1897   20.0092 N   0  0  0  0  0  0  0  0  0  0  0  0
   10.9480   -6.7440   19.1256 C   0  0  0  0  0  0  0  0  0  0  0  0
    9.7578   -6.1184   19.2250 N   0  0  0  0  0  0  0  0  0  0  0  0
    9.9052   -5.1961   20.1661 N   0  0  0  0  0  0  0  0  0  0  0  0
   11.1382   -5.2368   20.6422 N   0  0  0  0  0  0  0  0  0  0  0  0
   16.0191  -10.0864   15.4843 C   0  0  0  0  0  0  0  0  0  0  0  0
   15.5763   -9.7168   14.0759 C   0  0  0  0  0  0  0  0  0  0  0  0
   16.7511   -9.2018   13.2671 C   0  0  0  0  0  0  0  0  0  0  0  0
   17.2484  -10.2999   12.3434 C   0  0  0  0  0  0  0  0  0  0  0  0
   17.2834   -9.8284   10.9638 N   0  0  0  0  0  0  0  0  0  0  0  0
   16.2181  -10.1149   10.1669 C   0  0  0  0  0  0  0  0  0  0  0  0
   16.1841   -9.6898    8.8775 N   0  0  0  0  0  0  0  0  0  0  0  0
   17.2057   -8.9671    8.3552 C   0  0  0  0  0  0  0  0  0  0  0  0
   17.1539   -8.5389    7.0255 C   0  0  0  0  0  0  0  0  0  0  0  0
   18.2064   -7.7901    6.4905 C   0  0  0  0  0  0  0  0  0  0  0  0
   19.3123   -7.4666    7.2831 C   0  0  0  0  0  0  0  0  0  0  0  0
   19.3700   -7.8914    8.6138 C   0  0  0  0  0  0  0  0  0  0  0  0
   18.3186   -8.6443    9.1568 C   0  0  0  0  0  0  0  0  0  0  0  0
   18.3333   -9.0905   10.4858 C   0  0  0  0  0  0  0  0  0  0  0  0
   19.3089   -8.8090   11.2372 O   0  0  0  0  0  0  0  0  0  0  0  0
  2  3  2  0  0  0
  3  1  1  0  0  0
  3  4  1  0  0  0
  1 17  1  0  0  0
 17 18  1  0  0  0
 18 19  1  0  0  0
 19 20  1  0  0  0
 20 21  1  0  0  0
 21 22  1  0  0  0
 22 23  2  0  0  0
 23 24  1  0  0  0
 24 25  2  0  0  0
 25 26  1  0  0  0
 26 27  2  0  0  0
 27 28  1  0  0  0
 28 29  2  0  0  0
 29 30  1  0  0  0
 29 24  1  0  0  0
 30 31  2  0  0  0
 30 21  1  0  0  0
  4  6  1  0  0  0
  6  7  2  0  0  0
  7  8  1  0  0  0
  8  9  2  0  0  0
  9 10  1  0  0  0
 10 11  2  0  0  0
 10 12  1  0  0  0
 11  6  1  0  0  0
 12 13  1  0  0  0
 13 14  2  0  0  0
 14 15  1  0  0  0
 15 16  2  0  0  0
 16 12  1  0  0  0
  4  5  1  0  0  0
M  END
>  <minimizedAffinity>
-7.91497

>  <minimizedRMSD>
1.81360

$$$$
21528338 CSSS00105886603 LN00426062 MCULE-4552572772 MolPort-015-424-384 PubChem-29571756 ZINC000021528338 ZINC21528338


 29 32  0  0  0  0  0  0  0  0999 V2000
   18.0640  -10.4123   12.9392 C   0  0  0  0  0  0  0  0  0  0  0  0
   18.7489  -11.4639   13.0627 O   0  0  0  0  0  0  0  0  0  0  0  0
   17.8174   -9.5935   14.0846 N   0  0  0  0  0  0  0  0  0  0  0  0
   17.2771   -8.7773   13.9795 H   0  0  0  0  0  0  0  0  0  0  0  0
   14.2512  -10.4946    9.9963 C   0  0  0  0  0  0  0  0  0  0  0  0
   15.6241  -10.0549   10.1933 N   0  0  0  0  0  0  0  0  0  0  0  0
   16.2280  -10.3664   11.3410 N   0  0  0  0  0  0  0  0  0  0  0  0
   17.5085  -10.0039   11.6250 C   0  0  0  0  0  0  0  0  0  0  0  0
   18.2292   -9.2646   10.6605 C   0  0  0  0  0  0  0  0  0  0  0  0
   19.5547   -8.8484   10.8684 C   0  0  0  0  0  0  0  0  0  0  0  0
   20.2371   -8.1185    9.8927 C   0  0  0  0  0  0  0  0  0  0  0  0
   19.6032   -7.7938    8.6931 C   0  0  0  0  0  0  0  0  0  0  0  0
   18.2865   -8.1987    8.4683 C   0  0  0  0  0  0  0  0  0  0  0  0
   17.5922   -8.9325    9.4429 C   0  0  0  0  0  0  0  0  0  0  0  0
   16.2713   -9.3431    9.2265 C   0  0  0  0  0  0  0  0  0  0  0  0
   15.6841   -9.0564    8.1450 O   0  0  0  0  0  0  0  0  0  0  0  0
   18.3393   -9.9277   15.4005 C   0  0  0  0  0  0  0  0  0  0  0  0
   17.6721   -9.0649   16.4605 C   0  0  0  0  0  0  0  0  0  0  0  0
   16.2434   -8.7096   16.0684 C   0  0  0  0  0  0  0  0  0  0  0  0
   15.4876   -8.1590   17.2313 C   0  0  0  0  0  0  0  0  0  0  0  0
   14.2834   -7.5458   17.0917 N   0  0  0  0  0  0  0  0  0  0  0  0
   13.9782   -7.2220   18.3558 C   0  0  0  0  0  0  0  0  0  0  0  0
   12.8393   -6.5639   18.8134 C   0  0  0  0  0  0  0  0  0  0  0  0
   12.7388   -6.3327   20.1980 C   0  0  0  0  0  0  0  0  0  0  0  0
   13.7630   -6.7591   21.0732 C   0  0  0  0  0  0  0  0  0  0  0  0
   14.9000   -7.4218   20.5742 C   0  0  0  0  0  0  0  0  0  0  0  0
   14.9652   -7.6329   19.1992 C   0  0  0  0  0  0  0  0  0  0  0  0
   15.9431   -8.2367   18.5097 N   0  0  0  0  0  0  0  0  0  0  0  0
   16.7789   -8.6352   18.8441 H   0  0  0  0  0  0  0  0  0  0  0  0
  5  6  1  0  0  0
  6  7  1  0  0  0
  7  8  2  0  0  0
  8  1  1  0  0  0
  8  9  1  0  0  0
  1  2  2  0  0  0
  1  3  1  0  0  0
  3 17  1  0  0  0
 17 18  1  0  0  0
 18 19  1  0  0  0
 19 20  1  0  0  0
 20 21  2  0  0  0
 21 22  1  0  0  0
 22 23  2  0  0  0
 23 24  1  0  0  0
 24 25  2  0  0  0
 25 26  1  0  0  0
 26 27  2  0  0  0
 27 28  1  0  0  0
 27 22  1  0  0  0
 28 20  1  0  0  0
  9 10  2  0  0  0
 10 11  1  0  0  0
 11 12  2  0  0  0
 12 13  1  0  0  0
 13 14  2  0  0  0
 14 15  1  0  0  0
 14  9  1  0  0  0
 15 16  2  0  0  0
 15  6  1  0  0  0
  3  4  1  0  0  0
 28 29  1  0  0  0
M  END
>  <minimizedAffinity>
-7.90549

>  <minimizedRMSD>
1.77377

$$$$
CSC027269951 CSSS00027269951 MCULE-2074387196 MolPort-044-512-258 PubChem-126798015 Z2089392692


 29 32  0  0  0  0  0  0  0  0999 V2000
   17.1575  -10.0153   14.6863 N   0  0  0  0  0  0  0  0  0  0  0  0
   16.1699   -9.1691   13.9988 C   0  0  0  0  0  0  0  0  0  0  0  0
   15.6882   -9.8656   12.7302 C   0  0  0  0  0  0  0  0  0  0  0  0
   16.8447  -10.1905   11.8993 N   0  0  0  0  0  0  0  0  0  0  0  0
   17.9354  -10.9193   12.5437 C   0  0  0  0  0  0  0  0  0  0  0  0
   18.3318  -10.1929   13.8273 C   0  0  0  0  0  0  0  0  0  0  0  0
   16.9486   -9.7762   10.5206 C   0  0  0  0  0  0  0  0  0  0  0  0
   18.0182   -9.0130   10.0265 C   0  0  0  0  0  0  0  0  0  0  0  0
   19.1605   -8.4807   10.6073 C   0  0  0  0  0  0  0  0  0  0  0  0
   19.8481   -7.8238    9.6352 N   0  0  0  0  0  0  0  0  0  0  0  0
   19.1811   -7.9299    8.4935 N   0  0  0  0  0  0  0  0  0  0  0  0
   19.6125   -7.3521    7.2328 C   0  0  0  0  0  0  0  0  0  0  0  0
   18.0744   -8.6455    8.7154 C   0  0  0  0  0  0  0  0  0  0  0  0
   17.1210   -8.9832    7.8128 N   0  0  0  0  0  0  0  0  0  0  0  0
   16.0552   -9.7255    8.2355 C   0  0  0  0  0  0  0  0  0  0  0  0
   15.9511  -10.1315    9.5845 C   0  0  0  0  0  0  0  0  0  0  0  0
   18.9636   -8.7221   15.8643 C   0  0  0  0  0  0  0  0  0  0  0  0
   17.5981   -9.4081   15.9536 C   0  0  0  0  0  0  0  0  0  0  0  0
   16.5643   -8.4875   16.5374 C   0  0  0  0  0  0  0  0  0  0  0  0
   16.0580   -7.5704   15.8350 O   0  0  0  0  0  0  0  0  0  0  0  0
   16.1500   -8.6845   17.8966 N   0  0  0  0  0  0  0  0  0  0  0  0
   16.5698   -9.4315   18.3813 H   0  0  0  0  0  0  0  0  0  0  0  0
   15.1884   -7.9074   18.6236 C   0  0  0  0  0  0  0  0  0  0  0  0
   15.2388   -7.9113   20.0222 C   0  0  0  0  0  0  0  0  0  0  0  0
   14.3194   -7.1651   20.7658 C   0  0  0  0  0  0  0  0  0  0  0  0
   13.3425   -6.4084   20.1131 C   0  0  0  0  0  0  0  0  0  0  0  0
   13.2854   -6.3981   18.7170 C   0  0  0  0  0  0  0  0  0  0  0  0
   14.2050   -7.1446   17.9747 C   0  0  0  0  0  0  0  0  0  0  0  0
   12.3393   -5.6650   18.0830 F   0  0  0  0  0  0  0  0  0  0  0  0
 17 18  1  0  0  0
 18 19  1  0  0  0
 19 20  2  0  0  0
 19 21  1  0  0  0
 21 23  1  0  0  0
 23 24  2  0  0  0
 24 25  1  0  0  0
 25 26  2  0  0  0
 26 27  1  0  0  0
 27 28  2  0  0  0
 27 29  1  0  0  0
 18  1  1  0  0  0
  1  2  1  0  0  0
  2  3  1  0  0  0
  3  4  1  0  0  0
  4  5  1  0  0  0
  5  6  1  0  0  0
  4  7  1  0  0  0
  7  8  2  0  0  0
  8  9  1  0  0  0
  9 10  2  0  0  0
 10 11  1  0  0  0
 11 12  1  0  0  0
 11 13  1  0  0  0
 13 14  2  0  0  0
 14 15  1  0  0  0
 15 16  2  0  0  0
 28 23  1  0  0  0
  6  1  1  0  0  0
 16  7  1  0  0  0
 13  8  1  0  0  0
 21 22  1  0  0  0
M  END
>  <minimizedAffinity>
-7.88516

>  <minimizedRMSD>
2.01454

$$$$
CSSS20521991174


 38 42  0  0  0  0  0  0  0  0999 V2000
   15.7188   -8.7240   16.4902 C   0  0  0  0  0  0  0  0  0  0  0  0
   16.3944   -8.1152   15.2784 C   0  0  0  0  0  0  0  0  0  0  0  0
   17.2063   -9.3841   15.0859 C   0  0  0  0  0  0  0  0  0  0  0  0
   16.5374   -9.9887   16.3046 C   0  0  0  0  0  0  0  0  0  0  0  0
   16.7575  -10.0823   13.8899 N   0  0  0  0  0  0  0  0  0  0  0  0
   17.6485  -10.4334   12.8293 C   0  0  0  0  0  0  0  0  0  0  0  0
   18.8830  -10.2016   12.9262 O   0  0  0  0  0  0  0  0  0  0  0  0
   15.8059  -10.3212   13.8089 H   0  0  0  0  0  0  0  0  0  0  0  0
   17.1141  -11.0607   11.5864 C   0  0  0  0  0  0  0  0  0  0  0  0
   16.3727  -10.0405   10.7288 C   0  0  0  0  0  0  0  0  0  0  0  0
   17.2806   -9.3921    9.7876 N   0  0  0  0  0  0  0  0  0  0  0  0
   18.3382   -8.7403   10.2786 N   0  0  0  0  0  0  0  0  0  0  0  0
   19.2467   -8.1265    9.4784 C   0  0  0  0  0  0  0  0  0  0  0  0
   20.2270   -7.5270    9.9964 O   0  0  0  0  0  0  0  0  0  0  0  0
   19.0805   -8.1708    8.0904 C   0  0  0  0  0  0  0  0  0  0  0  0
   17.9671   -8.8552    7.5605 C   0  0  0  0  0  0  0  0  0  0  0  0
   17.7853   -8.9100    6.1701 C   0  0  0  0  0  0  0  0  0  0  0  0
   18.7004   -8.2903    5.3150 C   0  0  0  0  0  0  0  0  0  0  0  0
   19.8031   -7.6126    5.8411 C   0  0  0  0  0  0  0  0  0  0  0  0
   19.9941   -7.5523    7.2241 C   0  0  0  0  0  0  0  0  0  0  0  0
   17.0641   -9.4697    8.4394 C   0  0  0  0  0  0  0  0  0  0  0  0
   16.0600  -10.0900    7.9889 O   0  0  0  0  0  0  0  0  0  0  0  0
   18.4630   -8.7039   11.2545 H   0  0  0  0  0  0  0  0  0  0  0  0
   16.1599   -7.9904   17.7481 C   0  0  0  0  0  0  0  0  0  0  0  0
   13.7661   -7.2703   18.1594 C   0  0  0  0  0  0  0  0  0  0  0  0
   13.6247   -6.9377   16.9526 O   0  0  0  0  0  0  0  0  0  0  0  0
   15.0217   -7.7717   18.6283 N   0  0  0  0  0  0  0  0  0  0  0  0
   15.1197   -7.9774   19.5861 H   0  0  0  0  0  0  0  0  0  0  0  0
   15.1320   -7.4017   23.7351 C   0  0  0  0  0  0  0  0  0  0  0  0
   14.4458   -6.5480   22.7817 N   0  0  0  0  0  0  0  0  0  0  0  0
   14.3770   -5.2004   22.8169 C   0  0  0  0  0  0  0  0  0  0  0  0
   13.6886   -4.7024   21.7594 N   0  0  0  0  0  0  0  0  0  0  0  0
   13.3381   -5.7937   21.0506 C   0  0  0  0  0  0  0  0  0  0  0  0
   13.7770   -6.9229   21.6841 C   0  0  0  0  0  0  0  0  0  0  0  0
   13.6548   -8.3066   21.1276 C   0  0  0  0  0  0  0  0  0  0  0  0
   12.5366   -8.3529   20.0740 C   0  0  0  0  0  0  0  0  0  0  0  0
   12.5948   -7.1676   19.0874 C   0  0  0  0  0  0  0  0  0  0  0  0
   12.5237   -5.7990   19.7935 C   0  0  0  0  0  0  0  0  0  0  0  0
 29 30  1  0  0  0
 30 31  1  0  0  0
 31 32  2  0  0  0
 32 33  1  0  0  0
 33 34  2  0  0  0
 34 35  1  0  0  0
 35 36  1  0  0  0
 36 37  1  0  0  0
 37 38  1  0  0  0
 37 25  1  0  0  0
 25 26  2  0  0  0
 25 27  1  0  0  0
 27 24  1  0  0  0
  1 24  1  0  0  0
  1  2  1  0  0  0
  2  3  1  0  0  0
  3  4  1  0  0  0
  3  5  1  0  0  0
  5  6  1  0  0  0
  6  7  2  0  0  0
  6  9  1  0  0  0
  9 10  1  0  0  0
 10 11  1  0  0  0
 11 12  1  0  0  0
 12 13  1  0  0  0
 13 14  2  0  0  0
 13 15  1  0  0  0
 15 16  2  0  0  0
 16 17  1  0  0  0
 17 18  2  0  0  0
 18 19  1  0  0  0
 19 20  2  0  0  0
 16 21  1  0  0  0
 21 22  2  0  0  0
 34 30  1  0  0  0
  4  1  1  0  0  0
 21 11  1  0  0  0
 38 33  1  0  0  0
 20 15  1  0  0  0
 27 28  1  0  0  0
  5  8  1  0  0  0
 12 23  1  0  0  0
M  END
>  <minimizedAffinity>
-7.88476

>  <minimizedRMSD>
2.71147

$$$$
CSC025977039 CSSS00025977039 MCULE-6797662108 MolPort-005-329-270 PubChem-16271323 Z17802258


 31 33  0  0  0  0  0  0  0  0999 V2000
   17.9914  -10.2739   13.4334 O   0  0  0  0  0  0  0  0  0  0  0  0
   15.9597   -9.0016   13.3092 C   0  0  0  0  0  0  0  0  0  0  0  0
   16.8011  -10.0921   12.6746 C   0  0  0  0  0  0  0  0  0  0  0  0
   17.1304   -9.7267   11.2631 C   0  0  0  0  0  0  0  0  0  0  0  0
   18.2078   -8.9350   10.9897 N   0  0  0  0  0  0  0  0  0  0  0  0
   18.4861   -8.6318    9.7001 C   0  0  0  0  0  0  0  0  0  0  0  0
   17.7204   -9.0962    8.6481 C   0  0  0  0  0  0  0  0  0  0  0  0
   18.1911   -8.6601    7.3970 C   0  0  0  0  0  0  0  0  0  0  0  0
   17.5625   -9.0063    6.0877 C   0  0  0  0  0  0  0  0  0  0  0  0
   19.3284   -7.8558    7.5126 C   0  0  0  0  0  0  0  0  0  0  0  0
   20.0741   -7.2331    6.3839 C   0  0  0  0  0  0  0  0  0  0  0  0
   19.7512   -7.6830    9.1415 S   0  0  0  0  0  0  0  0  0  0  0  0
   16.6196   -9.9087    8.9426 C   0  0  0  0  0  0  0  0  0  0  0  0
   15.8800  -10.3667    8.0321 O   0  0  0  0  0  0  0  0  0  0  0  0
   16.3526  -10.2048   10.2462 N   0  0  0  0  0  0  0  0  0  0  0  0
   15.5806  -10.7770   10.4603 H   0  0  0  0  0  0  0  0  0  0  0  0
   18.2000  -11.3880   14.2503 C   0  0  0  0  0  0  0  0  0  0  0  0
   18.0951  -12.5568   13.7904 O   0  0  0  0  0  0  0  0  0  0  0  0
   18.5092  -11.1914   15.6927 C   0  0  0  0  0  0  0  0  0  0  0  0
   16.9871  -10.8128   16.6098 S   0  0  0  0  0  0  0  0  0  0  0  0
   17.2772   -9.0203   16.5233 C   0  0  0  0  0  0  0  0  0  0  0  0
   16.0988   -8.2845   17.0560 C   0  0  0  0  0  0  0  0  0  0  0  0
   15.3059   -7.7265   16.2520 O   0  0  0  0  0  0  0  0  0  0  0  0
   15.8909   -8.2071   18.4706 N   0  0  0  0  0  0  0  0  0  0  0  0
   16.5509   -8.6489   19.0524 H   0  0  0  0  0  0  0  0  0  0  0  0
   14.7965   -7.5363   19.1026 C   0  0  0  0  0  0  0  0  0  0  0  0
   13.8569   -6.8287   18.4470 N   0  0  0  0  0  0  0  0  0  0  0  0
   13.0455   -6.3818   19.3564 O   0  0  0  0  0  0  0  0  0  0  0  0
   13.4243   -6.7707   20.5499 C   0  0  0  0  0  0  0  0  0  0  0  0
   12.7084   -6.4269   21.8063 C   0  0  0  0  0  0  0  0  0  0  0  0
   14.5713   -7.5364   20.4659 C   0  0  0  0  0  0  0  0  0  0  0  0
  3  2  1  0  0  0
  3  1  1  0  0  0
  3  4  1  0  0  0
  1 17  1  0  0  0
 17 18  2  0  0  0
 17 19  1  0  0  0
 19 20  1  0  0  0
 20 21  1  0  0  0
 21 22  1  0  0  0
 22 23  2  0  0  0
 22 24  1  0  0  0
 24 26  1  0  0  0
 26 27  2  0  0  0
 27 28  1  0  0  0
 28 29  1  0  0  0
 29 30  1  0  0  0
 29 31  2  0  0  0
 31 26  1  0  0  0
  4  5  2  0  0  0
  5  6  1  0  0  0
  6  7  2  0  0  0
  7  8  1  0  0  0
  7 13  1  0  0  0
  8  9  1  0  0  0
  8 10  2  0  0  0
 10 11  1  0  0  0
 10 12  1  0  0  0
 12  6  1  0  0  0
 13 14  2  0  0  0
 13 15  1  0  0  0
 15  4  1  0  0  0
 24 25  1  0  0  0
 15 16  1  0  0  0
M  END
>  <minimizedAffinity>
-7.87377

>  <minimizedRMSD>
1.65765

$$$$
CSC058321563 CSSS00058321563 MCULE-2166429601 MolPort-042-698-413 Z2275056387


 27 30  0  0  0  0  0  0  0  0999 V2000
   16.9568  -10.1572   13.6350 N   0  0  0  0  0  0  0  0  0  0  0  0
   17.0540  -11.5323   14.1511 C   0  0  0  0  0  0  0  0  0  0  0  0
   18.4995  -11.9754   14.3809 C   0  0  0  0  0  0  0  0  0  0  0  0
   19.1683  -11.0269   15.3580 C   0  0  0  0  0  0  0  0  0  0  0  0
   19.1316   -9.6152   14.7923 C   0  0  0  0  0  0  0  0  0  0  0  0
   17.6944   -9.1821   14.4610 C   0  0  0  0  0  0  0  0  0  0  0  0
   16.9162   -8.7959   15.6809 C   0  0  0  0  0  0  0  0  0  0  0  0
   15.7399   -8.1408   15.6252 N   0  0  0  0  0  0  0  0  0  0  0  0
   15.4438   -8.0302   16.9331 C   0  0  0  0  0  0  0  0  0  0  0  0
   14.4015   -7.4688   17.3597 O   0  0  0  0  0  0  0  0  0  0  0  0
   16.3684   -8.5774   17.7393 N   0  0  0  0  0  0  0  0  0  0  0  0
   17.3041   -9.0645   16.9436 N   0  0  0  0  0  0  0  0  0  0  0  0
   16.3521   -8.6091   18.7232 H   0  0  0  0  0  0  0  0  0  0  0  0
   18.1251   -9.5326   17.2194 H   0  0  0  0  0  0  0  0  0  0  0  0
   17.4633  -10.1178   12.2677 C   0  0  0  0  0  0  0  0  0  0  0  0
   16.3074   -9.9686   11.2918 C   0  0  0  0  0  0  0  0  0  0  0  0
   19.8348   -7.3601    6.9834 C   0  0  0  0  0  0  0  0  0  0  0  0
   19.2090   -7.9854    5.9003 C   0  0  0  0  0  0  0  0  0  0  0  0
   18.1440   -8.8652    6.1169 C   0  0  0  0  0  0  0  0  0  0  0  0
   17.7023   -9.1215    7.4181 C   0  0  0  0  0  0  0  0  0  0  0  0
   18.3302   -8.4932    8.5123 C   0  0  0  0  0  0  0  0  0  0  0  0
   19.3980   -7.6121    8.2875 C   0  0  0  0  0  0  0  0  0  0  0  0
   17.8587   -8.7758    9.8021 C   0  0  0  0  0  0  0  0  0  0  0  0
   18.3975   -8.2323   10.8072 O   0  0  0  0  0  0  0  0  0  0  0  0
   16.8126   -9.6422    9.9648 N   0  0  0  0  0  0  0  0  0  0  0  0
   16.2285  -10.2359    8.8880 C   0  0  0  0  0  0  0  0  0  0  0  0
   16.6703   -9.9752    7.6305 N   0  0  0  0  0  0  0  0  0  0  0  0
 17 18  2  0  0  0
 18 19  1  0  0  0
 19 20  2  0  0  0
 20 21  1  0  0  0
 21 22  2  0  0  0
 21 23  1  0  0  0
 23 24  2  0  0  0
 23 25  1  0  0  0
 25 16  1  0  0  0
 16 15  1  0  0  0
 15  1  1  0  0  0
  1  2  1  0  0  0
  2  3  1  0  0  0
  3  4  1  0  0  0
  4  5  1  0  0  0
  5  6  1  0  0  0
  6  7  1  0  0  0
  7  8  2  0  0  0
  8  9  1  0  0  0
  9 10  2  0  0  0
  9 11  1  0  0  0
 11 12  1  0  0  0
 25 26  1  0  0  0
 26 27  2  0  0  0
 22 17  1  0  0  0
 27 20  1  0  0  0
  6  1  1  0  0  0
 12  7  1  0  0  0
 11 13  1  0  0  0
 12 14  1  0  0  0
M  END
>  <minimizedAffinity>
-7.87267

>  <minimizedRMSD>
1.02802

$$$$
CSC026899669 40059708 CSSS00026899669 MCULE-4205690878 MolPort-009-258-048 PubChem-45871409 Z786221994 ZINC000040059708


 30 34  0  0  0  0  0  0  0  0999 V2000
   17.3748  -11.6827   11.8499 O   0  0  0  0  0  0  0  0  0  0  0  0
   17.6368  -10.6168   12.4697 C   0  0  0  0  0  0  0  0  0  0  0  0
   18.3680  -10.6623   13.7117 N   0  0  0  0  0  0  0  0  0  0  0  0
   18.9913  -11.9174   14.1369 C   0  0  0  0  0  0  0  0  0  0  0  0
   18.4107  -12.3927   15.4599 C   0  0  0  0  0  0  0  0  0  0  0  0
   17.9523  -13.0266   14.1684 C   0  0  0  0  0  0  0  0  0  0  0  0
   18.7574   -9.4272   14.3939 C   0  0  0  0  0  0  0  0  0  0  0  0
   17.7185   -9.0054   15.3819 C   0  0  0  0  0  0  0  0  0  0  0  0
   16.6778   -8.1646   14.9759 C   0  0  0  0  0  0  0  0  0  0  0  0
   15.7052   -7.7583   15.8934 C   0  0  0  0  0  0  0  0  0  0  0  0
   15.7661   -8.1865   17.2277 C   0  0  0  0  0  0  0  0  0  0  0  0
   16.8163   -9.0234   17.6313 C   0  0  0  0  0  0  0  0  0  0  0  0
   17.7888   -9.4294   16.7135 C   0  0  0  0  0  0  0  0  0  0  0  0
   14.7405   -7.7597   18.1954 C   0  0  0  0  0  0  0  0  0  0  0  0
   14.9619   -7.9351   19.5975 N   0  0  0  0  0  0  0  0  0  0  0  0
   13.6658   -7.2388   17.7881 O   0  0  0  0  0  0  0  0  0  0  0  0
   15.8042   -8.3460   19.8990 H   0  0  0  0  0  0  0  0  0  0  0  0
   13.9836   -7.5262   20.5913 C   0  0  0  0  0  0  0  0  0  0  0  0
   14.6102   -6.5048   21.5180 C   0  0  0  0  0  0  0  0  0  0  0  0
   14.4660   -7.9438   21.9644 C   0  0  0  0  0  0  0  0  0  0  0  0
   17.2003   -9.3177   11.8685 C   0  0  0  0  0  0  0  0  0  0  0  0
   17.0294   -9.4584   10.4294 N   0  0  0  0  0  0  0  0  0  0  0  0
   17.7487   -8.8876    9.4555 C   0  0  0  0  0  0  0  0  0  0  0  0
   17.2651   -9.3122    8.2553 C   0  0  0  0  0  0  0  0  0  0  0  0
   17.8119   -8.8851    7.0477 C   0  0  0  0  0  0  0  0  0  0  0  0
   18.8942   -7.9867    7.1091 C   0  0  0  0  0  0  0  0  0  0  0  0
   19.3930   -7.5455    8.3560 C   0  0  0  0  0  0  0  0  0  0  0  0
   18.8166   -7.9975    9.5573 C   0  0  0  0  0  0  0  0  0  0  0  0
   16.2354  -10.1597    8.4375 N   0  0  0  0  0  0  0  0  0  0  0  0
   16.1163  -10.2304    9.7913 C   0  0  0  0  0  0  0  0  0  0  0  0
  1  2  2  0  0  0
  2  3  1  0  0  0
  3  4  1  0  0  0
  4  5  1  0  0  0
  5  6  1  0  0  0
  3  7  1  0  0  0
  7  8  1  0  0  0
  8  9  2  0  0  0
  9 10  1  0  0  0
 10 11  2  0  0  0
 11 14  1  0  0  0
 14 15  1  0  0  0
 15 18  1  0  0  0
 18 19  1  0  0  0
 19 20  1  0  0  0
 14 16  2  0  0  0
 11 12  1  0  0  0
 12 13  2  0  0  0
  2 21  1  0  0  0
 21 22  1  0  0  0
 22 23  1  0  0  0
 23 24  1  0  0  0
 24 25  2  0  0  0
 25 26  1  0  0  0
 26 27  2  0  0  0
 27 28  1  0  0  0
 24 29  1  0  0  0
 29 30  2  0  0  0
  6  4  1  0  0  0
 13  8  1  0  0  0
 30 22  1  0  0  0
 20 18  1  0  0  0
 28 23  2  0  0  0
 15 17  1  0  0  0
M  END
>  <minimizedAffinity>
-7.86069

>  <minimizedRMSD>
1.76361

$$$$
CSSS20447605930


 35 37  0  0  0  0  0  0  0  0999 V2000
   17.3444   -9.0672   15.1213 C   0  0  0  0  0  0  0  0  0  0  0  0
   19.4885   -9.3023   15.6306 C   0  0  0  0  0  0  0  0  0  0  0  0
   18.2040   -9.4277   16.1634 O   0  0  0  0  0  0  0  0  0  0  0  0
   16.0131   -8.5991   15.6893 C   0  0  0  0  0  0  0  0  0  0  0  0
   16.1101   -8.4104   17.1303 N   0  0  0  0  0  0  0  0  0  0  0  0
   15.0906   -7.7642   17.8947 C   0  0  0  0  0  0  0  0  0  0  0  0
   14.0365   -7.3547   17.3345 O   0  0  0  0  0  0  0  0  0  0  0  0
   16.9113   -8.7418   17.5967 H   0  0  0  0  0  0  0  0  0  0  0  0
   15.2873   -7.5860   19.3362 C   0  0  0  0  0  0  0  0  0  0  0  0
   14.2638   -7.4423   20.1730 C   0  0  0  0  0  0  0  0  0  0  0  0
   14.4596   -7.2633   21.6157 C   0  0  0  0  0  0  0  0  0  0  0  0
   15.2241   -8.0687   22.4444 C   0  0  0  0  0  0  0  0  0  0  0  0
   15.1076   -7.5106   23.7076 C   0  0  0  0  0  0  0  0  0  0  0  0
   14.2829   -6.4124   23.5464 C   0  0  0  0  0  0  0  0  0  0  0  0
   13.9129   -6.2886   22.2964 O   0  0  0  0  0  0  0  0  0  0  0  0
   13.8685   -5.5002   24.6159 C   0  0  0  0  0  0  0  0  0  0  0  0
   12.8409   -4.7855   24.4622 O   0  0  0  0  0  0  0  0  0  0  0  0
   14.6136   -5.4298   25.7945 O   0  0  0  0  0  0  0  0  0  0  0  0
   14.7428   -4.2216   26.5284 C   0  0  0  0  0  0  0  0  0  0  0  0
   17.1017  -10.2626   14.2175 C   0  0  0  0  0  0  0  0  0  0  0  0
   17.4768   -9.9333   12.8519 N   0  0  0  0  0  0  0  0  0  0  0  0
   16.5233   -9.8897   11.7884 C   0  0  0  0  0  0  0  0  0  0  0  0
   15.3112  -10.1399   12.0355 O   0  0  0  0  0  0  0  0  0  0  0  0
   18.4200   -9.7334   12.6530 H   0  0  0  0  0  0  0  0  0  0  0  0
   16.9303   -9.5544   10.3990 C   0  0  0  0  0  0  0  0  0  0  0  0
   18.1177   -8.8497   10.0610 C   0  0  0  0  0  0  0  0  0  0  0  0
   19.0979   -8.3670   11.0822 C   0  0  0  0  0  0  0  0  0  0  0  0
   18.3587   -8.6143    8.7444 N   0  0  0  0  0  0  0  0  0  0  0  0
   19.3930   -7.9837    8.2215 N   0  0  0  0  0  0  0  0  0  0  0  0
   19.1983   -7.9966    6.8833 C   0  0  0  0  0  0  0  0  0  0  0  0
   20.1446   -7.3836    5.9148 C   0  0  0  0  0  0  0  0  0  0  0  0
   18.0152   -8.6482    6.5311 C   0  0  0  0  0  0  0  0  0  0  0  0
   17.5354   -9.0141    7.7710 C   0  0  0  0  0  0  0  0  0  0  0  0
   16.3948   -9.6878    8.0410 N   0  0  0  0  0  0  0  0  0  0  0  0
   16.0861   -9.9604    9.3399 C   0  0  0  0  0  0  0  0  0  0  0  0
  2  3  1  0  0  0
  3  1  1  0  0  0
  1  4  1  0  0  0
  4  5  1  0  0  0
  5  6  1  0  0  0
  6  7  2  0  0  0
  6  9  1  0  0  0
  9 10  2  0  0  0
 10 11  1  0  0  0
 11 12  2  0  0  0
 12 13  1  0  0  0
 13 14  2  0  0  0
 14 15  1  0  0  0
 14 16  1  0  0  0
 16 17  2  0  0  0
 16 18  1  0  0  0
 18 19  1  0  0  0
  1 20  1  0  0  0
 20 21  1  0  0  0
 21 22  1  0  0  0
 22 23  2  0  0  0
 22 25  1  0  0  0
 25 26  2  0  0  0
 26 27  1  0  0  0
 26 28  1  0  0  0
 28 29  1  0  0  0
 29 30  2  0  0  0
 30 31  1  0  0  0
 30 32  1  0  0  0
 32 33  2  0  0  0
 33 34  1  0  0  0
 34 35  2  0  0  0
 15 11  1  0  0  0
 35 25  1  0  0  0
 33 28  1  0  0  0
  5  8  1  0  0  0
 21 24  1  0  0  0
M  END
>  <minimizedAffinity>
-7.84117

>  <minimizedRMSD>
3.00633

$$$$
CSSS15281442692


 24 26  0  0  0  0  0  0  0  0999 V2000
   18.2913  -11.9018   15.9816 C   0  0  0  0  0  0  0  0  0  0  0  0
   17.8526  -11.1230   14.7894 C   0  0  0  0  0  0  0  0  0  0  0  0
   18.4971  -11.1144   13.5659 C   0  0  0  0  0  0  0  0  0  0  0  0
   17.7056  -10.2473   12.8292 C   0  0  0  0  0  0  0  0  0  0  0  0
   16.6722   -9.7732   13.5522 N   0  0  0  0  0  0  0  0  0  0  0  0
   16.7709  -10.3223   14.7485 N   0  0  0  0  0  0  0  0  0  0  0  0
   17.9550   -9.8911   11.4709 N   0  0  0  0  0  0  0  0  0  0  0  0
   18.6740  -10.3494   10.9787 H   0  0  0  0  0  0  0  0  0  0  0  0
   17.1739   -8.8682   10.7951 C   0  0  0  0  0  0  0  0  0  0  0  0
   17.5755   -8.7926    9.3648 C   0  0  0  0  0  0  0  0  0  0  0  0
   18.6627   -7.9865    8.9793 C   0  0  0  0  0  0  0  0  0  0  0  0
   18.9971   -7.9812    7.6297 C   0  0  0  0  0  0  0  0  0  0  0  0
   18.3083   -8.7247    6.7262 C   0  0  0  0  0  0  0  0  0  0  0  0
   18.8568   -8.5255    5.4816 C   0  0  0  0  0  0  0  0  0  0  0  0
   19.8971   -7.6232    5.7391 C   0  0  0  0  0  0  0  0  0  0  0  0
   19.9495   -7.3230    7.0281 O   0  0  0  0  0  0  0  0  0  0  0  0
   17.2631   -9.5130    7.0800 N   0  0  0  0  0  0  0  0  0  0  0  0
   16.8880   -9.5582    8.3944 C   0  0  0  0  0  0  0  0  0  0  0  0
   15.8575  -10.0386   15.8460 C   0  0  0  0  0  0  0  0  0  0  0  0
   16.0828   -8.6570   16.3557 C   0  0  0  0  0  0  0  0  0  0  0  0
   16.3469   -8.4422   17.7368 N   0  0  0  0  0  0  0  0  0  0  0  0
   16.0754   -7.6833   15.5588 O   0  0  0  0  0  0  0  0  0  0  0  0
   16.3529   -9.2034   18.3611 H   0  0  0  0  0  0  0  0  0  0  0  0
   16.5237   -7.5322   18.0685 H   0  0  0  0  0  0  0  0  0  0  0  0
  1  2  1  0  0  0
  2  3  2  0  0  0
  3  4  1  0  0  0
  4  7  1  0  0  0
  7  9  1  0  0  0
  9 10  1  0  0  0
 10 11  2  0  0  0
 11 12  1  0  0  0
 12 13  2  0  0  0
 13 14  1  0  0  0
 14 15  2  0  0  0
 15 16  1  0  0  0
 13 17  1  0  0  0
 17 18  2  0  0  0
  4  5  2  0  0  0
  5  6  1  0  0  0
  6 19  1  0  0  0
 19 20  1  0  0  0
 20 21  1  0  0  0
 20 22  2  0  0  0
  6  2  1  0  0  0
 18 10  1  0  0  0
 16 12  1  0  0  0
  7  8  1  0  0  0
 21 23  1  0  0  0
 21 24  1  0  0  0
M  END
>  <minimizedAffinity>
-7.83771

>  <minimizedRMSD>
1.40865

$$$$
CSC047920017 75162694 CSSS00047920017 MCULE-8362136842 MolPort-023-206-094 PubChem-71790678 ZINC000075162694 ZINC75162694


 25 27  0  0  0  0  0  0  0  0999 V2000
   17.8564  -10.4988   13.5564 C   0  0  0  0  0  0  0  0  0  0  0  0
   18.4411  -11.6136   13.6432 O   0  0  0  0  0  0  0  0  0  0  0  0
   17.7443   -9.8487   12.2880 N   0  0  0  0  0  0  0  0  0  0  0  0
   17.2825   -8.9808   12.2364 H   0  0  0  0  0  0  0  0  0  0  0  0
   16.2098   -8.6595   17.0628 C   0  0  0  0  0  0  0  0  0  0  0  0
   16.9129   -9.8643   17.1606 C   0  0  0  0  0  0  0  0  0  0  0  0
   17.4502  -10.4651   16.0187 C   0  0  0  0  0  0  0  0  0  0  0  0
   17.2904   -9.8669   14.7609 C   0  0  0  0  0  0  0  0  0  0  0  0
   16.5858   -8.6595   14.6624 C   0  0  0  0  0  0  0  0  0  0  0  0
   16.0492   -8.0598   15.8050 C   0  0  0  0  0  0  0  0  0  0  0  0
   14.0143   -6.8702   19.7208 C   0  0  0  0  0  0  0  0  0  0  0  0
   14.4062   -7.4203   18.3974 C   0  0  0  0  0  0  0  0  0  0  0  0
   13.6183   -7.3025   17.4223 O   0  0  0  0  0  0  0  0  0  0  0  0
   15.6737   -8.0742   18.2574 N   0  0  0  0  0  0  0  0  0  0  0  0
   16.2346   -8.1271   19.0648 H   0  0  0  0  0  0  0  0  0  0  0  0
   18.2907  -10.4288   11.0722 C   0  0  0  0  0  0  0  0  0  0  0  0
   17.5922   -9.8563    9.8880 C   0  0  0  0  0  0  0  0  0  0  0  0
   18.0591   -8.9043    9.0153 C   0  0  0  0  0  0  0  0  0  0  0  0
   19.2953   -8.2639    8.9614 C   0  0  0  0  0  0  0  0  0  0  0  0
   19.4815   -7.3184    7.9400 C   0  0  0  0  0  0  0  0  0  0  0  0
   18.4489   -7.0439    7.0222 C   0  0  0  0  0  0  0  0  0  0  0  0
   17.2258   -7.7223    7.1349 C   0  0  0  0  0  0  0  0  0  0  0  0
   17.0886   -8.6280    8.1350 N   0  0  0  0  0  0  0  0  0  0  0  0
   16.0105   -9.3463    8.3988 N   0  0  0  0  0  0  0  0  0  0  0  0
   16.2857  -10.1137    9.4834 C   0  0  0  0  0  0  0  0  0  0  0  0
 11 12  1  0  0  0
 12 13  2  0  0  0
 12 14  1  0  0  0
 14  5  1  0  0  0
  5  6  2  0  0  0
  6  7  1  0  0  0
  7  8  2  0  0  0
  8  9  1  0  0  0
  8  1  1  0  0  0
  9 10  2  0  0  0
 10  5  1  0  0  0
  1  2  2  0  0  0
  1  3  1  0  0  0
  3 16  1  0  0  0
 16 17  1  0  0  0
 17 18  2  0  0  0
 18 19  1  0  0  0
 19 20  2  0  0  0
 20 21  1  0  0  0
 21 22  2  0  0  0
 22 23  1  0  0  0
 23 24  1  0  0  0
 23 18  1  0  0  0
 24 25  2  0  0  0
 25 17  1  0  0  0
 14 15  1  0  0  0
  3  4  1  0  0  0
M  END
>  <minimizedAffinity>
-7.80874

>  <minimizedRMSD>
0.89793

$$$$
CSSS00160716035 MCULE-3097434393 MolPort-006-817-541


 28 29  0  0  0  0  0  0  0  0999 V2000
   16.2686   -9.1221   13.1023 C   0  0  0  0  0  0  0  0  0  0  0  0
   16.2300   -9.5768   14.5449 C   0  0  0  0  0  0  0  0  0  0  0  0
   16.2714   -8.3800   15.4794 C   0  0  0  0  0  0  0  0  0  0  0  0
   16.2652   -8.8383   16.9250 C   0  0  0  0  0  0  0  0  0  0  0  0
   15.5310   -7.8708   19.1347 N   0  0  0  0  0  0  0  0  0  0  0  0
   15.3490   -7.9796   17.7224 C   0  0  0  0  0  0  0  0  0  0  0  0
   14.4070   -7.3716   17.1477 O   0  0  0  0  0  0  0  0  0  0  0  0
   16.2699   -8.3643   19.5586 H   0  0  0  0  0  0  0  0  0  0  0  0
   14.6611   -7.0550   19.9680 C   0  0  0  0  0  0  0  0  0  0  0  0
   13.5110   -7.8988   20.4872 C   0  0  0  0  0  0  0  0  0  0  0  0
   15.4377   -6.4941   21.1144 C   0  0  0  0  0  0  0  0  0  0  0  0
   16.6548   -6.7991   21.2667 O   0  0  0  0  0  0  0  0  0  0  0  0
   15.1747   -5.6083   23.3952 C   0  0  0  0  0  0  0  0  0  0  0  0
   14.7958   -5.6553   22.0269 O   0  0  0  0  0  0  0  0  0  0  0  0
   17.0270  -10.1428   12.2728 C   0  0  0  0  0  0  0  0  0  0  0  0
   17.1152   -9.7061   10.8799 N   0  0  0  0  0  0  0  0  0  0  0  0
   16.0937   -9.9829   10.0115 C   0  0  0  0  0  0  0  0  0  0  0  0
   14.9640  -10.6712   10.4419 O   0  0  0  0  0  0  0  0  0  0  0  0
   16.1716   -9.5905    8.7143 N   0  0  0  0  0  0  0  0  0  0  0  0
   17.2557   -8.9267    8.2447 C   0  0  0  0  0  0  0  0  0  0  0  0
   17.3102   -8.5322    6.9052 C   0  0  0  0  0  0  0  0  0  0  0  0
   18.4305   -7.8495    6.4207 C   0  0  0  0  0  0  0  0  0  0  0  0
   19.5001   -7.5628    7.2740 C   0  0  0  0  0  0  0  0  0  0  0  0
   19.4520   -7.9561    8.6152 C   0  0  0  0  0  0  0  0  0  0  0  0
   18.3287   -8.6382    9.1082 C   0  0  0  0  0  0  0  0  0  0  0  0
   18.2367   -9.0509   10.4447 C   0  0  0  0  0  0  0  0  0  0  0  0
   19.1837   -8.8071   11.2459 O   0  0  0  0  0  0  0  0  0  0  0  0
   14.8961  -10.9484   11.3344 H   0  0  0  0  0  0  0  0  0  0  0  0
 13 14  1  0  0  0
 14 11  1  0  0  0
 11 12  2  0  0  0
  9 11  1  0  0  0
  9 10  1  0  0  0
  9  5  1  0  0  0
  5  6  1  0  0  0
  6  7  2  0  0  0
  6  4  1  0  0  0
  4  3  1  0  0  0
  3  2  1  0  0  0
  2  1  1  0  0  0
  1 15  1  0  0  0
 15 16  1  0  0  0
 16 17  1  0  0  0
 17 18  1  0  0  0
 17 19  2  0  0  0
 19 20  1  0  0  0
 20 21  2  0  0  0
 21 22  1  0  0  0
 22 23  2  0  0  0
 23 24  1  0  0  0
 24 25  2  0  0  0
 25 26  1  0  0  0
 25 20  1  0  0  0
 26 27  2  0  0  0
 26 16  1  0  0  0
  5  8  1  0  0  0
 18 28  1  0  0  0
M  END
>  <minimizedAffinity>
-7.78597

>  <minimizedRMSD>
1.20232

$$$$
CSSS00132828092 MCULE-7496314655 MolPort-000-852-867


 27 28  0  0  0  0  0  0  0  0999 V2000
   17.0830   -9.4982   11.4559 C   0  0  0  0  0  0  0  0  0  0  0  0
   17.3312   -9.3107   10.0273 N   0  0  0  0  0  0  0  0  0  0  0  0
   16.4645   -9.8612    9.1241 C   0  0  0  0  0  0  0  0  0  0  0  0
   15.3710  -10.6048    9.5564 O   0  0  0  0  0  0  0  0  0  0  0  0
   16.6625   -9.6916    7.7911 N   0  0  0  0  0  0  0  0  0  0  0  0
   17.7120   -8.9733    7.3231 C   0  0  0  0  0  0  0  0  0  0  0  0
   17.8945   -8.8142    5.9462 C   0  0  0  0  0  0  0  0  0  0  0  0
   18.9758   -8.0694    5.4656 C   0  0  0  0  0  0  0  0  0  0  0  0
   19.8760   -7.4816    6.3599 C   0  0  0  0  0  0  0  0  0  0  0  0
   19.6981   -7.6372    7.7380 C   0  0  0  0  0  0  0  0  0  0  0  0
   18.6160   -8.3841    8.2267 C   0  0  0  0  0  0  0  0  0  0  0  0
   18.3987   -8.5653    9.5993 C   0  0  0  0  0  0  0  0  0  0  0  0
   19.1846   -8.0384   10.4366 O   0  0  0  0  0  0  0  0  0  0  0  0
   15.2223  -10.7298   10.4730 H   0  0  0  0  0  0  0  0  0  0  0  0
   18.2064  -10.3067   12.0880 C   0  0  0  0  0  0  0  0  0  0  0  0
   17.8872  -10.6114   13.5434 C   0  0  0  0  0  0  0  0  0  0  0  0
   16.9885   -9.5416   14.1454 C   0  0  0  0  0  0  0  0  0  0  0  0
   16.6824   -9.8606   15.5983 C   0  0  0  0  0  0  0  0  0  0  0  0
   15.8766   -8.6869   17.6778 N   0  0  0  0  0  0  0  0  0  0  0  0
   16.1449   -8.6512   16.2760 C   0  0  0  0  0  0  0  0  0  0  0  0
   15.8993   -7.6154   15.6016 O   0  0  0  0  0  0  0  0  0  0  0  0
   16.0765   -9.5086   18.1819 H   0  0  0  0  0  0  0  0  0  0  0  0
   15.3165   -7.5447   18.3827 C   0  0  0  0  0  0  0  0  0  0  0  0
   13.8099   -7.5036   18.1863 C   0  0  0  0  0  0  0  0  0  0  0  0
   11.8931   -6.1791   18.2432 C   0  0  0  0  0  0  0  0  0  0  0  0
   13.2686   -6.2552   18.6994 N   0  0  0  0  0  0  0  0  0  0  0  0
   13.2185   -6.3746   20.1461 C   0  0  0  0  0  0  0  0  0  0  0  0
 25 26  1  0  0  0
 26 27  1  0  0  0
 26 24  1  0  0  0
 24 23  1  0  0  0
 23 19  1  0  0  0
 19 20  1  0  0  0
 20 21  2  0  0  0
 20 18  1  0  0  0
 18 17  1  0  0  0
 17 16  1  0  0  0
 16 15  1  0  0  0
 15  1  1  0  0  0
  1  2  1  0  0  0
  2  3  1  0  0  0
  3  4  1  0  0  0
  3  5  2  0  0  0
  5  6  1  0  0  0
  6  7  2  0  0  0
  7  8  1  0  0  0
  8  9  2  0  0  0
  9 10  1  0  0  0
 10 11  2  0  0  0
 11 12  1  0  0  0
 11  6  1  0  0  0
 12 13  2  0  0  0
 12  2  1  0  0  0
 19 22  1  0  0  0
  4 14  1  0  0  0
M  END
>  <minimizedAffinity>
-7.77968

>  <minimizedRMSD>
1.78591

$$$$
887953567 CSSS00133082917 MCULE-8354353706 MolPort-046-130-877 PubChem-136587371 Z2964324699


 27 30  0  0  0  0  0  0  0  0999 V2000
   16.1911   -9.8655   11.0494 C   0  0  0  0  0  0  0  0  0  0  0  0
   14.9870  -10.2295   10.9504 O   0  0  0  0  0  0  0  0  0  0  0  0
   16.7972   -9.8136   12.3527 N   0  0  0  0  0  0  0  0  0  0  0  0
   18.2270   -9.8644   12.5925 C   0  0  0  0  0  0  0  0  0  0  0  0
   18.4029   -9.9718   14.0960 C   0  0  0  0  0  0  0  0  0  0  0  0
   19.0025  -11.3204   14.4434 C   0  0  0  0  0  0  0  0  0  0  0  0
   18.2227  -11.8226   15.6365 C   0  0  0  0  0  0  0  0  0  0  0  0
   16.8348  -11.2413   15.4812 C   0  0  0  0  0  0  0  0  0  0  0  0
   17.0056   -9.9365   14.7148 C   0  0  0  0  0  0  0  0  0  0  0  0
   16.0099   -9.8869   13.5677 C   0  0  0  0  0  0  0  0  0  0  0  0
   18.9307   -8.3757    6.4573 N   0  0  0  0  0  0  0  0  0  0  0  0
   19.7042   -7.3985    6.9225 N   0  0  0  0  0  0  0  0  0  0  0  0
   19.4682   -7.2406    8.2537 C   0  0  0  0  0  0  0  0  0  0  0  0
   18.5064   -8.1685    8.6063 C   0  0  0  0  0  0  0  0  0  0  0  0
   17.8842   -8.4604    9.8123 C   0  0  0  0  0  0  0  0  0  0  0  0
   16.9265   -9.4984    9.8164 C   0  0  0  0  0  0  0  0  0  0  0  0
   16.6366  -10.1721    8.5997 C   0  0  0  0  0  0  0  0  0  0  0  0
   17.2798   -9.8413    7.4390 N   0  0  0  0  0  0  0  0  0  0  0  0
   18.2010   -8.8482    7.4730 C   0  0  0  0  0  0  0  0  0  0  0  0
   17.7525   -8.1788    4.3288 C   0  0  0  0  0  0  0  0  0  0  0  0
   18.8985   -8.8353    5.0745 C   0  0  0  0  0  0  0  0  0  0  0  0
   20.2112   -8.5177    4.3842 C   0  0  0  0  0  0  0  0  0  0  0  0
   16.8513   -8.7240   15.5971 C   0  0  0  0  0  0  0  0  0  0  0  0
   16.9033   -8.8361   17.0175 N   0  0  0  0  0  0  0  0  0  0  0  0
   16.6716   -7.5894   15.0786 O   0  0  0  0  0  0  0  0  0  0  0  0
   17.0431   -9.7157   17.4371 H   0  0  0  0  0  0  0  0  0  0  0  0
   16.7995   -8.0339   17.5787 H   0  0  0  0  0  0  0  0  0  0  0  0
 20 21  1  0  0  0
 21 22  1  0  0  0
 21 11  1  0  0  0
 11 12  1  0  0  0
 12 13  2  0  0  0
 13 14  1  0  0  0
 14 15  2  0  0  0
 15 16  1  0  0  0
 16 17  2  0  0  0
 17 18  1  0  0  0
 18 19  2  0  0  0
 16  1  1  0  0  0
  1  2  2  0  0  0
  1  3  1  0  0  0
  3  4  1  0  0  0
  5  4  1  0  0  0
  5  6  1  0  0  0
  6  7  1  0  0  0
  7  8  1  0  0  0
  8  9  1  0  0  0
  9 10  1  0  0  0
  9 23  1  0  0  0
 23 24  1  0  0  0
 23 25  2  0  0  0
 19 11  1  0  0  0
 10  3  1  0  0  0
 19 14  1  0  0  0
  9  5  1  0  0  0
 24 26  1  0  0  0
 24 27  1  0  0  0
M  END
>  <minimizedAffinity>
-7.77891

>  <minimizedRMSD>
1.17317

$$$$
CSC026167348 3421441 CSSS00026167348 MCULE-9136505402 MolPort-005-315-379 PubChem-2540691 Z24133010 ZINC000003421441


 31 34  0  0  0  0  0  0  0  0999 V2000
   18.0485  -10.0943   12.2357 O   0  0  0  0  0  0  0  0  0  0  0  0
   17.9095  -10.8370   13.4104 C   0  0  0  0  0  0  0  0  0  0  0  0
   18.2071  -12.0637   13.4263 O   0  0  0  0  0  0  0  0  0  0  0  0
   16.4633   -8.9246   16.9626 C   0  0  0  0  0  0  0  0  0  0  0  0
   17.0826  -10.1763   17.0377 C   0  0  0  0  0  0  0  0  0  0  0  0
   17.5554  -10.8027   15.8811 C   0  0  0  0  0  0  0  0  0  0  0  0
   17.4139  -10.1827   14.6319 C   0  0  0  0  0  0  0  0  0  0  0  0
   16.7938   -8.9290   14.5554 C   0  0  0  0  0  0  0  0  0  0  0  0
   16.3216   -8.3039   15.7126 C   0  0  0  0  0  0  0  0  0  0  0  0
   14.4614   -7.0341   19.6190 N   0  0  0  0  0  0  0  0  0  0  0  0
   14.7762   -7.5741   18.3416 C   0  0  0  0  0  0  0  0  0  0  0  0
   15.9915   -8.3143   18.1718 N   0  0  0  0  0  0  0  0  0  0  0  0
   13.9820   -7.3932   17.3812 O   0  0  0  0  0  0  0  0  0  0  0  0
   15.0760   -7.1702   20.3760 H   0  0  0  0  0  0  0  0  0  0  0  0
   13.6290   -6.5242   19.7463 H   0  0  0  0  0  0  0  0  0  0  0  0
   16.5619   -8.4143   18.9679 H   0  0  0  0  0  0  0  0  0  0  0  0
   16.9265   -9.6912   11.4644 C   0  0  0  0  0  0  0  0  0  0  0  0
   17.3604   -9.3911   10.0745 C   0  0  0  0  0  0  0  0  0  0  0  0
   18.3986   -8.5380    9.8580 N   0  0  0  0  0  0  0  0  0  0  0  0
   18.7708   -8.2480    8.5872 C   0  0  0  0  0  0  0  0  0  0  0  0
   18.1290   -8.7822    7.5162 N   0  0  0  0  0  0  0  0  0  0  0  0
   18.6779   -8.3446    6.3449 C   0  0  0  0  0  0  0  0  0  0  0  0
   19.7477   -7.4686    6.5117 C   0  0  0  0  0  0  0  0  0  0  0  0
   20.0359   -7.2170    8.1539 S   0  0  0  0  0  0  0  0  0  0  0  0
   20.4317   -6.9192    5.4307 C   0  0  0  0  0  0  0  0  0  0  0  0
   20.0148   -7.2717    4.1385 C   0  0  0  0  0  0  0  0  0  0  0  0
   18.9356   -8.1554    3.9523 C   0  0  0  0  0  0  0  0  0  0  0  0
   18.2593   -8.6983    5.0565 C   0  0  0  0  0  0  0  0  0  0  0  0
   17.0760   -9.6361    7.6922 C   0  0  0  0  0  0  0  0  0  0  0  0
   16.4667  -10.1379    6.7103 O   0  0  0  0  0  0  0  0  0  0  0  0
   16.6701   -9.9536    8.9921 C   0  0  0  0  0  0  0  0  0  0  0  0
 10 11  1  0  0  0
 11 12  1  0  0  0
 12  4  1  0  0  0
  4  5  2  0  0  0
  5  6  1  0  0  0
  6  7  2  0  0  0
  7  2  1  0  0  0
  2  1  1  0  0  0
  1 17  1  0  0  0
 17 18  1  0  0  0
 18 19  1  0  0  0
 19 20  2  0  0  0
 20 21  1  0  0  0
 21 22  1  0  0  0
 22 23  2  0  0  0
 23 24  1  0  0  0
 23 25  1  0  0  0
 25 26  2  0  0  0
 26 27  1  0  0  0
 27 28  2  0  0  0
 21 29  1  0  0  0
 29 30  2  0  0  0
 29 31  1  0  0  0
  2  3  2  0  0  0
  7  8  1  0  0  0
  8  9  2  0  0  0
 11 13  2  0  0  0
  9  4  1  0  0  0
 31 18  2  0  0  0
 24 20  1  0  0  0
 28 22  1  0  0  0
 10 14  1  0  0  0
 10 15  1  0  0  0
 12 16  1  0  0  0
M  END
>  <minimizedAffinity>
-7.77027

>  <minimizedRMSD>
1.23616

$$$$
CSC027002396 89878694 CHEMBL4900197 CSSS00027002396 MCULE-9650563302 MolPort-027-917-944 PubChem-71911888 Z1492347933 ZINC000089878694 ZINC89878694


 30 33  0  0  0  0  0  0  0  0999 V2000
   19.4508  -10.9392   14.7385 Cl  0  0  0  0  0  0  0  0  0  0  0  0
   18.1316  -10.1228   13.9130 C   0  0  0  0  0  0  0  0  0  0  0  0
   18.0816  -10.1744   12.5169 C   0  0  0  0  0  0  0  0  0  0  0  0
   17.0480   -9.5426   11.8090 C   0  0  0  0  0  0  0  0  0  0  0  0
   16.0572   -8.8556   12.5273 C   0  0  0  0  0  0  0  0  0  0  0  0
   16.1018   -8.7971   13.9221 C   0  0  0  0  0  0  0  0  0  0  0  0
   17.1335   -9.4294   14.6215 C   0  0  0  0  0  0  0  0  0  0  0  0
   16.9893   -9.5988   10.3702 N   0  0  0  0  0  0  0  0  0  0  0  0
   16.1321  -10.3526    9.6330 C   0  0  0  0  0  0  0  0  0  0  0  0
   16.3160  -10.2030    8.2943 N   0  0  0  0  0  0  0  0  0  0  0  0
   17.3264   -9.3208    8.2126 C   0  0  0  0  0  0  0  0  0  0  0  0
   17.9124   -8.8110    7.0567 C   0  0  0  0  0  0  0  0  0  0  0  0
   18.9608   -7.8863    7.2148 C   0  0  0  0  0  0  0  0  0  0  0  0
   19.3886   -7.5001    8.5041 C   0  0  0  0  0  0  0  0  0  0  0  0
   18.7731   -8.0341    9.6509 C   0  0  0  0  0  0  0  0  0  0  0  0
   17.7381   -8.9510    9.4585 C   0  0  0  0  0  0  0  0  0  0  0  0
   17.1566   -9.3310   16.1099 C   0  0  0  0  0  0  0  0  0  0  0  0
   16.3953   -8.1680   16.5352 N   0  0  0  0  0  0  0  0  0  0  0  0
   15.0796   -8.2798   17.0747 C   0  0  0  0  0  0  0  0  0  0  0  0
   14.5034   -9.3986   17.1360 O   0  0  0  0  0  0  0  0  0  0  0  0
   16.8006   -7.2750   16.4483 H   0  0  0  0  0  0  0  0  0  0  0  0
   14.4017   -7.0686   17.6163 C   0  0  0  0  0  0  0  0  0  0  0  0
   14.1822   -7.2183   19.0478 N   0  0  0  0  0  0  0  0  0  0  0  0
   12.9174   -7.6147   19.6461 C   0  0  0  0  0  0  0  0  0  0  0  0
   13.3264   -7.9677   21.0402 C   0  0  0  0  0  0  0  0  0  0  0  0
   12.5207   -8.3495   21.9277 O   0  0  0  0  0  0  0  0  0  0  0  0
   14.7252   -7.8426   21.2764 N   0  0  0  0  0  0  0  0  0  0  0  0
   15.2041   -7.3936   20.0211 C   0  0  0  0  0  0  0  0  0  0  0  0
   16.4240   -7.1856   19.7890 O   0  0  0  0  0  0  0  0  0  0  0  0
   15.2307   -8.0223   22.1019 H   0  0  0  0  0  0  0  0  0  0  0  0
  1  2  1  0  0  0
  2  3  2  0  0  0
  3  4  1  0  0  0
  4  5  2  0  0  0
  4  8  1  0  0  0
  5  6  1  0  0  0
  6  7  2  0  0  0
  7 17  1  0  0  0
  7  2  1  0  0  0
 17 18  1  0  0  0
 18 19  1  0  0  0
 19 20  2  0  0  0
 19 22  1  0  0  0
 22 23  1  0  0  0
 23 24  1  0  0  0
 24 25  1  0  0  0
 25 26  2  0  0  0
 25 27  1  0  0  0
 27 28  1  0  0  0
 28 29  2  0  0  0
 28 23  1  0  0  0
  8  9  1  0  0  0
  9 10  2  0  0  0
 10 11  1  0  0  0
 11 12  2  0  0  0
 12 13  1  0  0  0
 13 14  2  0  0  0
 14 15  1  0  0  0
 15 16  2  0  0  0
 16  8  1  0  0  0
 16 11  1  0  0  0
 18 21  1  0  0  0
 27 30  1  0  0  0
M  END
>  <minimizedAffinity>
-7.74088

>  <minimizedRMSD>
2.55246

$$$$
CSC025855735 25905916 CSSS00025855735 MCULE-9462427550 MolPort-009-294-558 PubChem-45881097 Z368768988 ZINC000025905916


 30 32  0  0  0  0  0  0  0  0999 V2000
   16.2711   -9.0559   12.8803 N   0  0  0  0  0  0  0  0  0  0  0  0
   15.9306   -8.1600   12.6550 H   0  0  0  0  0  0  0  0  0  0  0  0
   16.9624   -9.2321   14.1186 C   0  0  0  0  0  0  0  0  0  0  0  0
   16.3195   -8.8936   15.3133 C   0  0  0  0  0  0  0  0  0  0  0  0
   16.9703   -9.0545   16.5462 C   0  0  0  0  0  0  0  0  0  0  0  0
   18.2747   -9.5590   16.5704 C   0  0  0  0  0  0  0  0  0  0  0  0
   18.9240   -9.8996   15.3806 C   0  0  0  0  0  0  0  0  0  0  0  0
   18.2700   -9.7369   14.1569 C   0  0  0  0  0  0  0  0  0  0  0  0
   16.3383   -8.7161   17.7885 N   0  0  0  0  0  0  0  0  0  0  0  0
   15.1621   -7.9163   17.9637 C   0  0  0  0  0  0  0  0  0  0  0  0
   14.6754   -7.6810   19.2864 N   0  0  0  0  0  0  0  0  0  0  0  0
   14.5569   -7.4271   16.9715 O   0  0  0  0  0  0  0  0  0  0  0  0
   16.7563   -9.0704   18.6065 H   0  0  0  0  0  0  0  0  0  0  0  0
   15.1526   -8.0901   20.0441 H   0  0  0  0  0  0  0  0  0  0  0  0
   13.5040   -6.8620   19.5607 C   0  0  0  0  0  0  0  0  0  0  0  0
   13.6132   -6.2479   20.9434 C   0  0  0  0  0  0  0  0  0  0  0  0
   12.2624   -7.7258   19.4979 C   0  0  0  0  0  0  0  0  0  0  0  0
   16.0481  -10.1417   11.9378 C   0  0  0  0  0  0  0  0  0  0  0  0
   19.3355   -7.8067    7.3979 C   0  0  0  0  0  0  0  0  0  0  0  0
   19.4861   -7.5390    9.0667 S   0  0  0  0  0  0  0  0  0  0  0  0
   18.2056   -8.5880    9.3516 C   0  0  0  0  0  0  0  0  0  0  0  0
   17.7127   -9.1018    8.2052 N   0  0  0  0  0  0  0  0  0  0  0  0
   16.6694   -9.9729    8.2155 C   0  0  0  0  0  0  0  0  0  0  0  0
   16.1062  -10.3366    9.4437 C   0  0  0  0  0  0  0  0  0  0  0  0
   16.6448   -9.7917   10.6214 C   0  0  0  0  0  0  0  0  0  0  0  0
   17.6876   -8.9157   10.5606 N   0  0  0  0  0  0  0  0  0  0  0  0
   16.2118  -10.4470    7.1420 O   0  0  0  0  0  0  0  0  0  0  0  0
   18.3356   -8.6756    7.1091 N   0  0  0  0  0  0  0  0  0  0  0  0
   19.8981   -7.7625    4.9998 C   0  0  0  0  0  0  0  0  0  0  0  0
   20.2093   -7.1838    6.3660 C   0  0  0  0  0  0  0  0  0  0  0  0
 29 30  1  0  0  0
 30 19  1  0  0  0
 19 20  1  0  0  0
 20 21  1  0  0  0
 21 22  1  0  0  0
 22 23  1  0  0  0
 23 24  1  0  0  0
 24 25  2  0  0  0
 25 26  1  0  0  0
 25 18  1  0  0  0
 18  1  1  0  0  0
  1  3  1  0  0  0
  3  4  2  0  0  0
  4  5  1  0  0  0
  5  9  1  0  0  0
  9 10  1  0  0  0
 10 11  1  0  0  0
 11 15  1  0  0  0
 15 16  1  0  0  0
 15 17  1  0  0  0
 10 12  2  0  0  0
  5  6  2  0  0  0
  6  7  1  0  0  0
  7  8  2  0  0  0
 23 27  2  0  0  0
 22 28  1  0  0  0
 28 19  2  0  0  0
 26 21  2  0  0  0
  8  3  1  0  0  0
  1  2  1  0  0  0
  9 13  1  0  0  0
 11 14  1  0  0  0
M  END
>  <minimizedAffinity>
-7.71666

>  <minimizedRMSD>
1.61849

$$$$
CSSS00159438725 MCULE-4220246146 MolPort-035-855-574 PubChem-90648911 ZINC000217105142


 28 31  0  0  0  0  0  0  0  0999 V2000
   15.8662   -8.0012   17.0212 C   0  0  0  0  0  0  0  0  0  0  0  0
   16.4962   -9.3805   17.2232 C   0  0  0  0  0  0  0  0  0  0  0  0
   17.5979   -9.6067   16.1930 C   0  0  0  0  0  0  0  0  0  0  0  0
   17.0656   -9.3782   14.8528 N   0  0  0  0  0  0  0  0  0  0  0  0
   16.4245   -8.0944   14.5806 C   0  0  0  0  0  0  0  0  0  0  0  0
   15.3174   -7.8498   15.6012 C   0  0  0  0  0  0  0  0  0  0  0  0
   17.1507  -10.3996   13.8479 C   0  0  0  0  0  0  0  0  0  0  0  0
   17.6327  -11.5286   14.1335 O   0  0  0  0  0  0  0  0  0  0  0  0
   16.2429   -7.1666   20.0146 C   0  0  0  0  0  0  0  0  0  0  0  0
   14.9869   -7.4020   19.3179 N   0  0  0  0  0  0  0  0  0  0  0  0
   13.7398   -7.3029   19.8090 C   0  0  0  0  0  0  0  0  0  0  0  0
   12.8174   -7.5717   18.8654 N   0  0  0  0  0  0  0  0  0  0  0  0
   13.4775   -7.8618   17.7518 N   0  0  0  0  0  0  0  0  0  0  0  0
   14.7910   -7.7575   18.0330 C   0  0  0  0  0  0  0  0  0  0  0  0
   13.4034   -6.8787   21.1980 C   0  0  0  0  0  0  0  0  0  0  0  0
   13.0206   -5.5380   21.1980 O   0  0  0  0  0  0  0  0  0  0  0  0
   13.7503   -4.9934   20.8634 H   0  0  0  0  0  0  0  0  0  0  0  0
   16.7091  -10.1377   12.4428 C   0  0  0  0  0  0  0  0  0  0  0  0
   17.8881   -9.6858   11.5924 C   0  0  0  0  0  0  0  0  0  0  0  0
   17.4924   -9.5570   10.1968 N   0  0  0  0  0  0  0  0  0  0  0  0
   16.4337  -10.1470    9.5900 C   0  0  0  0  0  0  0  0  0  0  0  0
   16.3430   -9.8151    8.2732 N   0  0  0  0  0  0  0  0  0  0  0  0
   17.3923   -8.9939    8.0817 C   0  0  0  0  0  0  0  0  0  0  0  0
   17.7663   -8.3513    6.9043 C   0  0  0  0  0  0  0  0  0  0  0  0
   18.9053   -7.5247    6.9520 C   0  0  0  0  0  0  0  0  0  0  0  0
   19.6275   -7.3635    8.1566 C   0  0  0  0  0  0  0  0  0  0  0  0
   19.2210   -8.0270    9.3290 C   0  0  0  0  0  0  0  0  0  0  0  0
   18.0912   -8.8389    9.2400 C   0  0  0  0  0  0  0  0  0  0  0  0
  9 10  1  0  0  0
 10 11  1  0  0  0
 11 12  2  0  0  0
 12 13  1  0  0  0
 13 14  2  0  0  0
 14  1  1  0  0  0
  1  2  1  0  0  0
  2  3  1  0  0  0
  3  4  1  0  0  0
  4  5  1  0  0  0
  5  6  1  0  0  0
  4  7  1  0  0  0
  7  8  2  0  0  0
  7 18  1  0  0  0
 18 19  1  0  0  0
 19 20  1  0  0  0
 20 21  1  0  0  0
 21 22  2  0  0  0
 22 23  1  0  0  0
 23 24  2  0  0  0
 24 25  1  0  0  0
 25 26  2  0  0  0
 26 27  1  0  0  0
 27 28  2  0  0  0
 11 15  1  0  0  0
 15 16  1  0  0  0
 14 10  1  0  0  0
  6  1  1  0  0  0
 28 20  1  0  0  0
 28 23  1  0  0  0
 16 17  1  0  0  0
M  END
>  <minimizedAffinity>
-7.68907

>  <minimizedRMSD>
3.18127

$$$$
CSC025959703 29928202 CSSS00025959703 MCULE-2156440232 MolPort-009-468-101 PubChem-135939285 Z244471262 ZINC000029928202


 33 36  0  0  0  0  0  0  0  0999 V2000
   17.8758  -11.1468   17.3332 C   0  0  0  0  0  0  0  0  0  0  0  0
   17.1608   -9.8943   16.9520 C   0  0  0  0  0  0  0  0  0  0  0  0
   17.5078   -9.1769   15.7943 C   0  0  0  0  0  0  0  0  0  0  0  0
   16.7876   -8.0091   15.5015 C   0  0  0  0  0  0  0  0  0  0  0  0
   17.0523   -7.3321   14.4725 O   0  0  0  0  0  0  0  0  0  0  0  0
   15.7975   -7.5986   16.3342 N   0  0  0  0  0  0  0  0  0  0  0  0
   15.4872   -8.3001   17.4549 C   0  0  0  0  0  0  0  0  0  0  0  0
   16.1625   -9.4395   17.7530 N   0  0  0  0  0  0  0  0  0  0  0  0
   15.2958   -6.7784   16.1223 H   0  0  0  0  0  0  0  0  0  0  0  0
   18.5967   -9.6514   14.8799 C   0  0  0  0  0  0  0  0  0  0  0  0
   18.1128  -10.8342   14.0593 C   0  0  0  0  0  0  0  0  0  0  0  0
   16.9542  -10.4312   13.2166 C   0  0  0  0  0  0  0  0  0  0  0  0
   17.1504  -10.1876   11.8244 N   0  0  0  0  0  0  0  0  0  0  0  0
   15.8097  -10.3164   13.7333 O   0  0  0  0  0  0  0  0  0  0  0  0
   18.0542  -10.2817   11.4456 H   0  0  0  0  0  0  0  0  0  0  0  0
   16.0549   -9.8047   10.9492 C   0  0  0  0  0  0  0  0  0  0  0  0
   16.5459   -9.7180    9.5446 C   0  0  0  0  0  0  0  0  0  0  0  0
   17.5493   -8.9319    9.1274 N   0  0  0  0  0  0  0  0  0  0  0  0
   17.6702   -9.2273    7.8275 C   0  0  0  0  0  0  0  0  0  0  0  0
   18.6277   -8.6041    7.0323 C   0  0  0  0  0  0  0  0  0  0  0  0
   19.4575   -7.6562    7.6570 C   0  0  0  0  0  0  0  0  0  0  0  0
   19.3118   -7.3652    9.0296 C   0  0  0  0  0  0  0  0  0  0  0  0
   18.3261   -8.0291    9.7761 C   0  0  0  0  0  0  0  0  0  0  0  0
   16.7862  -10.1661    7.4425 N   0  0  0  0  0  0  0  0  0  0  0  0
   16.0813  -10.4790    8.5279 N   0  0  0  0  0  0  0  0  0  0  0  0
   14.1905   -7.7162   18.5407 S   0  0  0  0  0  0  0  0  0  0  0  0
   15.2608   -7.7336   20.0176 C   0  0  0  0  0  0  0  0  0  0  0  0
   14.6234   -7.0203   21.1633 C   0  0  0  0  0  0  0  0  0  0  0  0
   13.5086   -6.2066   20.9334 C   0  0  0  0  0  0  0  0  0  0  0  0
   12.9032   -5.5305   21.9967 C   0  0  0  0  0  0  0  0  0  0  0  0
   13.4151   -5.6623   23.2914 C   0  0  0  0  0  0  0  0  0  0  0  0
   14.5329   -6.4703   23.5230 C   0  0  0  0  0  0  0  0  0  0  0  0
   15.1381   -7.1482   22.4598 C   0  0  0  0  0  0  0  0  0  0  0  0
  1  2  1  0  0  0
  2  3  2  0  0  0
  3 10  1  0  0  0
 10 11  1  0  0  0
 11 12  1  0  0  0
 12 13  1  0  0  0
 13 16  1  0  0  0
 16 17  1  0  0  0
 17 18  1  0  0  0
 18 19  1  0  0  0
 19 20  1  0  0  0
 20 21  2  0  0  0
 21 22  1  0  0  0
 22 23  2  0  0  0
 19 24  2  0  0  0
 24 25  1  0  0  0
 12 14  2  0  0  0
  3  4  1  0  0  0
  4  5  2  0  0  0
  4  6  1  0  0  0
  6  7  1  0  0  0
  7 26  1  0  0  0
 26 27  1  0  0  0
 27 28  1  0  0  0
 28 29  2  0  0  0
 29 30  1  0  0  0
 30 31  2  0  0  0
 31 32  1  0  0  0
 32 33  2  0  0  0
  7  8  2  0  0  0
  8  2  1  0  0  0
 25 17  2  0  0  0
 33 28  1  0  0  0
 23 18  1  0  0  0
 13 15  1  0  0  0
  6  9  1  0  0  0
M  END
>  <minimizedAffinity>
-7.68763

>  <minimizedRMSD>
2.65786

$$$$
95473166 CSSS00132616807 LN00442377 MCULE-6871149741 MolPort-028-604-086 PubChem-71701672 ZINC000095473166 ZINC95473166


 34 37  0  0  0  0  0  0  0  0999 V2000
   16.1621   -8.5685   17.8528 N   0  0  0  0  0  0  0  0  0  0  0  0
   16.0642   -8.3418   16.4405 C   0  0  0  0  0  0  0  0  0  0  0  0
   15.2773   -7.4776   15.9693 O   0  0  0  0  0  0  0  0  0  0  0  0
   16.7825   -9.2751   18.1447 H   0  0  0  0  0  0  0  0  0  0  0  0
   11.6049   -5.4698   20.5629 N   0  0  0  0  0  0  0  0  0  0  0  0
   12.2428   -5.3331   21.7582 C   0  0  0  0  0  0  0  0  0  0  0  0
   13.4866   -5.8452   21.9459 N   0  0  0  0  0  0  0  0  0  0  0  0
   14.1254   -6.5057   20.9497 C   0  0  0  0  0  0  0  0  0  0  0  0
   15.4054   -7.0242   21.1604 C   0  0  0  0  0  0  0  0  0  0  0  0
   16.0629   -7.7037   20.1305 C   0  0  0  0  0  0  0  0  0  0  0  0
   15.4492   -7.8718   18.8838 C   0  0  0  0  0  0  0  0  0  0  0  0
   14.1629   -7.3516   18.6746 C   0  0  0  0  0  0  0  0  0  0  0  0
   13.4970   -6.6691   19.7015 C   0  0  0  0  0  0  0  0  0  0  0  0
   12.2124   -6.1346   19.5261 C   0  0  0  0  0  0  0  0  0  0  0  0
   11.6222   -6.2675   18.4171 O   0  0  0  0  0  0  0  0  0  0  0  0
   10.2682   -3.6865   19.5071 C   0  0  0  0  0  0  0  0  0  0  0  0
   10.2707   -4.8749   20.4536 C   0  0  0  0  0  0  0  0  0  0  0  0
    9.2360   -5.9037   20.0305 C   0  0  0  0  0  0  0  0  0  0  0  0
   16.8915   -9.1602   15.5141 C   0  0  0  0  0  0  0  0  0  0  0  0
   16.5454   -8.8230   14.0736 C   0  0  0  0  0  0  0  0  0  0  0  0
   16.6217  -10.0646   13.2034 C   0  0  0  0  0  0  0  0  0  0  0  0
   16.5794   -9.6862   11.7345 C   0  0  0  0  0  0  0  0  0  0  0  0
   17.9844   -9.3710   11.2498 C   0  0  0  0  0  0  0  0  0  0  0  0
   17.9915   -9.1669    9.8047 N   0  0  0  0  0  0  0  0  0  0  0  0
   17.0244   -9.7617    9.0507 C   0  0  0  0  0  0  0  0  0  0  0  0
   17.0058   -9.6075    7.7014 N   0  0  0  0  0  0  0  0  0  0  0  0
   17.9491   -8.8634    7.0732 C   0  0  0  0  0  0  0  0  0  0  0  0
   17.9143   -8.7141    5.6836 C   0  0  0  0  0  0  0  0  0  0  0  0
   18.8905   -7.9485    5.0377 C   0  0  0  0  0  0  0  0  0  0  0  0
   19.9039   -7.3319    5.7786 C   0  0  0  0  0  0  0  0  0  0  0  0
   19.9449   -7.4784    7.1683 C   0  0  0  0  0  0  0  0  0  0  0  0
   18.9682   -8.2433    7.8231 C   0  0  0  0  0  0  0  0  0  0  0  0
   18.9715   -8.4177    9.2141 C   0  0  0  0  0  0  0  0  0  0  0  0
   19.8735   -7.8812    9.9171 O   0  0  0  0  0  0  0  0  0  0  0  0
 16 17  1  0  0  0
 17 18  1  0  0  0
 17  5  1  0  0  0
  5  6  1  0  0  0
  6  7  2  0  0  0
  7  8  1  0  0  0
  8  9  2  0  0  0
  9 10  1  0  0  0
 10 11  2  0  0  0
 11  1  1  0  0  0
 11 12  1  0  0  0
  1  2  1  0  0  0
  2  3  2  0  0  0
  2 19  1  0  0  0
 19 20  1  0  0  0
 20 21  1  0  0  0
 21 22  1  0  0  0
 22 23  1  0  0  0
 23 24  1  0  0  0
 24 25  1  0  0  0
 25 26  2  0  0  0
 26 27  1  0  0  0
 27 28  2  0  0  0
 28 29  1  0  0  0
 29 30  2  0  0  0
 30 31  1  0  0  0
 31 32  2  0  0  0
 32 33  1  0  0  0
 32 27  1  0  0  0
 33 34  2  0  0  0
 33 24  1  0  0  0
 12 13  2  0  0  0
 13 14  1  0  0  0
 13  8  1  0  0  0
 14 15  2  0  0  0
 14  5  1  0  0  0
  1  4  1  0  0  0
M  END
>  <minimizedAffinity>
-7.65636

>  <minimizedRMSD>
1.20429

$$$$
CSC093543187 CSSS00093543187 MCULE-9988669841 PubChem-24233756 Z139772148


 28 30  0  0  0  0  0  0  0  0999 V2000
   16.3900   -9.1055   13.1683 N   0  0  0  0  0  0  0  0  0  0  0  0
   16.5615   -8.1633   12.9402 H   0  0  0  0  0  0  0  0  0  0  0  0
   16.7327   -9.5320   14.4942 C   0  0  0  0  0  0  0  0  0  0  0  0
   17.5023  -10.6892   14.7608 C   0  0  0  0  0  0  0  0  0  0  0  0
   17.7879  -11.0279   16.0942 C   0  0  0  0  0  0  0  0  0  0  0  0
   17.3225  -10.2389   17.1465 C   0  0  0  0  0  0  0  0  0  0  0  0
   16.5634   -9.0971   16.8889 C   0  0  0  0  0  0  0  0  0  0  0  0
   16.2744   -8.7528   15.5622 C   0  0  0  0  0  0  0  0  0  0  0  0
   16.1020   -8.3102   17.9957 N   0  0  0  0  0  0  0  0  0  0  0  0
   14.8119   -7.7021   18.1358 C   0  0  0  0  0  0  0  0  0  0  0  0
   13.9315   -7.8195   17.2432 O   0  0  0  0  0  0  0  0  0  0  0  0
   14.5076   -6.9168   19.3600 C   0  0  0  0  0  0  0  0  0  0  0  0
   16.7371   -8.1737   18.7354 H   0  0  0  0  0  0  0  0  0  0  0  0
   17.9744  -11.4884   13.7132 O   0  0  0  0  0  0  0  0  0  0  0  0
   18.4733  -12.8051   13.9080 C   0  0  0  0  0  0  0  0  0  0  0  0
   15.8108   -9.9458   12.1317 C   0  0  0  0  0  0  0  0  0  0  0  0
   20.0196   -7.5897    5.8934 C   0  0  0  0  0  0  0  0  0  0  0  0
   19.3676   -7.9067    7.1903 C   0  0  0  0  0  0  0  0  0  0  0  0
   18.2747   -8.7738    7.2347 C   0  0  0  0  0  0  0  0  0  0  0  0
   17.6674   -9.0724    8.4220 N   0  0  0  0  0  0  0  0  0  0  0  0
   18.1302   -8.5177    9.5952 C   0  0  0  0  0  0  0  0  0  0  0  0
   17.5278   -8.8131   10.7760 N   0  0  0  0  0  0  0  0  0  0  0  0
   16.4685   -9.6591   10.8294 C   0  0  0  0  0  0  0  0  0  0  0  0
   15.9740  -10.2280    9.6594 C   0  0  0  0  0  0  0  0  0  0  0  0
   16.5945   -9.9228    8.4490 C   0  0  0  0  0  0  0  0  0  0  0  0
   16.1501  -10.4406    7.3877 O   0  0  0  0  0  0  0  0  0  0  0  0
   19.2216   -7.6457    9.5824 C   0  0  0  0  0  0  0  0  0  0  0  0
   19.8415   -7.3408    8.3720 C   0  0  0  0  0  0  0  0  0  0  0  0
 17 18  1  0  0  0
 18 19  2  0  0  0
 19 20  1  0  0  0
 20 21  1  0  0  0
 21 22  2  0  0  0
 21 27  1  0  0  0
 22 23  1  0  0  0
 23 24  2  0  0  0
 23 16  1  0  0  0
 24 25  1  0  0  0
 25 26  2  0  0  0
 25 20  1  0  0  0
 16  1  1  0  0  0
  1  3  1  0  0  0
  3  4  2  0  0  0
  4  5  1  0  0  0
  4 14  1  0  0  0
  5  6  2  0  0  0
  6  7  1  0  0  0
  7  8  2  0  0  0
  7  9  1  0  0  0
  8  3  1  0  0  0
  9 10  1  0  0  0
 10 11  2  0  0  0
 10 12  1  0  0  0
 14 15  1  0  0  0
 27 28  2  0  0  0
 28 18  1  0  0  0
  1  2  1  0  0  0
  9 13  1  0  0  0
M  END
>  <minimizedAffinity>
-7.65031

>  <minimizedRMSD>
1.14409

$$$$
CSC088465362 CSSS00088465362 Z1365751937


 24 26  0  0  0  0  0  0  0  0999 V2000
   18.1119   -9.5482   12.0320 N   0  0  0  0  0  0  0  0  0  0  0  0
   18.7175   -8.8259   12.3163 H   0  0  0  0  0  0  0  0  0  0  0  0
   18.5090   -8.1218    7.6381 N   0  0  0  0  0  0  0  0  0  0  0  0
   19.5136   -7.6908    8.4435 C   0  0  0  0  0  0  0  0  0  0  0  0
   19.3746   -8.1270    9.7283 N   0  0  0  0  0  0  0  0  0  0  0  0
   18.2355   -8.8441    9.6878 C   0  0  0  0  0  0  0  0  0  0  0  0
   17.5850   -9.5277   10.7050 C   0  0  0  0  0  0  0  0  0  0  0  0
   16.4228  -10.1777   10.3895 N   0  0  0  0  0  0  0  0  0  0  0  0
   15.9167  -10.1554    9.1139 C   0  0  0  0  0  0  0  0  0  0  0  0
   16.5673   -9.4776    8.1198 N   0  0  0  0  0  0  0  0  0  0  0  0
   17.7178   -8.8377    8.4409 C   0  0  0  0  0  0  0  0  0  0  0  0
   19.6546   -7.7401    5.5199 C   0  0  0  0  0  0  0  0  0  0  0  0
   18.3147   -7.8292    6.2263 C   0  0  0  0  0  0  0  0  0  0  0  0
   17.7814  -10.6030   12.9757 C   0  0  0  0  0  0  0  0  0  0  0  0
   17.6646  -10.0296   14.3430 C   0  0  0  0  0  0  0  0  0  0  0  0
   18.6582  -10.0550   15.3018 C   0  0  0  0  0  0  0  0  0  0  0  0
   18.1232   -9.3937   16.3965 C   0  0  0  0  0  0  0  0  0  0  0  0
   16.8487   -9.0171   16.0107 C   0  0  0  0  0  0  0  0  0  0  0  0
   16.6027   -9.4057   14.7847 O   0  0  0  0  0  0  0  0  0  0  0  0
   15.8897   -8.2827   16.8421 C   0  0  0  0  0  0  0  0  0  0  0  0
   16.0103   -8.2921   18.2608 N   0  0  0  0  0  0  0  0  0  0  0  0
   14.9527   -7.6389   16.3017 O   0  0  0  0  0  0  0  0  0  0  0  0
   16.7410   -8.7937   18.6894 H   0  0  0  0  0  0  0  0  0  0  0  0
   15.3630   -7.7969   18.8132 H   0  0  0  0  0  0  0  0  0  0  0  0
 12 13  1  0  0  0
 13  3  1  0  0  0
  3  4  1  0  0  0
  4  5  2  0  0  0
  5  6  1  0  0  0
  6  7  2  0  0  0
  7  1  1  0  0  0
  1 14  1  0  0  0
 14 15  1  0  0  0
 15 16  2  0  0  0
 16 17  1  0  0  0
 17 18  2  0  0  0
 18 19  1  0  0  0
 18 20  1  0  0  0
 20 21  1  0  0  0
 20 22  2  0  0  0
  7  8  1  0  0  0
  8  9  2  0  0  0
  9 10  1  0  0  0
 10 11  2  0  0  0
 11  3  1  0  0  0
 11  6  1  0  0  0
 19 15  1  0  0  0
  1  2  1  0  0  0
 21 23  1  0  0  0
 21 24  1  0  0  0
M  END
>  <minimizedAffinity>
-7.64176

>  <minimizedRMSD>
0.94122

$$$$
CSC090583460 CSSS00090583460 PubChem-166231183 Z1975308112


 34 36  0  0  0  0  0  0  0  0999 V2000
   17.2877   -9.8358   14.2322 C   0  0  0  0  0  0  0  0  0  0  0  0
   17.8093  -11.0846   14.5981 C   0  0  0  0  0  0  0  0  0  0  0  0
   17.8726  -11.4556   15.9436 C   0  0  0  0  0  0  0  0  0  0  0  0
   17.4149  -10.5801   16.9321 C   0  0  0  0  0  0  0  0  0  0  0  0
   16.8925   -9.3309   16.5833 C   0  0  0  0  0  0  0  0  0  0  0  0
   16.8347   -8.9657   15.2296 C   0  0  0  0  0  0  0  0  0  0  0  0
   16.4265   -8.4612   17.6250 N   0  0  0  0  0  0  0  0  0  0  0  0
   15.1118   -7.9045   17.7562 C   0  0  0  0  0  0  0  0  0  0  0  0
   14.2115   -8.1590   16.9103 O   0  0  0  0  0  0  0  0  0  0  0  0
   14.8262   -7.0606   18.8716 N   0  0  0  0  0  0  0  0  0  0  0  0
   17.0780   -8.2216   18.3231 H   0  0  0  0  0  0  0  0  0  0  0  0
   15.5437   -6.8647   19.5167 H   0  0  0  0  0  0  0  0  0  0  0  0
   13.5087   -6.4806   19.0861 C   0  0  0  0  0  0  0  0  0  0  0  0
   13.0840   -6.6731   20.5331 C   0  0  0  0  0  0  0  0  0  0  0  0
   14.2609   -6.6060   21.4510 C   0  0  0  0  0  0  0  0  0  0  0  0
   14.5802   -5.3810   22.1027 N   0  0  0  0  0  0  0  0  0  0  0  0
   14.9615   -7.6311   21.6655 O   0  0  0  0  0  0  0  0  0  0  0  0
   14.0346   -4.5785   21.9370 H   0  0  0  0  0  0  0  0  0  0  0  0
   15.3466   -5.3366   22.7190 H   0  0  0  0  0  0  0  0  0  0  0  0
   17.6547  -10.1484   11.7116 C   0  0  0  0  0  0  0  0  0  0  0  0
   18.0842  -11.3271   11.8321 O   0  0  0  0  0  0  0  0  0  0  0  0
   17.2116   -9.4158   12.8635 N   0  0  0  0  0  0  0  0  0  0  0  0
   16.8132   -8.5312   12.6961 H   0  0  0  0  0  0  0  0  0  0  0  0
   15.2502  -10.4697    9.9799 C   0  0  0  0  0  0  0  0  0  0  0  0
   16.4433   -9.6941    9.5305 C   0  0  0  0  0  0  0  0  0  0  0  0
   16.3973   -9.1144    8.2964 N   0  0  0  0  0  0  0  0  0  0  0  0
   17.4484   -8.3786    7.8711 C   0  0  0  0  0  0  0  0  0  0  0  0
   17.5842   -7.7287    6.6657 C   0  0  0  0  0  0  0  0  0  0  0  0
   18.8558   -7.1551    6.7800 C   0  0  0  0  0  0  0  0  0  0  0  0
   19.4070   -7.4620    7.9796 N   0  0  0  0  0  0  0  0  0  0  0  0
   18.5294   -8.2038    8.6274 N   0  0  0  0  0  0  0  0  0  0  0  0
   18.6593   -8.7417    9.8665 C   0  0  0  0  0  0  0  0  0  0  0  0
   19.9295   -8.5401   10.6316 C   0  0  0  0  0  0  0  0  0  0  0  0
   17.5862   -9.5233   10.3674 C   0  0  0  0  0  0  0  0  0  0  0  0
 24 25  1  0  0  0
 25 26  2  0  0  0
 26 27  1  0  0  0
 27 28  2  0  0  0
 28 29  1  0  0  0
 29 30  2  0  0  0
 30 31  1  0  0  0
 31 32  1  0  0  0
 32 33  1  0  0  0
 32 34  2  0  0  0
 34 20  1  0  0  0
 20 21  2  0  0  0
 20 22  1  0  0  0
 22  1  1  0  0  0
  1  2  2  0  0  0
  2  3  1  0  0  0
  3  4  2  0  0  0
  4  5  1  0  0  0
  5  7  1  0  0  0
  7  8  1  0  0  0
  8  9  2  0  0  0
  8 10  1  0  0  0
 10 13  1  0  0  0
 13 14  1  0  0  0
 14 15  1  0  0  0
 15 16  1  0  0  0
 15 17  2  0  0  0
  5  6  2  0  0  0
 34 25  1  0  0  0
  6  1  1  0  0  0
 31 27  1  0  0  0
 22 23  1  0  0  0
  7 11  1  0  0  0
 10 12  1  0  0  0
 16 18  1  0  0  0
 16 19  1  0  0  0
M  END
>  <minimizedAffinity>
-7.64076

>  <minimizedRMSD>
1.50906

$$$$
CSSS02338168307 Z6781312593


 25 27  0  0  0  0  0  0  0  0999 V2000
   17.7987   -9.8613   12.4095 N   0  0  0  0  0  0  0  0  0  0  0  0
   18.5280   -9.2087   12.5161 H   0  0  0  0  0  0  0  0  0  0  0  0
   17.0456   -9.8630   11.1933 C   0  0  0  0  0  0  0  0  0  0  0  0
   15.8051  -10.4230   11.1566 N   0  0  0  0  0  0  0  0  0  0  0  0
   15.0693  -10.4379   10.0139 C   0  0  0  0  0  0  0  0  0  0  0  0
   15.5639   -9.8881    8.8745 N   0  0  0  0  0  0  0  0  0  0  0  0
   16.7951   -9.3169    8.8559 C   0  0  0  0  0  0  0  0  0  0  0  0
   17.2899   -8.7556    7.6758 C   0  0  0  0  0  0  0  0  0  0  0  0
   18.5584   -8.1671    7.6563 C   0  0  0  0  0  0  0  0  0  0  0  0
   19.1584   -7.4691    6.1641 Cl  0  0  0  0  0  0  0  0  0  0  0  0
   19.3371   -8.1391    8.8222 C   0  0  0  0  0  0  0  0  0  0  0  0
   20.5681   -7.5710    8.8140 F   0  0  0  0  0  0  0  0  0  0  0  0
   18.8461   -8.6995   10.0053 C   0  0  0  0  0  0  0  0  0  0  0  0
   17.5758   -9.2901   10.0295 C   0  0  0  0  0  0  0  0  0  0  0  0
   17.5237  -10.7900   13.4934 C   0  0  0  0  0  0  0  0  0  0  0  0
   16.7356   -8.8448   16.4961 C   0  0  0  0  0  0  0  0  0  0  0  0
   18.0799   -8.8593   16.8772 C   0  0  0  0  0  0  0  0  0  0  0  0
   18.9024   -9.7381   15.6982 S   0  0  0  0  0  0  0  0  0  0  0  0
   17.5341  -10.0600   14.7884 C   0  0  0  0  0  0  0  0  0  0  0  0
   16.4394   -9.5012   15.3398 N   0  0  0  0  0  0  0  0  0  0  0  0
   15.7947   -8.0906   18.6994 N   0  0  0  0  0  0  0  0  0  0  0  0
   15.6981   -8.1618   17.2801 C   0  0  0  0  0  0  0  0  0  0  0  0
   14.7137   -7.6335   16.6993 O   0  0  0  0  0  0  0  0  0  0  0  0
   15.0953   -7.6310   19.2179 H   0  0  0  0  0  0  0  0  0  0  0  0
   16.5609   -8.5008   19.1618 H   0  0  0  0  0  0  0  0  0  0  0  0
 21 22  1  0  0  0
 22 23  2  0  0  0
 22 16  1  0  0  0
 16 17  2  0  0  0
 17 18  1  0  0  0
 18 19  1  0  0  0
 19 15  1  0  0  0
 15  1  1  0  0  0
  1  3  1  0  0  0
  3  4  2  0  0  0
  4  5  1  0  0  0
  5  6  2  0  0  0
  6  7  1  0  0  0
  7  8  2  0  0  0
  8  9  1  0  0  0
  9 10  1  0  0  0
  9 11  2  0  0  0
 11 12  1  0  0  0
 11 13  1  0  0  0
 13 14  2  0  0  0
 19 20  2  0  0  0
 20 16  1  0  0  0
 14  3  1  0  0  0
 14  7  1  0  0  0
 21 24  1  0  0  0
 21 25  1  0  0  0
  1  2  1  0  0  0
M  END
>  <minimizedAffinity>
-7.63459

>  <minimizedRMSD>
1.28903

$$$$
CSSS00159463716 MCULE-5122563785 MolPort-005-038-232 PubChem-45189548


 32 35  0  0  0  0  0  0  0  0999 V2000
   16.6902   -9.3123   16.0715 C   0  0  0  0  0  0  0  0  0  0  0  0
   16.6079   -9.6170   14.7084 C   0  0  0  0  0  0  0  0  0  0  0  0
   17.7696   -9.8637   13.9670 C   0  0  0  0  0  0  0  0  0  0  0  0
   19.0194   -9.8099   14.5922 C   0  0  0  0  0  0  0  0  0  0  0  0
   19.1095   -9.5096   15.9538 C   0  0  0  0  0  0  0  0  0  0  0  0
   17.9490   -9.2618   16.6925 C   0  0  0  0  0  0  0  0  0  0  0  0
   15.5127   -9.0551   16.7785 O   0  0  0  0  0  0  0  0  0  0  0  0
   14.9972   -7.7410   16.9596 C   0  0  0  0  0  0  0  0  0  0  0  0
   15.6344   -8.1648   19.2249 O   0  0  0  0  0  0  0  0  0  0  0  0
   14.7185   -7.4699   18.4333 C   0  0  0  0  0  0  0  0  0  0  0  0
   16.5361   -7.9027   18.9818 H   0  0  0  0  0  0  0  0  0  0  0  0
   13.2890   -7.8797   18.8126 C   0  0  0  0  0  0  0  0  0  0  0  0
   12.6287   -6.9466   19.7343 N   0  0  0  0  0  0  0  0  0  0  0  0
   13.1378   -7.1481   21.0961 C   0  0  0  0  0  0  0  0  0  0  0  0
   12.5615   -6.0775   22.0262 C   0  0  0  0  0  0  0  0  0  0  0  0
   12.9413   -4.8024   21.5721 O   0  0  0  0  0  0  0  0  0  0  0  0
   12.2871   -4.5981   20.3435 C   0  0  0  0  0  0  0  0  0  0  0  0
   12.8463   -5.5632   19.2966 C   0  0  0  0  0  0  0  0  0  0  0  0
   17.6833  -10.1949   12.5174 C   0  0  0  0  0  0  0  0  0  0  0  0
   16.3295   -9.9823   12.0361 N   0  0  0  0  0  0  0  0  0  0  0  0
   16.1735   -8.9916   11.8502 H   0  0  0  0  0  0  0  0  0  0  0  0
   16.2002  -10.7489   10.8092 C   0  0  0  0  0  0  0  0  0  0  0  0
   15.6001   -9.8856    9.7110 C   0  0  0  0  0  0  0  0  0  0  0  0
   16.6565   -9.3502    8.8028 C   0  0  0  0  0  0  0  0  0  0  0  0
   17.6674   -8.4820    9.1998 C   0  0  0  0  0  0  0  0  0  0  0  0
   18.3737   -8.2373    8.0881 N   0  0  0  0  0  0  0  0  0  0  0  0
   19.4587   -7.4473    7.9078 C   0  0  0  0  0  0  0  0  0  0  0  0
   19.9974   -7.3665    6.6166 C   0  0  0  0  0  0  0  0  0  0  0  0
   19.3879   -8.1014    5.5803 C   0  0  0  0  0  0  0  0  0  0  0  0
   18.2908   -8.8757    5.8291 N   0  0  0  0  0  0  0  0  0  0  0  0
   17.8014   -8.9264    7.0929 C   0  0  0  0  0  0  0  0  0  0  0  0
   16.7257   -9.6344    7.4775 N   0  0  0  0  0  0  0  0  0  0  0  0
 10  9  1  0  0  0
 10  8  1  0  0  0
 10 12  1  0  0  0
  8  7  1  0  0  0
  7  1  1  0  0  0
  1  2  2  0  0  0
  2  3  1  0  0  0
  3 19  1  0  0  0
  3  4  2  0  0  0
 19 20  1  0  0  0
 20 22  1  0  0  0
 22 23  1  0  0  0
 23 24  1  0  0  0
 24 25  2  0  0  0
 25 26  1  0  0  0
 26 27  1  0  0  0
 27 28  2  0  0  0
 28 29  1  0  0  0
 29 30  2  0  0  0
 30 31  1  0  0  0
 31 32  2  0  0  0
 31 26  1  0  0  0
 32 24  1  0  0  0
  4  5  1  0  0  0
  5  6  2  0  0  0
  6  1  1  0  0  0
 12 13  1  0  0  0
 13 14  1  0  0  0
 14 15  1  0  0  0
 15 16  1  0  0  0
 16 17  1  0  0  0
 17 18  1  0  0  0
 18 13  1  0  0  0
  9 11  1  0  0  0
 20 21  1  0  0  0
M  END
>  <minimizedAffinity>
-7.62374

>  <minimizedRMSD>
2.15585

$$$$
CSSS02586546998 MolPort-047-847-961 PubChem-166334379 Z5001783726


 26 28  0  0  0  0  0  0  0  0999 V2000
   16.3317   -9.8759   11.9908 O   0  0  0  0  0  0  0  0  0  0  0  0
   14.5794  -10.1120   10.3681 C   0  0  0  0  0  0  0  0  0  0  0  0
   16.0454  -10.3437   10.6775 C   0  0  0  0  0  0  0  0  0  0  0  0
   16.8956   -9.6339    9.6740 C   0  0  0  0  0  0  0  0  0  0  0  0
   16.7593   -9.8170    8.3382 N   0  0  0  0  0  0  0  0  0  0  0  0
   17.6639   -9.0729    7.6535 C   0  0  0  0  0  0  0  0  0  0  0  0
   17.7703   -9.0493    6.2631 C   0  0  0  0  0  0  0  0  0  0  0  0
   18.7548   -8.2346    5.6784 C   0  0  0  0  0  0  0  0  0  0  0  0
   18.9156   -8.1809    3.9366 Cl  0  0  0  0  0  0  0  0  0  0  0  0
   19.6133   -7.4612    6.4843 C   0  0  0  0  0  0  0  0  0  0  0  0
   19.4984   -7.4925    7.8829 C   0  0  0  0  0  0  0  0  0  0  0  0
   18.5146   -8.3074    8.4356 C   0  0  0  0  0  0  0  0  0  0  0  0
   18.1450   -8.5497   10.0532 S   0  0  0  0  0  0  0  0  0  0  0  0
   17.2288  -10.5271   12.8444 C   0  0  0  0  0  0  0  0  0  0  0  0
   17.7603  -11.6182   12.4998 O   0  0  0  0  0  0  0  0  0  0  0  0
   17.5525   -9.9383   14.1505 C   0  0  0  0  0  0  0  0  0  0  0  0
   16.5460   -9.3591   14.9315 C   0  0  0  0  0  0  0  0  0  0  0  0
   16.8652   -8.7982   16.1740 C   0  0  0  0  0  0  0  0  0  0  0  0
   18.1935   -8.8277   16.6138 C   0  0  0  0  0  0  0  0  0  0  0  0
   19.1728   -9.4130   15.8095 C   0  0  0  0  0  0  0  0  0  0  0  0
   18.8358   -9.9505   14.6068 N   0  0  0  0  0  0  0  0  0  0  0  0
   15.8163   -8.1849   17.0073 C   0  0  0  0  0  0  0  0  0  0  0  0
   15.9236   -8.1977   18.4281 N   0  0  0  0  0  0  0  0  0  0  0  0
   14.8135   -7.6425   16.4711 O   0  0  0  0  0  0  0  0  0  0  0  0
   16.7024   -8.6184   18.8591 H   0  0  0  0  0  0  0  0  0  0  0  0
   15.2191   -7.7858   18.9787 H   0  0  0  0  0  0  0  0  0  0  0  0
  2  3  1  0  0  0
  3  1  1  0  0  0
  1 14  1  0  0  0
 14 15  2  0  0  0
 14 16  1  0  0  0
 16 17  2  0  0  0
 17 18  1  0  0  0
 18 19  2  0  0  0
 19 20  1  0  0  0
 20 21  2  0  0  0
 18 22  1  0  0  0
 22 23  1  0  0  0
 22 24  2  0  0  0
  3  4  1  0  0  0
  4  5  2  0  0  0
  5  6  1  0  0  0
  6  7  2  0  0  0
  7  8  1  0  0  0
  8  9  1  0  0  0
  8 10  2  0  0  0
 10 11  1  0  0  0
 11 12  2  0  0  0
 12 13  1  0  0  0
 21 16  1  0  0  0
 13  4  1  0  0  0
 12  6  1  0  0  0
 23 25  1  0  0  0
 23 26  1  0  0  0
M  END
>  <minimizedAffinity>
-7.61988

>  <minimizedRMSD>
1.28044

$$$$
CSC026533791 55839007 CSSS00026533791 MCULE-1736511100 MolPort-028-513-898 PubChem-60537487 Z739437750 ZINC000055839007 ZINC55839007


 27 29  0  0  0  0  0  0  0  0999 V2000
   17.5098  -10.0263   12.6137 N   0  0  0  0  0  0  0  0  0  0  0  0
   16.9038  -10.5280   12.0219 H   0  0  0  0  0  0  0  0  0  0  0  0
   15.9868   -8.0595   13.9872 C   0  0  0  0  0  0  0  0  0  0  0  0
   16.5928   -9.2000   14.7446 C   0  0  0  0  0  0  0  0  0  0  0  0
   17.3424  -10.1577   14.0309 C   0  0  0  0  0  0  0  0  0  0  0  0
   17.9219  -11.2362   14.7114 C   0  0  0  0  0  0  0  0  0  0  0  0
   17.7638  -11.3707   16.0876 C   0  0  0  0  0  0  0  0  0  0  0  0
   17.0243  -10.4274   16.7974 C   0  0  0  0  0  0  0  0  0  0  0  0
   16.4293   -9.3343   16.1501 C   0  0  0  0  0  0  0  0  0  0  0  0
   15.6578   -8.3761   16.9851 C   0  0  0  0  0  0  0  0  0  0  0  0
   16.0005   -8.1877   18.3559 N   0  0  0  0  0  0  0  0  0  0  0  0
   14.6968   -7.7171   16.5084 O   0  0  0  0  0  0  0  0  0  0  0  0
   16.7483   -8.6923   18.7501 H   0  0  0  0  0  0  0  0  0  0  0  0
   15.4893   -7.5531   18.9084 H   0  0  0  0  0  0  0  0  0  0  0  0
   18.5324   -9.1870   12.0072 C   0  0  0  0  0  0  0  0  0  0  0  0
   18.3429   -9.1556   10.5326 C   0  0  0  0  0  0  0  0  0  0  0  0
   17.2919   -9.8583    9.9505 C   0  0  0  0  0  0  0  0  0  0  0  0
   17.1219   -9.7907    8.5686 C   0  0  0  0  0  0  0  0  0  0  0  0
   16.1722  -10.4302    8.0386 O   0  0  0  0  0  0  0  0  0  0  0  0
   17.9761   -9.0389    7.8070 N   0  0  0  0  0  0  0  0  0  0  0  0
   17.8083   -8.9733    6.4524 C   0  0  0  0  0  0  0  0  0  0  0  0
   18.6689   -8.2092    5.6629 C   0  0  0  0  0  0  0  0  0  0  0  0
   18.4420   -8.1345    3.9293 Cl  0  0  0  0  0  0  0  0  0  0  0  0
   19.7092   -7.5060    6.2663 C   0  0  0  0  0  0  0  0  0  0  0  0
   19.8797   -7.5732    7.6477 C   0  0  0  0  0  0  0  0  0  0  0  0
   19.0028   -8.3472    8.4117 C   0  0  0  0  0  0  0  0  0  0  0  0
   19.1710   -8.4109    9.7578 N   0  0  0  0  0  0  0  0  0  0  0  0
  3  4  1  0  0  0
  4  5  2  0  0  0
  5  1  1  0  0  0
  5  6  1  0  0  0
  1 15  1  0  0  0
 15 16  1  0  0  0
 16 17  2  0  0  0
 17 18  1  0  0  0
 18 19  2  0  0  0
 18 20  1  0  0  0
 20 21  1  0  0  0
 21 22  2  0  0  0
 22 23  1  0  0  0
 22 24  1  0  0  0
 24 25  2  0  0  0
 25 26  1  0  0  0
 26 27  2  0  0  0
 26 20  1  0  0  0
 27 16  1  0  0  0
  6  7  2  0  0  0
  7  8  1  0  0  0
  8  9  2  0  0  0
  9 10  1  0  0  0
  9  4  1  0  0  0
 10 11  1  0  0  0
 10 12  2  0  0  0
  1  2  1  0  0  0
 11 13  1  0  0  0
 11 14  1  0  0  0
M  END
>  <minimizedAffinity>
-7.61612

>  <minimizedRMSD>
0.75070

$$$$
20778584 CSSS00160417667 MCULE-1308966020 MolPort-005-052-143 PubChem-25386728 ZINC000020778584


 34 38  0  0  0  0  0  0  0  0999 V2000
   16.8418   -9.4912   17.0723 C   0  0  0  0  0  0  0  0  0  0  0  0
   16.9015  -10.8682   17.3126 C   0  0  0  0  0  0  0  0  0  0  0  0
   17.4311  -11.7338   16.3514 C   0  0  0  0  0  0  0  0  0  0  0  0
   17.9104  -11.2281   15.1403 C   0  0  0  0  0  0  0  0  0  0  0  0
   18.4444  -12.1750   14.1054 C   0  0  0  0  0  0  0  0  0  0  0  0
   19.2298  -11.4226   13.0330 C   0  0  0  0  0  0  0  0  0  0  0  0
   18.4352  -10.2966   12.5466 N   0  0  0  0  0  0  0  0  0  0  0  0
   18.3705   -9.2784   13.5973 C   0  0  0  0  0  0  0  0  0  0  0  0
   17.8338   -9.8455   14.8821 C   0  0  0  0  0  0  0  0  0  0  0  0
   17.3128   -8.9851   15.8516 C   0  0  0  0  0  0  0  0  0  0  0  0
   15.1356   -7.7971   17.9641 C   0  0  0  0  0  0  0  0  0  0  0  0
   14.5211   -7.6851   16.8706 O   0  0  0  0  0  0  0  0  0  0  0  0
   16.2900   -8.6394   18.0840 N   0  0  0  0  0  0  0  0  0  0  0  0
   16.7523   -8.6316   18.9532 H   0  0  0  0  0  0  0  0  0  0  0  0
   14.6696   -7.0099   19.1431 C   0  0  0  0  0  0  0  0  0  0  0  0
   14.7536   -7.8211   20.4326 C   0  0  0  0  0  0  0  0  0  0  0  0
   14.0010   -6.3324   22.3366 C   0  0  0  0  0  0  0  0  0  0  0  0
   15.0398   -6.9560   21.6202 C   0  0  0  0  0  0  0  0  0  0  0  0
   16.3700   -6.7683   22.0137 C   0  0  0  0  0  0  0  0  0  0  0  0
   16.6742   -5.9590   23.1107 C   0  0  0  0  0  0  0  0  0  0  0  0
   15.6485   -5.3338   23.8222 C   0  0  0  0  0  0  0  0  0  0  0  0
   14.3182   -5.5196   23.4383 C   0  0  0  0  0  0  0  0  0  0  0  0
   11.9014   -5.5223   21.3019 C   0  0  0  0  0  0  0  0  0  0  0  0
   12.6720   -6.5296   21.9430 O   0  0  0  0  0  0  0  0  0  0  0  0
   19.1642   -9.7061   11.4360 C   0  0  0  0  0  0  0  0  0  0  0  0
   18.2451   -9.4721   10.2823 C   0  0  0  0  0  0  0  0  0  0  0  0
   18.7130   -8.8528    9.1071 C   0  0  0  0  0  0  0  0  0  0  0  0
   17.8379   -8.6267    8.0180 C   0  0  0  0  0  0  0  0  0  0  0  0
   16.4849   -9.0140    8.0910 C   0  0  0  0  0  0  0  0  0  0  0  0
   16.0641   -9.6194    9.2712 C   0  0  0  0  0  0  0  0  0  0  0  0
   14.8462  -10.0727    9.5966 N   0  0  0  0  0  0  0  0  0  0  0  0
   14.9884  -10.5415   10.8127 O   0  0  0  0  0  0  0  0  0  0  0  0
   16.2006  -10.4272   11.2984 N   0  0  0  0  0  0  0  0  0  0  0  0
   16.8985   -9.8371   10.3171 C   0  0  0  0  0  0  0  0  0  0  0  0
 23 24  1  0  0  0
 24 17  1  0  0  0
 17 18  2  0  0  0
 18 16  1  0  0  0
 16 15  1  0  0  0
 15 11  1  0  0  0
 11 12  2  0  0  0
 11 13  1  0  0  0
 13  1  1  0  0  0
  1  2  2  0  0  0
  2  3  1  0  0  0
  3  4  2  0  0  0
  4  5  1  0  0  0
  5  6  1  0  0  0
  6  7  1  0  0  0
  7 25  1  0  0  0
 25 26  1  0  0  0
 26 27  2  0  0  0
 27 28  1  0  0  0
 28 29  2  0  0  0
 29 30  1  0  0  0
 30 31  2  0  0  0
 31 32  1  0  0  0
 32 33  1  0  0  0
 33 34  2  0  0  0
  7  8  1  0  0  0
  8  9  1  0  0  0
  9 10  2  0  0  0
 18 19  1  0  0  0
 19 20  2  0  0  0
 20 21  1  0  0  0
 21 22  2  0  0  0
 22 17  1  0  0  0
 10  1  1  0  0  0
  9  4  1  0  0  0
 34 26  1  0  0  0
 34 30  1  0  0  0
 13 14  1  0  0  0
M  END
>  <minimizedAffinity>
-7.61468

>  <minimizedRMSD>
3.28075

$$$$
CSC073976593 CSSS00073976593 MCULE-4274889114 MolPort-027-922-142 PubChem-75389942 Z1518011096 ZINC000095440157 ZINC95440157


 25 28  0  0  0  0  0  0  0  0999 V2000
   16.9352  -10.0462   15.9162 C   0  0  0  0  0  0  0  0  0  0  0  0
   17.5951  -11.1702   16.4308 C   0  0  0  0  0  0  0  0  0  0  0  0
   18.2580  -12.0525   15.5734 C   0  0  0  0  0  0  0  0  0  0  0  0
   18.2652  -11.8163   14.1961 C   0  0  0  0  0  0  0  0  0  0  0  0
   17.6107  -10.6987   13.6698 C   0  0  0  0  0  0  0  0  0  0  0  0
   16.9464   -9.8155   14.5340 C   0  0  0  0  0  0  0  0  0  0  0  0
   13.5601   -7.0785   17.9067 C   0  0  0  0  0  0  0  0  0  0  0  0
   14.8047   -7.8549   17.6658 C   0  0  0  0  0  0  0  0  0  0  0  0
   14.9944   -8.6427   16.5908 N   0  0  0  0  0  0  0  0  0  0  0  0
   16.2370   -9.1165   16.8179 C   0  0  0  0  0  0  0  0  0  0  0  0
   16.7668   -8.6429   17.9624 N   0  0  0  0  0  0  0  0  0  0  0  0
   15.8600   -7.8450   18.4982 N   0  0  0  0  0  0  0  0  0  0  0  0
   15.9413   -7.3423   19.3408 H   0  0  0  0  0  0  0  0  0  0  0  0
   17.6323  -10.4775   12.2582 N   0  0  0  0  0  0  0  0  0  0  0  0
   17.9497  -11.2027   11.6729 H   0  0  0  0  0  0  0  0  0  0  0  0
   17.2059   -9.2275   11.6480 C   0  0  0  0  0  0  0  0  0  0  0  0
   17.0666   -9.4115   10.1756 C   0  0  0  0  0  0  0  0  0  0  0  0
   16.1995  -10.2873    9.5382 C   0  0  0  0  0  0  0  0  0  0  0  0
   16.4085  -10.2072    8.1983 N   0  0  0  0  0  0  0  0  0  0  0  0
   17.3954   -9.2984    8.0725 C   0  0  0  0  0  0  0  0  0  0  0  0
   17.9782   -8.8704    6.8845 C   0  0  0  0  0  0  0  0  0  0  0  0
   18.9784   -7.9443    6.9655 N   0  0  0  0  0  0  0  0  0  0  0  0
   19.4054   -7.4458    8.1667 C   0  0  0  0  0  0  0  0  0  0  0  0
   18.8067   -7.8890    9.3554 C   0  0  0  0  0  0  0  0  0  0  0  0
   17.8148   -8.8067    9.2441 N   0  0  0  0  0  0  0  0  0  0  0  0
  7  8  1  0  0  0
  8  9  2  0  0  0
  9 10  1  0  0  0
 10 11  2  0  0  0
 10  1  1  0  0  0
 11 12  1  0  0  0
 12  8  1  0  0  0
  1  2  2  0  0  0
  2  3  1  0  0  0
  3  4  2  0  0  0
  4  5  1  0  0  0
  5 14  1  0  0  0
  5  6  2  0  0  0
 14 16  1  0  0  0
 16 17  1  0  0  0
 17 18  2  0  0  0
 18 19  1  0  0  0
 19 20  2  0  0  0
 20 21  1  0  0  0
 21 22  2  0  0  0
 22 23  1  0  0  0
 23 24  2  0  0  0
 24 25  1  0  0  0
 25 17  1  0  0  0
 25 20  1  0  0  0
  6  1  1  0  0  0
 12 13  1  0  0  0
 14 15  1  0  0  0
M  END
>  <minimizedAffinity>
-7.61088

>  <minimizedRMSD>
0.57965

$$$$
CSC026989536 42925717 CSSS00026989536 MCULE-7690052263 MolPort-020-112-963 PubChem-56812717 Z407301130 ZINC000042925717 ZINC42925717


 24 25  0  0  0  0  0  0  0  0999 V2000
   15.2443  -10.5391    9.9825 C   0  0  0  0  0  0  0  0  0  0  0  0
   16.4432   -9.8162    9.4681 C   0  0  0  0  0  0  0  0  0  0  0  0
   17.4481   -9.2989   10.3268 C   0  0  0  0  0  0  0  0  0  0  0  0
   18.5372   -8.6344    9.7452 C   0  0  0  0  0  0  0  0  0  0  0  0
   18.6268   -8.4886    8.3641 C   0  0  0  0  0  0  0  0  0  0  0  0
   19.7121   -7.8263    7.7849 C   0  0  0  0  0  0  0  0  0  0  0  0
   19.7825   -7.6906    6.3946 C   0  0  0  0  0  0  0  0  0  0  0  0
   21.1406   -6.8617    5.6661 Cl  0  0  0  0  0  0  0  0  0  0  0  0
   18.7692   -8.2164    5.5851 C   0  0  0  0  0  0  0  0  0  0  0  0
   17.6815   -8.8799    6.1626 C   0  0  0  0  0  0  0  0  0  0  0  0
   17.6069   -9.0178    7.5516 C   0  0  0  0  0  0  0  0  0  0  0  0
   16.5549   -9.6600    8.1202 N   0  0  0  0  0  0  0  0  0  0  0  0
   17.4120   -9.4188   11.8067 C   0  0  0  0  0  0  0  0  0  0  0  0
   16.5351   -8.8186   12.4853 O   0  0  0  0  0  0  0  0  0  0  0  0
   18.3863  -10.2288   12.4748 N   0  0  0  0  0  0  0  0  0  0  0  0
   19.0453  -10.7174   11.9306 H   0  0  0  0  0  0  0  0  0  0  0  0
   18.4446  -10.3612   13.9246 C   0  0  0  0  0  0  0  0  0  0  0  0
   17.0476  -10.5151   14.5041 C   0  0  0  0  0  0  0  0  0  0  0  0
   17.0722  -10.2918   16.0064 C   0  0  0  0  0  0  0  0  0  0  0  0
   16.4291   -8.9921   16.3448 C   0  0  0  0  0  0  0  0  0  0  0  0
   16.3134   -8.5931   17.7052 N   0  0  0  0  0  0  0  0  0  0  0  0
   16.0028   -8.2376   15.4315 O   0  0  0  0  0  0  0  0  0  0  0  0
   16.6462   -9.1817   18.4208 H   0  0  0  0  0  0  0  0  0  0  0  0
   15.9006   -7.7284   17.9311 H   0  0  0  0  0  0  0  0  0  0  0  0
  1  2  1  0  0  0
  2  3  2  0  0  0
  3  4  1  0  0  0
  3 13  1  0  0  0
  4  5  2  0  0  0
  5  6  1  0  0  0
  6  7  2  0  0  0
  7  8  1  0  0  0
  7  9  1  0  0  0
  9 10  2  0  0  0
 10 11  1  0  0  0
 11 12  2  0  0  0
 11  5  1  0  0  0
 12  2  1  0  0  0
 13 14  2  0  0  0
 13 15  1  0  0  0
 15 17  1  0  0  0
 17 18  1  0  0  0
 18 19  1  0  0  0
 19 20  1  0  0  0
 20 21  1  0  0  0
 20 22  2  0  0  0
 15 16  1  0  0  0
 21 23  1  0  0  0
 21 24  1  0  0  0
M  END
>  <minimizedAffinity>
-7.61028

>  <minimizedRMSD>
1.36623

$$$$
8583001 CHEMBL1884010 CSSS00132908347 LN01059960 MCULE-3663123971 MolPort-004-901-648 PubChem-16033913 ZINC000008583001


 32 35  0  0  0  0  0  0  0  0999 V2000
   19.0494   -8.0337    7.4376 N   0  0  0  0  0  0  0  0  0  0  0  0
   19.8070   -7.4591    8.3693 N   0  0  0  0  0  0  0  0  0  0  0  0
   19.3632   -7.8203    9.6032 C   0  0  0  0  0  0  0  0  0  0  0  0
   18.2817   -8.6566    9.4093 C   0  0  0  0  0  0  0  0  0  0  0  0
   17.4287   -9.3279   10.2733 C   0  0  0  0  0  0  0  0  0  0  0  0
   16.4349  -10.0881    9.7207 N   0  0  0  0  0  0  0  0  0  0  0  0
   16.2849  -10.1856    8.3607 C   0  0  0  0  0  0  0  0  0  0  0  0
   17.1318   -9.5194    7.5189 N   0  0  0  0  0  0  0  0  0  0  0  0
   18.1161   -8.7662    8.0691 C   0  0  0  0  0  0  0  0  0  0  0  0
   19.2475   -7.8598    6.0230 C   0  0  0  0  0  0  0  0  0  0  0  0
   20.2962   -7.0512    5.5581 C   0  0  0  0  0  0  0  0  0  0  0  0
   20.5010   -6.8730    4.1869 C   0  0  0  0  0  0  0  0  0  0  0  0
   19.6584   -7.5019    3.2670 C   0  0  0  0  0  0  0  0  0  0  0  0
   18.6111   -8.3091    3.7182 C   0  0  0  0  0  0  0  0  0  0  0  0
   18.4070   -8.4870    5.0894 C   0  0  0  0  0  0  0  0  0  0  0  0
   19.8759   -7.3125    1.8093 C   0  0  0  0  0  0  0  0  0  0  0  0
   17.5839   -9.2229   11.6887 N   0  0  0  0  0  0  0  0  0  0  0  0
   17.8026   -8.3467   12.0808 H   0  0  0  0  0  0  0  0  0  0  0  0
   17.4290  -10.3697   12.5695 C   0  0  0  0  0  0  0  0  0  0  0  0
   18.2457  -10.1704   13.8374 C   0  0  0  0  0  0  0  0  0  0  0  0
   17.4152   -9.5985   14.9394 C   0  0  0  0  0  0  0  0  0  0  0  0
   16.5340   -8.5369   14.6956 C   0  0  0  0  0  0  0  0  0  0  0  0
   15.7767   -8.0000   15.7404 C   0  0  0  0  0  0  0  0  0  0  0  0
   15.8998   -8.5182   17.0345 C   0  0  0  0  0  0  0  0  0  0  0  0
   16.7888   -9.5702   17.2805 C   0  0  0  0  0  0  0  0  0  0  0  0
   17.5463  -10.1076   16.2355 C   0  0  0  0  0  0  0  0  0  0  0  0
   14.9566   -7.8464   18.3521 S   0  0  0  0  0  0  0  0  0  0  0  0
   16.0190   -7.2464   19.5745 N   0  0  0  0  0  0  0  0  0  0  0  0
   14.1001   -6.7200   17.8453 O   0  0  0  0  0  0  0  0  0  0  0  0
   14.0702   -8.9128   18.9307 O   0  0  0  0  0  0  0  0  0  0  0  0
   16.6191   -6.5230   19.1783 H   0  0  0  0  0  0  0  0  0  0  0  0
   16.5954   -8.0098   19.9287 H   0  0  0  0  0  0  0  0  0  0  0  0
  1 10  1  0  0  0
 10 11  2  0  0  0
 11 12  1  0  0  0
 12 13  2  0  0  0
 13 14  1  0  0  0
 14 15  2  0  0  0
 13 16  1  0  0  0
  1  2  1  0  0  0
  2  3  2  0  0  0
  3  4  1  0  0  0
  4  5  2  0  0  0
  5 17  1  0  0  0
 17 19  1  0  0  0
 19 20  1  0  0  0
 20 21  1  0  0  0
 21 22  2  0  0  0
 22 23  1  0  0  0
 23 24  2  0  0  0
 24 25  1  0  0  0
 25 26  2  0  0  0
 24 27  1  0  0  0
 27 28  1  0  0  0
 27 29  2  0  0  0
 27 30  2  0  0  0
  5  6  1  0  0  0
  6  7  2  0  0  0
  7  8  1  0  0  0
  8  9  2  0  0  0
  9  1  1  0  0  0
 15 10  1  0  0  0
  9  4  1  0  0  0
 26 21  1  0  0  0
 17 18  1  0  0  0
 28 31  1  0  0  0
 28 32  1  0  0  0
M  END
>  <minimizedAffinity>
-7.59280

>  <minimizedRMSD>
1.86070

$$$$
CSC027030130 9219498 CSSS00027030130 MCULE-2462162175 MolPort-004-222-498 PubChem-16383957 Z102415144 ZINC000009219498 ZINC09219498


 37 40  0  0  0  0  0  0  0  0999 V2000
   17.3107   -9.8562   16.1001 C   0  0  0  0  0  0  0  0  0  0  0  0
   17.3221  -10.5822   17.3036 C   0  0  0  0  0  0  0  0  0  0  0  0
   17.7435  -11.9115   17.3317 C   0  0  0  0  0  0  0  0  0  0  0  0
   18.1575  -12.5342   16.1557 C   0  0  0  0  0  0  0  0  0  0  0  0
   18.1493  -11.8268   14.9528 C   0  0  0  0  0  0  0  0  0  0  0  0
   17.7296  -10.4881   14.9047 C   0  0  0  0  0  0  0  0  0  0  0  0
   17.7403   -9.7918   13.5964 C   0  0  0  0  0  0  0  0  0  0  0  0
   16.7372   -9.1337   13.2078 O   0  0  0  0  0  0  0  0  0  0  0  0
   18.9007   -9.8698   12.7610 N   0  0  0  0  0  0  0  0  0  0  0  0
   19.6981  -10.3328   13.1060 H   0  0  0  0  0  0  0  0  0  0  0  0
   18.9540   -9.2948   11.4236 C   0  0  0  0  0  0  0  0  0  0  0  0
   17.5614   -8.8782   10.9667 C   0  0  0  0  0  0  0  0  0  0  0  0
   17.4048   -9.0888    9.5313 N   0  0  0  0  0  0  0  0  0  0  0  0
   16.4760   -9.8538    8.9059 C   0  0  0  0  0  0  0  0  0  0  0  0
   15.4379  -10.6487    9.6213 C   0  0  0  0  0  0  0  0  0  0  0  0
   16.5840   -9.8382    7.5512 N   0  0  0  0  0  0  0  0  0  0  0  0
   17.6308   -9.0161    7.3446 C   0  0  0  0  0  0  0  0  0  0  0  0
   18.1818   -8.6358    6.1236 C   0  0  0  0  0  0  0  0  0  0  0  0
   19.2792   -7.7547    6.1540 C   0  0  0  0  0  0  0  0  0  0  0  0
   19.7893   -7.2825    7.3847 C   0  0  0  0  0  0  0  0  0  0  0  0
   19.2098   -7.6859    8.6019 C   0  0  0  0  0  0  0  0  0  0  0  0
   18.1264   -8.5608    8.5327 C   0  0  0  0  0  0  0  0  0  0  0  0
   16.8824   -8.5211   16.0817 O   0  0  0  0  0  0  0  0  0  0  0  0
   15.5204   -8.1326   15.9312 C   0  0  0  0  0  0  0  0  0  0  0  0
   15.7185   -7.9585   18.4398 N   0  0  0  0  0  0  0  0  0  0  0  0
   14.9478   -7.7439   17.2508 C   0  0  0  0  0  0  0  0  0  0  0  0
   13.8078   -7.2107   17.2969 O   0  0  0  0  0  0  0  0  0  0  0  0
   16.5898   -8.4026   18.3266 H   0  0  0  0  0  0  0  0  0  0  0  0
   14.7065   -6.8375   22.4110 C   0  0  0  0  0  0  0  0  0  0  0  0
   13.7415   -7.4384   21.5867 C   0  0  0  0  0  0  0  0  0  0  0  0
   14.0625   -7.8130   20.2800 C   0  0  0  0  0  0  0  0  0  0  0  0
   15.3525   -7.5935   19.7771 C   0  0  0  0  0  0  0  0  0  0  0  0
   16.3128   -6.9943   20.5972 C   0  0  0  0  0  0  0  0  0  0  0  0
   15.9975   -6.6177   21.9062 C   0  0  0  0  0  0  0  0  0  0  0  0
   17.2363   -5.8696   22.8981 Cl  0  0  0  0  0  0  0  0  0  0  0  0
   13.5820   -5.3362   24.0273 C   0  0  0  0  0  0  0  0  0  0  0  0
   14.4033   -6.4551   23.7223 O   0  0  0  0  0  0  0  0  0  0  0  0
 36 37  1  0  0  0
 37 29  1  0  0  0
 29 30  2  0  0  0
 30 31  1  0  0  0
 31 32  2  0  0  0
 32 25  1  0  0  0
 32 33  1  0  0  0
 25 26  1  0  0  0
 26 27  2  0  0  0
 26 24  1  0  0  0
 24 23  1  0  0  0
 23  1  1  0  0  0
  1  2  2  0  0  0
  2  3  1  0  0  0
  3  4  2  0  0  0
  4  5  1  0  0  0
  5  6  2  0  0  0
  6  7  1  0  0  0
  6  1  1  0  0  0
  7  8  2  0  0  0
  7  9  1  0  0  0
  9 11  1  0  0  0
 11 12  1  0  0  0
 12 13  1  0  0  0
 13 14  1  0  0  0
 14 15  1  0  0  0
 14 16  2  0  0  0
 16 17  1  0  0  0
 17 18  2  0  0  0
 18 19  1  0  0  0
 19 20  2  0  0  0
 20 21  1  0  0  0
 21 22  2  0  0  0
 22 13  1  0  0  0
 22 17  1  0  0  0
 33 34  2  0  0  0
 34 35  1  0  0  0
 34 29  1  0  0  0
 25 28  1  0  0  0
  9 10  1  0  0  0
M  END
>  <minimizedAffinity>
-7.57989

>  <minimizedRMSD>
2.46641

$$$$
CSC027476431 32824103 CSSS00027476431 MCULE-5159493707 MolPort-009-293-039 PubChem-40059099 Z367574506 ZINC000032824103 ZINC32824103


 29 31  0  0  0  0  0  0  0  0999 V2000
   16.6187  -10.3733   12.0745 N   0  0  0  0  0  0  0  0  0  0  0  0
   15.6491  -10.2864   12.3789 H   0  0  0  0  0  0  0  0  0  0  0  0
   17.6596  -10.4997   13.4506 S   0  0  0  0  0  0  0  0  0  0  0  0
   18.9818   -9.8463   13.1608 O   0  0  0  0  0  0  0  0  0  0  0  0
   17.8848  -11.9504   13.7771 O   0  0  0  0  0  0  0  0  0  0  0  0
   15.6852   -8.3990   16.9858 C   0  0  0  0  0  0  0  0  0  0  0  0
   16.4685   -9.5440   17.1914 C   0  0  0  0  0  0  0  0  0  0  0  0
   17.0750  -10.1895   16.1106 C   0  0  0  0  0  0  0  0  0  0  0  0
   16.9045   -9.6955   14.8135 C   0  0  0  0  0  0  0  0  0  0  0  0
   16.1242   -8.5546   14.6017 C   0  0  0  0  0  0  0  0  0  0  0  0
   15.5174   -7.9091   15.6826 C   0  0  0  0  0  0  0  0  0  0  0  0
   14.9219   -7.3070   20.6127 C   0  0  0  0  0  0  0  0  0  0  0  0
   15.5229   -7.9485   19.4553 N   0  0  0  0  0  0  0  0  0  0  0  0
   15.0449   -7.7206   18.1265 C   0  0  0  0  0  0  0  0  0  0  0  0
   14.0738   -6.9390   17.9319 O   0  0  0  0  0  0  0  0  0  0  0  0
   16.2833   -8.5592   19.5901 H   0  0  0  0  0  0  0  0  0  0  0  0
   17.0128   -9.1875   11.3308 C   0  0  0  0  0  0  0  0  0  0  0  0
   18.3757   -9.4024   10.6934 C   0  0  0  0  0  0  0  0  0  0  0  0
   18.3249   -9.1418    9.2199 C   0  0  0  0  0  0  0  0  0  0  0  0
   17.3053   -9.6858    8.4166 C   0  0  0  0  0  0  0  0  0  0  0  0
   16.2301  -10.5421    8.9950 C   0  0  0  0  0  0  0  0  0  0  0  0
   17.2965   -9.4259    7.0816 N   0  0  0  0  0  0  0  0  0  0  0  0
   18.2521   -8.6501    6.5092 C   0  0  0  0  0  0  0  0  0  0  0  0
   18.2272   -8.3875    5.1372 C   0  0  0  0  0  0  0  0  0  0  0  0
   19.2193   -7.5843    4.5651 C   0  0  0  0  0  0  0  0  0  0  0  0
   20.2354   -7.0452    5.3626 C   0  0  0  0  0  0  0  0  0  0  0  0
   20.2648   -7.3064    6.7364 C   0  0  0  0  0  0  0  0  0  0  0  0
   19.2750   -8.1072    7.3120 C   0  0  0  0  0  0  0  0  0  0  0  0
   19.2860   -8.3687    8.6440 N   0  0  0  0  0  0  0  0  0  0  0  0
 12 13  1  0  0  0
 13 14  1  0  0  0
 14 15  2  0  0  0
 14  6  1  0  0  0
  6  7  2  0  0  0
  7  8  1  0  0  0
  8  9  2  0  0  0
  9 10  1  0  0  0
  9  3  1  0  0  0
 10 11  2  0  0  0
 11  6  1  0  0  0
  3  4  2  0  0  0
  3  5  2  0  0  0
  3  1  1  0  0  0
  1 17  1  0  0  0
 17 18  1  0  0  0
 18 19  1  0  0  0
 19 20  2  0  0  0
 20 21  1  0  0  0
 20 22  1  0  0  0
 22 23  2  0  0  0
 23 24  1  0  0  0
 24 25  2  0  0  0
 25 26  1  0  0  0
 26 27  2  0  0  0
 27 28  1  0  0  0
 28 29  2  0  0  0
 28 23  1  0  0  0
 29 19  1  0  0  0
 13 16  1  0  0  0
  1  2  1  0  0  0
M  END
>  <minimizedAffinity>
-7.57903

>  <minimizedRMSD>
1.91032

$$$$
CSC059267556 CSSS00059267556 Z914074682


 25 27  0  0  0  0  0  0  0  0999 V2000
   17.0380   -9.2981   12.9137 N   0  0  0  0  0  0  0  0  0  0  0  0
   17.4475  -10.1448   11.8358 C   0  0  0  0  0  0  0  0  0  0  0  0
   18.0901  -11.2038   12.0703 O   0  0  0  0  0  0  0  0  0  0  0  0
   16.5669   -8.4604   12.7002 H   0  0  0  0  0  0  0  0  0  0  0  0
   17.1271   -9.7830   10.4477 C   0  0  0  0  0  0  0  0  0  0  0  0
   16.0222  -10.2084    9.7891 N   0  0  0  0  0  0  0  0  0  0  0  0
   16.0273   -9.7044    8.5577 N   0  0  0  0  0  0  0  0  0  0  0  0
   17.1383   -8.9578    8.4364 C   0  0  0  0  0  0  0  0  0  0  0  0
   17.5612   -8.2384    7.3219 C   0  0  0  0  0  0  0  0  0  0  0  0
   18.7695   -7.5245    7.4330 C   0  0  0  0  0  0  0  0  0  0  0  0
   19.5114   -7.5478    8.6358 C   0  0  0  0  0  0  0  0  0  0  0  0
   19.0556   -8.2854    9.7442 C   0  0  0  0  0  0  0  0  0  0  0  0
   17.8561   -8.9799    9.5984 C   0  0  0  0  0  0  0  0  0  0  0  0
   15.3441   -9.8511    7.8642 H   0  0  0  0  0  0  0  0  0  0  0  0
   16.8186   -9.2938   17.2050 C   0  0  0  0  0  0  0  0  0  0  0  0
   16.2634  -10.4930   16.4278 C   0  0  0  0  0  0  0  0  0  0  0  0
   16.0083  -10.1470   14.9615 C   0  0  0  0  0  0  0  0  0  0  0  0
   17.2859   -9.6185   14.3114 C   0  0  0  0  0  0  0  0  0  0  0  0
   17.7494   -8.3621   15.0399 C   0  0  0  0  0  0  0  0  0  0  0  0
   18.0361   -8.6749   16.5082 C   0  0  0  0  0  0  0  0  0  0  0  0
   14.4534   -7.0296   19.2786 C   0  0  0  0  0  0  0  0  0  0  0  0
   15.4639   -8.0007   18.8947 N   0  0  0  0  0  0  0  0  0  0  0  0
   15.7636   -8.2794   17.5273 C   0  0  0  0  0  0  0  0  0  0  0  0
   15.1476   -7.6789   16.6045 O   0  0  0  0  0  0  0  0  0  0  0  0
   15.9566   -8.4808   19.5990 H   0  0  0  0  0  0  0  0  0  0  0  0
 21 22  1  0  0  0
 22 23  1  0  0  0
 23 24  2  0  0  0
 23 15  1  0  0  0
 15 16  1  0  0  0
 16 17  1  0  0  0
 17 18  1  0  0  0
 18 19  1  0  0  0
 19 20  1  0  0  0
 18  1  1  0  0  0
  1  2  1  0  0  0
  2  3  2  0  0  0
  2  5  1  0  0  0
  5  6  2  0  0  0
  6  7  1  0  0  0
  7  8  1  0  0  0
  8  9  2  0  0  0
  9 10  1  0  0  0
 10 11  2  0  0  0
 11 12  1  0  0  0
 12 13  2  0  0  0
 20 15  1  0  0  0
 13  5  1  0  0  0
 13  8  1  0  0  0
 22 25  1  0  0  0
  1  4  1  0  0  0
  7 14  1  0  0  0
M  END
>  <minimizedAffinity>
-7.55801

>  <minimizedRMSD>
1.17624

$$$$
CSC027217470 11485686 CSSS00027217470 MCULE-9747466545 MolPort-005-717-069 PubChem-17481530 Z193398164 ZINC000011485686 ZINC11485686


 30 33  0  0  0  0  0  0  0  0999 V2000
   17.9932  -10.3376   12.8916 C   0  0  0  0  0  0  0  0  0  0  0  0
   18.7672  -11.3223   13.0382 O   0  0  0  0  0  0  0  0  0  0  0  0
   17.5872   -9.5819   14.0373 N   0  0  0  0  0  0  0  0  0  0  0  0
   16.9545   -8.8383   13.9108 H   0  0  0  0  0  0  0  0  0  0  0  0
   15.6614  -10.0087   10.0491 N   0  0  0  0  0  0  0  0  0  0  0  0
   16.2230  -10.3103   11.2210 N   0  0  0  0  0  0  0  0  0  0  0  0
   17.4913   -9.9451   11.5513 C   0  0  0  0  0  0  0  0  0  0  0  0
   18.2504   -9.2173   10.6081 C   0  0  0  0  0  0  0  0  0  0  0  0
   19.5658   -8.7964   10.8653 C   0  0  0  0  0  0  0  0  0  0  0  0
   20.2885   -8.0811    9.9080 C   0  0  0  0  0  0  0  0  0  0  0  0
   19.7058   -7.7763    8.6777 C   0  0  0  0  0  0  0  0  0  0  0  0
   18.3998   -8.1860    8.4041 C   0  0  0  0  0  0  0  0  0  0  0  0
   17.6650   -8.9044    9.3604 C   0  0  0  0  0  0  0  0  0  0  0  0
   16.3542   -9.3187    9.0948 C   0  0  0  0  0  0  0  0  0  0  0  0
   15.8189   -9.0591    7.9802 O   0  0  0  0  0  0  0  0  0  0  0  0
   13.4602  -10.3273   11.0651 C   0  0  0  0  0  0  0  0  0  0  0  0
   14.2986  -10.4686    9.8069 C   0  0  0  0  0  0  0  0  0  0  0  0
   18.0696   -9.8653   15.3827 C   0  0  0  0  0  0  0  0  0  0  0  0
   17.5201   -8.8501   16.3719 C   0  0  0  0  0  0  0  0  0  0  0  0
   16.0673   -8.5401   16.0571 C   0  0  0  0  0  0  0  0  0  0  0  0
   15.3708   -8.0550   17.2808 C   0  0  0  0  0  0  0  0  0  0  0  0
   14.1374   -7.4842   17.2486 N   0  0  0  0  0  0  0  0  0  0  0  0
   13.9084   -7.2232   18.5430 C   0  0  0  0  0  0  0  0  0  0  0  0
   12.7804   -6.6296   19.1039 C   0  0  0  0  0  0  0  0  0  0  0  0
   12.7668   -6.4592   20.5009 C   0  0  0  0  0  0  0  0  0  0  0  0
   13.8635   -6.8804   21.2862 C   0  0  0  0  0  0  0  0  0  0  0  0
   14.9869   -7.4773   20.6839 C   0  0  0  0  0  0  0  0  0  0  0  0
   14.9653   -7.6292   19.2998 C   0  0  0  0  0  0  0  0  0  0  0  0
   15.9144   -8.1667   18.5208 N   0  0  0  0  0  0  0  0  0  0  0  0
   16.7846   -8.5463   18.7812 H   0  0  0  0  0  0  0  0  0  0  0  0
 16 17  1  0  0  0
 17  5  1  0  0  0
  5  6  1  0  0  0
  6  7  2  0  0  0
  7  1  1  0  0  0
  7  8  1  0  0  0
  1  2  2  0  0  0
  1  3  1  0  0  0
  3 18  1  0  0  0
 18 19  1  0  0  0
 19 20  1  0  0  0
 20 21  1  0  0  0
 21 22  2  0  0  0
 22 23  1  0  0  0
 23 24  2  0  0  0
 24 25  1  0  0  0
 25 26  2  0  0  0
 26 27  1  0  0  0
 27 28  2  0  0  0
 28 29  1  0  0  0
 28 23  1  0  0  0
 29 21  1  0  0  0
  8  9  2  0  0  0
  9 10  1  0  0  0
 10 11  2  0  0  0
 11 12  1  0  0  0
 12 13  2  0  0  0
 13 14  1  0  0  0
 13  8  1  0  0  0
 14 15  2  0  0  0
 14  5  1  0  0  0
  3  4  1  0  0  0
 29 30  1  0  0  0
M  END
>  <minimizedAffinity>
-7.50890

>  <minimizedRMSD>
1.69888

$$$$
CSC026659814 32666664 CSSS00026659814 MCULE-1248816472 MolPort-005-691-991 PubChem-39903179 Z54486128 ZINC000032666664 ZINC32666664


 27 29  0  0  0  0  0  0  0  0999 V2000
   18.5626  -11.2548   13.2977 C   0  0  0  0  0  0  0  0  0  0  0  0
   19.0707  -12.4082   13.2276 O   0  0  0  0  0  0  0  0  0  0  0  0
   17.9691  -10.7856   14.5599 C   0  0  0  0  0  0  0  0  0  0  0  0
   18.0564  -11.5615   15.7203 C   0  0  0  0  0  0  0  0  0  0  0  0
   17.4906  -11.1090   16.9125 C   0  0  0  0  0  0  0  0  0  0  0  0
   16.8305   -9.8777   16.9639 C   0  0  0  0  0  0  0  0  0  0  0  0
   16.2706   -9.4624   18.2055 N   0  0  0  0  0  0  0  0  0  0  0  0
   16.7323   -9.0791   15.7993 C   0  0  0  0  0  0  0  0  0  0  0  0
   17.3088   -9.5528   14.6087 C   0  0  0  0  0  0  0  0  0  0  0  0
   16.3537  -10.0379   19.0000 H   0  0  0  0  0  0  0  0  0  0  0  0
   15.8005   -8.5998   18.2696 H   0  0  0  0  0  0  0  0  0  0  0  0
   16.0639   -7.8016   15.7923 N   0  0  0  0  0  0  0  0  0  0  0  0
   15.0240   -7.5280   16.6503 O   0  0  0  0  0  0  0  0  0  0  0  0
   16.4265   -6.9121   14.9940 O   0  0  0  0  0  0  0  0  0  0  0  0
   18.5597  -10.4178   12.1796 O   0  0  0  0  0  0  0  0  0  0  0  0
   17.3941   -9.7209   11.7656 C   0  0  0  0  0  0  0  0  0  0  0  0
   15.2480  -10.5667    9.8980 C   0  0  0  0  0  0  0  0  0  0  0  0
   16.4506   -9.8257    9.4197 C   0  0  0  0  0  0  0  0  0  0  0  0
   17.4758   -9.4379   10.3030 C   0  0  0  0  0  0  0  0  0  0  0  0
   18.5464   -8.7508    9.8214 N   0  0  0  0  0  0  0  0  0  0  0  0
   18.6520   -8.4458    8.5027 C   0  0  0  0  0  0  0  0  0  0  0  0
   19.7603   -7.7439    8.0215 C   0  0  0  0  0  0  0  0  0  0  0  0
   19.8518   -7.4378    6.6595 C   0  0  0  0  0  0  0  0  0  0  0  0
   18.8370   -7.8321    5.7797 C   0  0  0  0  0  0  0  0  0  0  0  0
   17.7251   -8.5342    6.2575 C   0  0  0  0  0  0  0  0  0  0  0  0
   17.6299   -8.8420    7.6172 C   0  0  0  0  0  0  0  0  0  0  0  0
   16.5566   -9.5198    8.0988 N   0  0  0  0  0  0  0  0  0  0  0  0
 17 18  1  0  0  0
 18 19  2  0  0  0
 19 16  1  0  0  0
 19 20  1  0  0  0
 16 15  1  0  0  0
 15  1  1  0  0  0
  1  2  2  0  0  0
  1  3  1  0  0  0
  3  4  2  0  0  0
  4  5  1  0  0  0
  5  6  2  0  0  0
  6  7  1  0  0  0
  6  8  1  0  0  0
  8  9  2  0  0  0
  8 12  1  0  0  0
  9  3  1  0  0  0
 12 13  1  0  0  0
 12 14  2  0  0  0
 20 21  2  0  0  0
 21 22  1  0  0  0
 22 23  2  0  0  0
 23 24  1  0  0  0
 24 25  2  0  0  0
 25 26  1  0  0  0
 26 27  2  0  0  0
 26 21  1  0  0  0
 27 18  1  0  0  0
  7 10  1  0  0  0
  7 11  1  0  0  0
M  CHG 1  12   1
M  CHG 1  13  -1
M  END
>  <minimizedAffinity>
-7.48296

>  <minimizedRMSD>
0.96342

$$$$
CSC026844175 22112300 CSSS00026844175 MCULE-5992206860 MolPort-023-133-837 PubChem-72160050 Z74479604 ZINC000022112300


 34 38  0  0  0  0  0  0  0  0999 V2000
   15.6668  -10.4395   10.7722 C   0  0  0  0  0  0  0  0  0  0  0  0
   16.6223   -9.8329    9.8085 C   0  0  0  0  0  0  0  0  0  0  0  0
   16.3975   -9.9450    8.4665 N   0  0  0  0  0  0  0  0  0  0  0  0
   17.2360   -9.3807    7.5517 C   0  0  0  0  0  0  0  0  0  0  0  0
   17.0153   -9.5490    6.3244 O   0  0  0  0  0  0  0  0  0  0  0  0
   18.3413   -8.6450    8.0088 C   0  0  0  0  0  0  0  0  0  0  0  0
   18.5412   -8.5726    9.3726 C   0  0  0  0  0  0  0  0  0  0  0  0
   19.9461   -7.7358    9.7122 S   0  0  0  0  0  0  0  0  0  0  0  0
   20.3471   -7.4232    8.0983 C   0  0  0  0  0  0  0  0  0  0  0  0
   19.3558   -7.9808    7.2784 C   0  0  0  0  0  0  0  0  0  0  0  0
   17.7033   -9.1450   10.2682 N   0  0  0  0  0  0  0  0  0  0  0  0
   15.6105  -10.4458    8.1516 H   0  0  0  0  0  0  0  0  0  0  0  0
   19.4074   -7.8205    5.8133 C   0  0  0  0  0  0  0  0  0  0  0  0
   18.5511   -8.5557    4.9809 C   0  0  0  0  0  0  0  0  0  0  0  0
   18.5722   -8.3615    3.5968 C   0  0  0  0  0  0  0  0  0  0  0  0
   19.4399   -7.4201    3.0366 C   0  0  0  0  0  0  0  0  0  0  0  0
   20.2814   -6.6684    3.8609 C   0  0  0  0  0  0  0  0  0  0  0  0
   20.2602   -6.8630    5.2451 C   0  0  0  0  0  0  0  0  0  0  0  0
   15.7587   -9.7658   12.0186 O   0  0  0  0  0  0  0  0  0  0  0  0
   16.5931  -10.2184   13.0431 C   0  0  0  0  0  0  0  0  0  0  0  0
   17.4624  -11.1037   12.8111 O   0  0  0  0  0  0  0  0  0  0  0  0
   16.1885   -8.5796   16.9820 C   0  0  0  0  0  0  0  0  0  0  0  0
   16.6278   -9.8957   16.8076 C   0  0  0  0  0  0  0  0  0  0  0  0
   16.7603  -10.4333   15.5243 C   0  0  0  0  0  0  0  0  0  0  0  0
   16.4550   -9.6581   14.3970 C   0  0  0  0  0  0  0  0  0  0  0  0
   16.0162   -8.3393   14.5705 C   0  0  0  0  0  0  0  0  0  0  0  0
   15.8842   -7.8030   15.8542 C   0  0  0  0  0  0  0  0  0  0  0  0
   13.7667   -7.6061   18.3448 O   0  0  0  0  0  0  0  0  0  0  0  0
   14.8767   -7.5690   18.9411 C   0  0  0  0  0  0  0  0  0  0  0  0
   16.0692   -8.0633   18.3146 N   0  0  0  0  0  0  0  0  0  0  0  0
   16.8913   -8.0461   18.8561 H   0  0  0  0  0  0  0  0  0  0  0  0
   14.9422   -7.0527   20.3417 C   0  0  0  0  0  0  0  0  0  0  0  0
   13.5397   -6.8833   20.8971 C   0  0  0  0  0  0  0  0  0  0  0  0
   14.3690   -8.0811   21.3004 C   0  0  0  0  0  0  0  0  0  0  0  0
 28 29  2  0  0  0
 29 32  1  0  0  0
 32 33  1  0  0  0
 33 34  1  0  0  0
 29 30  1  0  0  0
 30 22  1  0  0  0
 22 23  2  0  0  0
 23 24  1  0  0  0
 24 25  2  0  0  0
 25 20  1  0  0  0
 20 19  1  0  0  0
 19  1  1  0  0  0
  1  2  1  0  0  0
  2  3  1  0  0  0
  3  4  1  0  0  0
  4  5  2  0  0  0
  4  6  1  0  0  0
  6  7  2  0  0  0
  7  8  1  0  0  0
  8  9  1  0  0  0
  9 10  2  0  0  0
 10 13  1  0  0  0
 13 14  2  0  0  0
 14 15  1  0  0  0
 15 16  2  0  0  0
 16 17  1  0  0  0
 17 18  2  0  0  0
  7 11  1  0  0  0
 20 21  2  0  0  0
 25 26  1  0  0  0
 26 27  2  0  0  0
 34 32  1  0  0  0
 27 22  1  0  0  0
 11  2  2  0  0  0
 10  6  1  0  0  0
 18 13  1  0  0  0
 30 31  1  0  0  0
  3 12  1  0  0  0
M  END
>  <minimizedAffinity>
-7.48232

>  <minimizedRMSD>
2.43615

$$$$
CSC026971290 253416953 CSSS00026971290 MCULE-4827883413 MolPort-039-267-847 PubChem-121559089 Z2062287299 ZINC000253416953


 28 31  0  0  0  0  0  0  0  0999 V2000
   17.9804  -10.6956   14.4349 C   0  0  0  0  0  0  0  0  0  0  0  0
   18.2509  -11.8027   15.2445 C   0  0  0  0  0  0  0  0  0  0  0  0
   17.8149  -11.8208   16.5719 C   0  0  0  0  0  0  0  0  0  0  0  0
   17.1138  -10.7291   17.0925 C   0  0  0  0  0  0  0  0  0  0  0  0
   16.8454   -9.6104   16.2903 C   0  0  0  0  0  0  0  0  0  0  0  0
   17.2867   -9.6002   14.9588 C   0  0  0  0  0  0  0  0  0  0  0  0
   16.1094   -8.4589   16.8405 C   0  0  0  0  0  0  0  0  0  0  0  0
   15.6654   -7.5663   16.0673 O   0  0  0  0  0  0  0  0  0  0  0  0
   15.9013   -8.3503   18.2527 N   0  0  0  0  0  0  0  0  0  0  0  0
   16.2885   -9.0390   18.8401 H   0  0  0  0  0  0  0  0  0  0  0  0
   15.1418   -7.2653   18.8577 C   0  0  0  0  0  0  0  0  0  0  0  0
   13.6939   -7.6160   18.9088 C   0  0  0  0  0  0  0  0  0  0  0  0
   13.0240   -8.0569   20.0279 C   0  0  0  0  0  0  0  0  0  0  0  0
   11.7270   -8.2752   19.5958 C   0  0  0  0  0  0  0  0  0  0  0  0
   11.6987   -7.9569   18.2482 C   0  0  0  0  0  0  0  0  0  0  0  0
   12.8944   -7.5692   17.8753 O   0  0  0  0  0  0  0  0  0  0  0  0
   18.4684  -10.6640   13.0307 C   0  0  0  0  0  0  0  0  0  0  0  0
   17.8833   -9.5640   12.3467 O   0  0  0  0  0  0  0  0  0  0  0  0
   13.1761  -10.4868   11.0957 C   0  0  0  0  0  0  0  0  0  0  0  0
   14.5826  -10.1677   10.7380 C   0  0  0  0  0  0  0  0  0  0  0  0
   14.9316  -10.0161    9.4271 N   0  0  0  0  0  0  0  0  0  0  0  0
   16.2201   -9.7251    9.1220 C   0  0  0  0  0  0  0  0  0  0  0  0
   16.6993   -9.5500    7.8806 N   0  0  0  0  0  0  0  0  0  0  0  0
   18.0141   -9.2837    8.0876 C   0  0  0  0  0  0  0  0  0  0  0  0
   18.3002   -9.3040    9.4516 C   0  0  0  0  0  0  0  0  0  0  0  0
   17.1463   -9.5855   10.0742 N   0  0  0  0  0  0  0  0  0  0  0  0
   16.8712   -9.7220   11.3950 C   0  0  0  0  0  0  0  0  0  0  0  0
   15.5456  -10.0241   11.7548 C   0  0  0  0  0  0  0  0  0  0  0  0
 19 20  1  0  0  0
 20 21  2  0  0  0
 21 22  1  0  0  0
 22 23  2  0  0  0
 23 24  1  0  0  0
 24 25  2  0  0  0
 25 26  1  0  0  0
 26 27  1  0  0  0
 27 18  1  0  0  0
 18 17  1  0  0  0
 17  1  1  0  0  0
  1  2  2  0  0  0
  2  3  1  0  0  0
  3  4  2  0  0  0
  4  5  1  0  0  0
  5  6  2  0  0  0
  5  7  1  0  0  0
  7  8  2  0  0  0
  7  9  1  0  0  0
  9 11  1  0  0  0
 11 12  1  0  0  0
 12 13  2  0  0  0
 13 14  1  0  0  0
 14 15  2  0  0  0
 15 16  1  0  0  0
 27 28  2  0  0  0
 28 20  1  0  0  0
 26 22  1  0  0  0
  6  1  1  0  0  0
 16 12  1  0  0  0
  9 10  1  0  0  0
M  END
>  <minimizedAffinity>
-7.48224

>  <minimizedRMSD>
1.66877

$$$$
2325854209 CSSS03171329291 PubChem-166358781 Z5267663937


 25 27  0  0  0  0  0  0  0  0999 V2000
   17.0011   -9.4371   12.0822 N   0  0  0  0  0  0  0  0  0  0  0  0
   16.1013   -9.3070   11.7046 H   0  0  0  0  0  0  0  0  0  0  0  0
   17.5079  -11.0263   17.5364 C   0  0  0  0  0  0  0  0  0  0  0  0
   17.3386  -10.5571   16.1314 C   0  0  0  0  0  0  0  0  0  0  0  0
   16.6161   -9.3838   15.7956 C   0  0  0  0  0  0  0  0  0  0  0  0
   16.5217   -9.0382   14.4398 C   0  0  0  0  0  0  0  0  0  0  0  0
   17.1177   -9.8210   13.4537 C   0  0  0  0  0  0  0  0  0  0  0  0
   17.8184  -10.9668   13.8350 C   0  0  0  0  0  0  0  0  0  0  0  0
   17.9108  -11.3030   15.1473 N   0  0  0  0  0  0  0  0  0  0  0  0
   15.9526   -8.4971   16.7881 C   0  0  0  0  0  0  0  0  0  0  0  0
   16.3098   -8.5135   18.1666 N   0  0  0  0  0  0  0  0  0  0  0  0
   15.0479   -7.7046   16.4115 O   0  0  0  0  0  0  0  0  0  0  0  0
   17.0135   -9.1236   18.4856 H   0  0  0  0  0  0  0  0  0  0  0  0
   15.8529   -7.9147   18.8007 H   0  0  0  0  0  0  0  0  0  0  0  0
   18.1545   -9.2301   11.2194 C   0  0  0  0  0  0  0  0  0  0  0  0
   17.7362   -9.3185    9.7915 C   0  0  0  0  0  0  0  0  0  0  0  0
   18.3300   -8.5380    8.7994 C   0  0  0  0  0  0  0  0  0  0  0  0
   19.3480   -7.6132    8.8576 C   0  0  0  0  0  0  0  0  0  0  0  0
   19.4840   -7.1776    7.5360 C   0  0  0  0  0  0  0  0  0  0  0  0
   18.6047   -7.7927    6.7055 N   0  0  0  0  0  0  0  0  0  0  0  0
   17.9151   -8.6161    7.5051 C   0  0  0  0  0  0  0  0  0  0  0  0
   16.9116   -9.4421    7.1155 N   0  0  0  0  0  0  0  0  0  0  0  0
   16.2921  -10.2233    8.0507 C   0  0  0  0  0  0  0  0  0  0  0  0
   16.6902  -10.1736    9.4042 C   0  0  0  0  0  0  0  0  0  0  0  0
   18.4981   -7.6630    5.7354 H   0  0  0  0  0  0  0  0  0  0  0  0
  3  4  1  0  0  0
  4  5  2  0  0  0
  5 10  1  0  0  0
 10 11  1  0  0  0
 10 12  2  0  0  0
  5  6  1  0  0  0
  6  7  2  0  0  0
  7  1  1  0  0  0
  1 15  1  0  0  0
 15 16  1  0  0  0
 16 17  2  0  0  0
 17 18  1  0  0  0
 18 19  2  0  0  0
 19 20  1  0  0  0
 20 21  1  0  0  0
 21 22  2  0  0  0
 22 23  1  0  0  0
 23 24  2  0  0  0
  7  8  1  0  0  0
  8  9  2  0  0  0
  9  4  1  0  0  0
 24 16  1  0  0  0
 21 17  1  0  0  0
 11 13  1  0  0  0
 11 14  1  0  0  0
  1  2  1  0  0  0
 20 25  1  0  0  0
M  END
>  <minimizedAffinity>
-7.46061

>  <minimizedRMSD>
0.83655

$$$$
CSC027496450 72280059 CSSS00027496450 MCULE-4703796804 MolPort-023-144-791 PubChem-72052118 Z397812482 ZINC000072280059 ZINC72280059


 26 28  0  0  0  0  0  0  0  0999 V2000
   18.1806  -10.6138   12.4293 C   0  0  0  0  0  0  0  0  0  0  0  0
   16.7077   -9.7003   15.7958 C   0  0  0  0  0  0  0  0  0  0  0  0
   17.1656  -10.7581   16.5892 C   0  0  0  0  0  0  0  0  0  0  0  0
   17.9552  -11.7657   16.0272 C   0  0  0  0  0  0  0  0  0  0  0  0
   18.2915  -11.7159   14.6711 C   0  0  0  0  0  0  0  0  0  0  0  0
   17.8430  -10.6549   13.8773 C   0  0  0  0  0  0  0  0  0  0  0  0
   17.0468   -9.6512   14.4388 C   0  0  0  0  0  0  0  0  0  0  0  0
   15.7202   -8.4356   16.5092 S   0  0  0  0  0  0  0  0  0  0  0  0
   15.8885   -7.1571   15.7351 O   0  0  0  0  0  0  0  0  0  0  0  0
   14.2763   -8.8472   16.4520 O   0  0  0  0  0  0  0  0  0  0  0  0
   15.0226   -7.6590   18.8670 C   0  0  0  0  0  0  0  0  0  0  0  0
   16.1795   -8.1812   18.1595 N   0  0  0  0  0  0  0  0  0  0  0  0
   16.4728   -9.0639   18.5780 H   0  0  0  0  0  0  0  0  0  0  0  0
   17.3786   -9.5972   11.7674 N   0  0  0  0  0  0  0  0  0  0  0  0
   16.7498   -9.0628   12.3043 H   0  0  0  0  0  0  0  0  0  0  0  0
   17.4731   -9.3480   10.3626 C   0  0  0  0  0  0  0  0  0  0  0  0
   16.4728   -9.8083    9.4894 C   0  0  0  0  0  0  0  0  0  0  0  0
   15.2931  -10.5639    9.9973 C   0  0  0  0  0  0  0  0  0  0  0  0
   16.5810   -9.5608    8.1565 N   0  0  0  0  0  0  0  0  0  0  0  0
   17.6393   -8.8760    7.6521 C   0  0  0  0  0  0  0  0  0  0  0  0
   17.7381   -8.6286    6.2804 C   0  0  0  0  0  0  0  0  0  0  0  0
   18.8360   -7.9211    5.7788 C   0  0  0  0  0  0  0  0  0  0  0  0
   19.8335   -7.4616    6.6467 C   0  0  0  0  0  0  0  0  0  0  0  0
   19.7384   -7.7073    8.0208 C   0  0  0  0  0  0  0  0  0  0  0  0
   18.6436   -8.4134    8.5257 C   0  0  0  0  0  0  0  0  0  0  0  0
   18.5349   -8.6609    9.8562 N   0  0  0  0  0  0  0  0  0  0  0  0
 11 12  1  0  0  0
 12  8  1  0  0  0
  8  9  2  0  0  0
  8 10  2  0  0  0
  8  2  1  0  0  0
  2  3  2  0  0  0
  3  4  1  0  0  0
  4  5  2  0  0  0
  5  6  1  0  0  0
  6  1  1  0  0  0
  6  7  2  0  0  0
  1 14  1  0  0  0
 14 16  1  0  0  0
 16 17  2  0  0  0
 17 18  1  0  0  0
 17 19  1  0  0  0
 19 20  2  0  0  0
 20 21  1  0  0  0
 21 22  2  0  0  0
 22 23  1  0  0  0
 23 24  2  0  0  0
 24 25  1  0  0  0
 25 26  2  0  0  0
 25 20  1  0  0  0
 26 16  1  0  0  0
  7  2  1  0  0  0
 12 13  1  0  0  0
 14 15  1  0  0  0
M  END
>  <minimizedAffinity>
-7.45806

>  <minimizedRMSD>
0.84122

$$$$
CSC067343718 CSSS00067343718


 31 34  0  0  0  0  0  0  0  0999 V2000
   20.5273   -7.0866    4.7784 C   0  0  0  0  0  0  0  0  0  0  0  0
   19.5586   -7.8360    4.0931 C   0  0  0  0  0  0  0  0  0  0  0  0
   18.5828   -8.5469    4.7974 C   0  0  0  0  0  0  0  0  0  0  0  0
   18.5668   -8.5143    6.1979 C   0  0  0  0  0  0  0  0  0  0  0  0
   19.5372   -7.7626    6.8906 C   0  0  0  0  0  0  0  0  0  0  0  0
   20.5102   -7.0550    6.1800 C   0  0  0  0  0  0  0  0  0  0  0  0
   19.5255   -7.7289    8.2476 N   0  0  0  0  0  0  0  0  0  0  0  0
   18.5830   -8.4074    8.9537 C   0  0  0  0  0  0  0  0  0  0  0  0
   17.6432   -9.1458    8.3051 N   0  0  0  0  0  0  0  0  0  0  0  0
   17.6112   -9.2125    6.9482 C   0  0  0  0  0  0  0  0  0  0  0  0
   16.7228   -9.9033    6.3808 O   0  0  0  0  0  0  0  0  0  0  0  0
   16.9729   -9.6417    8.8287 H   0  0  0  0  0  0  0  0  0  0  0  0
   21.9965   -5.2438    4.7953 F   0  0  0  0  0  0  0  0  0  0  0  0
   21.5804   -6.3195    4.0322 C   0  0  0  0  0  0  0  0  0  0  0  0
   21.0554   -5.8533    2.8406 F   0  0  0  0  0  0  0  0  0  0  0  0
   22.6762   -7.1191    3.7539 F   0  0  0  0  0  0  0  0  0  0  0  0
   18.6071   -8.3787   10.4400 C   0  0  0  0  0  0  0  0  0  0  0  0
   17.7427   -9.4258   10.9626 N   0  0  0  0  0  0  0  0  0  0  0  0
   17.0503   -9.8025   10.3728 H   0  0  0  0  0  0  0  0  0  0  0  0
   17.8545   -9.9317   12.2946 C   0  0  0  0  0  0  0  0  0  0  0  0
   18.5965  -11.0951   12.5227 C   0  0  0  0  0  0  0  0  0  0  0  0
   18.7239  -11.6104   13.8160 C   0  0  0  0  0  0  0  0  0  0  0  0
   18.0981  -10.9730   14.8907 C   0  0  0  0  0  0  0  0  0  0  0  0
   18.3077  -11.4934   16.2861 C   0  0  0  0  0  0  0  0  0  0  0  0
   17.0882  -11.2124   17.1671 C   0  0  0  0  0  0  0  0  0  0  0  0
   16.7098   -9.8042   17.0828 N   0  0  0  0  0  0  0  0  0  0  0  0
   16.7087   -9.1395   15.8175 C   0  0  0  0  0  0  0  0  0  0  0  0
   16.1786   -8.0026   15.7036 O   0  0  0  0  0  0  0  0  0  0  0  0
   17.3566   -9.7959   14.6698 C   0  0  0  0  0  0  0  0  0  0  0  0
   17.2367   -9.2813   13.3731 C   0  0  0  0  0  0  0  0  0  0  0  0
   16.4555   -9.3131   17.8972 H   0  0  0  0  0  0  0  0  0  0  0  0
 13 14  1  0  0  0
 14 15  1  0  0  0
 14 16  1  0  0  0
 14  1  1  0  0  0
  1  2  2  0  0  0
  2  3  1  0  0  0
  3  4  2  0  0  0
  4  5  1  0  0  0
  5  6  2  0  0  0
  5  7  1  0  0  0
  7  8  2  0  0  0
  8 17  1  0  0  0
 17 18  1  0  0  0
 18 20  1  0  0  0
 20 21  2  0  0  0
 21 22  1  0  0  0
 22 23  2  0  0  0
 23 24  1  0  0  0
 24 25  1  0  0  0
 25 26  1  0  0  0
 26 27  1  0  0  0
 27 28  2  0  0  0
 27 29  1  0  0  0
 29 30  2  0  0  0
  8  9  1  0  0  0
  9 10  1  0  0  0
 10 11  2  0  0  0
  6  1  1  0  0  0
 30 20  1  0  0  0
 10  4  1  0  0  0
 29 23  1  0  0  0
 18 19  1  0  0  0
 26 31  1  0  0  0
  9 12  1  0  0  0
M  END
>  <minimizedAffinity>
-7.45074

>  <minimizedRMSD>
2.24567

$$$$
18222545 CSSS00132319365 MCULE-9506473841 MolPort-002-294-734 PubChem-135410595 ZINC000018222545 ZINC18222545


 34 37  0  0  0  0  0  0  0  0999 V2000
   16.3470   -9.7688   15.5810 N   0  0  0  0  0  0  0  0  0  0  0  0
   16.2979   -8.7110   16.4123 C   0  0  0  0  0  0  0  0  0  0  0  0
   16.0270   -7.5733   15.7435 N   0  0  0  0  0  0  0  0  0  0  0  0
   15.9082   -7.8971   14.4628 N   0  0  0  0  0  0  0  0  0  0  0  0
   16.1006   -9.2275   14.3761 C   0  0  0  0  0  0  0  0  0  0  0  0
   18.0488  -11.4793   15.9487 C   0  0  0  0  0  0  0  0  0  0  0  0
   16.5634  -11.1740   15.9014 C   0  0  0  0  0  0  0  0  0  0  0  0
   16.4383   -8.7842   17.8970 C   0  0  0  0  0  0  0  0  0  0  0  0
   15.4344   -7.9006   18.5512 C   0  0  0  0  0  0  0  0  0  0  0  0
   14.5916   -7.2906   17.8412 O   0  0  0  0  0  0  0  0  0  0  0  0
   15.4255   -7.7874   19.9803 N   0  0  0  0  0  0  0  0  0  0  0  0
   16.1182   -8.2901   20.4668 H   0  0  0  0  0  0  0  0  0  0  0  0
   14.5128   -7.0183   20.7747 C   0  0  0  0  0  0  0  0  0  0  0  0
   15.0035   -6.3381   21.8939 C   0  0  0  0  0  0  0  0  0  0  0  0
   14.1448   -5.5793   22.6945 C   0  0  0  0  0  0  0  0  0  0  0  0
   12.7840   -5.4919   22.3854 C   0  0  0  0  0  0  0  0  0  0  0  0
   12.2881   -6.1737   21.2629 C   0  0  0  0  0  0  0  0  0  0  0  0
   13.1477   -6.9318   20.4637 C   0  0  0  0  0  0  0  0  0  0  0  0
   11.9514   -4.7252   23.2052 O   0  0  0  0  0  0  0  0  0  0  0  0
   10.6468   -4.3220   22.8117 C   0  0  0  0  0  0  0  0  0  0  0  0
   16.0348  -10.1442   12.8365 S   0  0  0  0  0  0  0  0  0  0  0  0
   17.6676   -9.5502   12.2906 C   0  0  0  0  0  0  0  0  0  0  0  0
   17.7037   -9.3912   10.8094 C   0  0  0  0  0  0  0  0  0  0  0  0
   18.6123   -8.5525   10.2459 N   0  0  0  0  0  0  0  0  0  0  0  0
   18.6609   -8.3803    8.9005 C   0  0  0  0  0  0  0  0  0  0  0  0
   19.5985   -7.5097    8.3381 C   0  0  0  0  0  0  0  0  0  0  0  0
   19.6450   -7.3333    6.9516 C   0  0  0  0  0  0  0  0  0  0  0  0
   18.7549   -8.0262    6.1246 C   0  0  0  0  0  0  0  0  0  0  0  0
   17.8142   -8.8987    6.6802 C   0  0  0  0  0  0  0  0  0  0  0  0
   17.7619   -9.0802    8.0694 C   0  0  0  0  0  0  0  0  0  0  0  0
   16.8377   -9.9431    8.6735 C   0  0  0  0  0  0  0  0  0  0  0  0
   16.0126  -10.5951    7.9789 O   0  0  0  0  0  0  0  0  0  0  0  0
   16.8299  -10.0786   10.0255 N   0  0  0  0  0  0  0  0  0  0  0  0
   16.1792  -10.6861   10.4460 H   0  0  0  0  0  0  0  0  0  0  0  0
  6  7  1  0  0  0
  7  1  1  0  0  0
  1  2  1  0  0  0
  2  8  1  0  0  0
  2  3  2  0  0  0
  8  9  1  0  0  0
  9 10  2  0  0  0
  9 11  1  0  0  0
 11 13  1  0  0  0
 13 14  2  0  0  0
 14 15  1  0  0  0
 15 16  2  0  0  0
 16 19  1  0  0  0
 16 17  1  0  0  0
 19 20  1  0  0  0
 17 18  2  0  0  0
 18 13  1  0  0  0
  3  4  1  0  0  0
  4  5  2  0  0  0
  5 21  1  0  0  0
  5  1  1  0  0  0
 21 22  1  0  0  0
 22 23  1  0  0  0
 23 24  2  0  0  0
 24 25  1  0  0  0
 25 26  2  0  0  0
 26 27  1  0  0  0
 27 28  2  0  0  0
 28 29  1  0  0  0
 29 30  2  0  0  0
 30 31  1  0  0  0
 30 25  1  0  0  0
 31 32  2  0  0  0
 31 33  1  0  0  0
 33 23  1  0  0  0
 11 12  1  0  0  0
 33 34  1  0  0  0
M  END
>  <minimizedAffinity>
-7.43558

>  <minimizedRMSD>
2.20522

$$$$
432330155 CSSS00160455669 MCULE-4636883092 MolPort-046-813-425 PubChem-145895590 Z2213906434


 27 29  0  0  0  0  0  0  0  0999 V2000
   16.8457  -10.1633   11.8580 N   0  0  0  0  0  0  0  0  0  0  0  0
   17.5855  -10.7057   12.2154 H   0  0  0  0  0  0  0  0  0  0  0  0
   16.8368   -9.8594   10.4575 C   0  0  0  0  0  0  0  0  0  0  0  0
   15.7755  -10.2781    9.6469 C   0  0  0  0  0  0  0  0  0  0  0  0
   15.7818   -9.9745    8.2870 C   0  0  0  0  0  0  0  0  0  0  0  0
   16.8137   -9.2746    7.7479 N   0  0  0  0  0  0  0  0  0  0  0  0
   17.8688   -8.8453    8.4943 C   0  0  0  0  0  0  0  0  0  0  0  0
   18.9322   -8.1166    7.9052 C   0  0  0  0  0  0  0  0  0  0  0  0
   19.9961   -7.6973    8.7206 C   0  0  0  0  0  0  0  0  0  0  0  0
   20.0183   -7.9858   10.0846 C   0  0  0  0  0  0  0  0  0  0  0  0
   18.9733   -8.7020   10.6636 C   0  0  0  0  0  0  0  0  0  0  0  0
   17.8960   -9.1363    9.8826 C   0  0  0  0  0  0  0  0  0  0  0  0
   18.9619   -7.7898    6.5002 N   0  0  0  0  0  0  0  0  0  0  0  0
   18.7019   -8.7339    5.5338 O   0  0  0  0  0  0  0  0  0  0  0  0
   19.2290   -6.6253    6.1362 O   0  0  0  0  0  0  0  0  0  0  0  0
   15.8130   -9.7079   12.7768 C   0  0  0  0  0  0  0  0  0  0  0  0
   16.2076   -8.6704   16.4022 C   0  0  0  0  0  0  0  0  0  0  0  0
   17.5089   -9.1220   16.6661 C   0  0  0  0  0  0  0  0  0  0  0  0
   18.2500   -9.7644   15.6699 C   0  0  0  0  0  0  0  0  0  0  0  0
   17.6946   -9.9615   14.4030 C   0  0  0  0  0  0  0  0  0  0  0  0
   16.3954   -9.5212   14.1327 C   0  0  0  0  0  0  0  0  0  0  0  0
   15.6574   -8.8718   15.1277 C   0  0  0  0  0  0  0  0  0  0  0  0
   15.8820   -7.9889   18.8017 N   0  0  0  0  0  0  0  0  0  0  0  0
   15.4282   -7.9898   17.4510 C   0  0  0  0  0  0  0  0  0  0  0  0
   14.3519   -7.4014   17.1635 O   0  0  0  0  0  0  0  0  0  0  0  0
   15.3562   -7.5320   19.4974 H   0  0  0  0  0  0  0  0  0  0  0  0
   16.7215   -8.4451   19.0392 H   0  0  0  0  0  0  0  0  0  0  0  0
 23 24  1  0  0  0
 24 25  2  0  0  0
 24 17  1  0  0  0
 17 18  2  0  0  0
 18 19  1  0  0  0
 19 20  2  0  0  0
 20 21  1  0  0  0
 21 16  1  0  0  0
 16  1  1  0  0  0
  1  3  1  0  0  0
  3  4  2  0  0  0
  4  5  1  0  0  0
  5  6  2  0  0  0
  6  7  1  0  0  0
  7  8  2  0  0  0
  8  9  1  0  0  0
  9 10  2  0  0  0
 10 11  1  0  0  0
 11 12  2  0  0  0
  8 13  1  0  0  0
 13 14  1  0  0  0
 13 15  2  0  0  0
 21 22  2  0  0  0
 22 17  1  0  0  0
 12  3  1  0  0  0
 12  7  1  0  0  0
 23 26  1  0  0  0
 23 27  1  0  0  0
  1  2  1  0  0  0
M  CHG 1  13   1
M  CHG 1  14  -1
M  END
>  <minimizedAffinity>
-7.41666

>  <minimizedRMSD>
0.96025

$$$$
CSC027277989 95460524 CSSS00027277989 MCULE-3810718947 MolPort-028-788-986 PubChem-75443178 Z1590661512 ZINC000095460524 ZINC95460524


 26 29  0  0  0  0  0  0  0  0999 V2000
   18.0160   -9.8352   12.2212 N   0  0  0  0  0  0  0  0  0  0  0  0
   18.7932   -9.2313   12.2461 H   0  0  0  0  0  0  0  0  0  0  0  0
   18.5162   -8.1723    7.9138 C   0  0  0  0  0  0  0  0  0  0  0  0
   17.2693   -8.6454    7.6703 N   0  0  0  0  0  0  0  0  0  0  0  0
   16.7656   -9.2421    8.7788 C   0  0  0  0  0  0  0  0  0  0  0  0
   15.5352   -9.8100    8.8354 N   0  0  0  0  0  0  0  0  0  0  0  0
   15.1177  -10.3863   10.0006 C   0  0  0  0  0  0  0  0  0  0  0  0
   15.9290  -10.3927   11.1020 N   0  0  0  0  0  0  0  0  0  0  0  0
   17.1712   -9.8275   11.0699 C   0  0  0  0  0  0  0  0  0  0  0  0
   17.5920   -9.2426    9.8826 C   0  0  0  0  0  0  0  0  0  0  0  0
   19.0334   -8.4698    9.5008 S   0  0  0  0  0  0  0  0  0  0  0  0
   19.0113   -8.4772    5.3796 C   0  0  0  0  0  0  0  0  0  0  0  0
   19.4930   -7.3153    6.6876 S   0  0  0  0  0  0  0  0  0  0  0  0
   17.7650  -10.7065   13.3577 C   0  0  0  0  0  0  0  0  0  0  0  0
   17.9759   -9.9535   14.6229 C   0  0  0  0  0  0  0  0  0  0  0  0
   19.2734   -9.7070   15.0826 C   0  0  0  0  0  0  0  0  0  0  0  0
   19.4718   -8.9784   16.2584 C   0  0  0  0  0  0  0  0  0  0  0  0
   18.3733   -8.4908   16.9725 C   0  0  0  0  0  0  0  0  0  0  0  0
   17.0694   -8.7271   16.5144 C   0  0  0  0  0  0  0  0  0  0  0  0
   16.8777   -9.4587   15.3339 C   0  0  0  0  0  0  0  0  0  0  0  0
   15.9126   -8.2099   17.2638 C   0  0  0  0  0  0  0  0  0  0  0  0
   14.7671   -7.8145   16.6769 N   0  0  0  0  0  0  0  0  0  0  0  0
   13.9843   -7.4191   17.6972 C   0  0  0  0  0  0  0  0  0  0  0  0
   14.6764   -7.5850   18.8802 C   0  0  0  0  0  0  0  0  0  0  0  0
   15.8947   -8.0848   18.6044 N   0  0  0  0  0  0  0  0  0  0  0  0
   16.6122   -8.3088   19.2402 H   0  0  0  0  0  0  0  0  0  0  0  0
 12 13  1  0  0  0
 13  3  1  0  0  0
  3  4  2  0  0  0
  4  5  1  0  0  0
  5  6  2  0  0  0
  6  7  1  0  0  0
  7  8  2  0  0  0
  8  9  1  0  0  0
  9  1  1  0  0  0
  9 10  2  0  0  0
  1 14  1  0  0  0
 14 15  1  0  0  0
 15 16  2  0  0  0
 16 17  1  0  0  0
 17 18  2  0  0  0
 18 19  1  0  0  0
 19 20  2  0  0  0
 19 21  1  0  0  0
 20 15  1  0  0  0
 21 22  2  0  0  0
 22 23  1  0  0  0
 23 24  2  0  0  0
 24 25  1  0  0  0
 25 21  1  0  0  0
 10 11  1  0  0  0
 10  5  1  0  0  0
 11  3  1  0  0  0
  1  2  1  0  0  0
 25 26  1  0  0  0
M  END
>  <minimizedAffinity>
-7.40020

>  <minimizedRMSD>
1.55591

$$$$
CSSS00819081302 PubChem-56149703 Z898681244


 36 40  0  0  0  0  0  0  0  0999 V2000
   17.1738  -10.5692   14.2635 C   0  0  0  0  0  0  0  0  0  0  0  0
   18.2712  -11.3011   15.0358 C   0  0  0  0  0  0  0  0  0  0  0  0
   17.7541  -11.7296   16.4058 C   0  0  0  0  0  0  0  0  0  0  0  0
   17.2790  -10.5124   17.1937 C   0  0  0  0  0  0  0  0  0  0  0  0
   16.1727   -9.7827   16.4255 C   0  0  0  0  0  0  0  0  0  0  0  0
   16.6812   -9.3542   15.0492 C   0  0  0  0  0  0  0  0  0  0  0  0
   16.7370  -10.0867   11.8301 N   0  0  0  0  0  0  0  0  0  0  0  0
   17.6678  -10.1549   12.9178 C   0  0  0  0  0  0  0  0  0  0  0  0
   18.8854   -9.8690   12.7528 O   0  0  0  0  0  0  0  0  0  0  0  0
   15.8024  -10.3199   12.0337 H   0  0  0  0  0  0  0  0  0  0  0  0
   20.5620   -7.3604    8.6594 C   0  0  0  0  0  0  0  0  0  0  0  0
   19.3416   -7.9952    8.0921 C   0  0  0  0  0  0  0  0  0  0  0  0
   19.0180   -7.9888    6.7740 N   0  0  0  0  0  0  0  0  0  0  0  0
   17.8701   -8.6448    6.6376 N   0  0  0  0  0  0  0  0  0  0  0  0
   17.4678   -9.0624    7.8471 C   0  0  0  0  0  0  0  0  0  0  0  0
   16.3493   -9.7664    8.1488 N   0  0  0  0  0  0  0  0  0  0  0  0
   16.1198  -10.0966    9.4565 C   0  0  0  0  0  0  0  0  0  0  0  0
   17.0261   -9.7140   10.4760 C   0  0  0  0  0  0  0  0  0  0  0  0
   18.1845   -8.9810   10.1340 C   0  0  0  0  0  0  0  0  0  0  0  0
   18.3655   -8.6746    8.7915 C   0  0  0  0  0  0  0  0  0  0  0  0
   17.1915   -8.8554    5.3712 C   0  0  0  0  0  0  0  0  0  0  0  0
   15.6471   -8.5925   17.1717 C   0  0  0  0  0  0  0  0  0  0  0  0
   15.4374   -7.5239   16.5376 O   0  0  0  0  0  0  0  0  0  0  0  0
   15.3837   -8.6717   18.5817 N   0  0  0  0  0  0  0  0  0  0  0  0
   15.5621   -9.5375   19.0152 H   0  0  0  0  0  0  0  0  0  0  0  0
   14.8882   -7.6224   19.4241 C   0  0  0  0  0  0  0  0  0  0  0  0
   13.7784   -6.8183   19.0494 C   0  0  0  0  0  0  0  0  0  0  0  0
   13.3227   -5.8218   19.8680 N   0  0  0  0  0  0  0  0  0  0  0  0
   13.9559   -5.6171   21.0490 C   0  0  0  0  0  0  0  0  0  0  0  0
   15.0210   -6.3622   21.4474 C   0  0  0  0  0  0  0  0  0  0  0  0
   15.5268   -7.3873   20.6574 C   0  0  0  0  0  0  0  0  0  0  0  0
   15.3676   -5.8500   22.6807 C   0  0  0  0  0  0  0  0  0  0  0  0
   14.5241   -4.8328   22.9903 N   0  0  0  0  0  0  0  0  0  0  0  0
   13.6656   -4.7007   21.9844 N   0  0  0  0  0  0  0  0  0  0  0  0
   12.6002   -3.7148   21.9396 C   0  0  0  0  0  0  0  0  0  0  0  0
   16.4784   -6.3141   23.5554 C   0  0  0  0  0  0  0  0  0  0  0  0
 11 12  1  0  0  0
 12 13  2  0  0  0
 13 14  1  0  0  0
 14 15  1  0  0  0
 14 21  1  0  0  0
 15 16  2  0  0  0
 16 17  1  0  0  0
 17 18  2  0  0  0
 18 19  1  0  0  0
 18  7  1  0  0  0
 19 20  2  0  0  0
 20 12  1  0  0  0
 20 15  1  0  0  0
  7  8  1  0  0  0
  8  9  2  0  0  0
  1  8  1  0  0  0
  1  2  1  0  0  0
  2  3  1  0  0  0
  3  4  1  0  0  0
  4  5  1  0  0  0
  5  6  1  0  0  0
  5 22  1  0  0  0
  6  1  1  0  0  0
 22 23  2  0  0  0
 22 24  1  0  0  0
 24 26  1  0  0  0
 26 27  2  0  0  0
 27 28  1  0  0  0
 28 29  2  0  0  0
 29 30  1  0  0  0
 30 31  2  0  0  0
 30 32  1  0  0  0
 31 26  1  0  0  0
 32 33  2  0  0  0
 32 36  1  0  0  0
 33 34  1  0  0  0
 34 35  1  0  0  0
 34 29  1  0  0  0
  7 10  1  0  0  0
 24 25  1  0  0  0
M  END
>  <minimizedAffinity>
-7.38237

>  <minimizedRMSD>
1.23221

$$$$
CSC027391377 CSSS00027391377 MCULE-3288171708 MolPort-023-150-303 PubChem-72137483 Z1173912728


 28 30  0  0  0  0  0  0  0  0999 V2000
   15.8752   -9.8312   11.0951 C   0  0  0  0  0  0  0  0  0  0  0  0
   14.7533  -10.3558   10.8633 O   0  0  0  0  0  0  0  0  0  0  0  0
   16.7973   -9.6233   10.0062 N   0  0  0  0  0  0  0  0  0  0  0  0
   18.2372   -9.6029   10.2138 C   0  0  0  0  0  0  0  0  0  0  0  0
   16.8713  -10.1828   13.3324 C   0  0  0  0  0  0  0  0  0  0  0  0
   16.1703   -9.4344   12.4839 C   0  0  0  0  0  0  0  0  0  0  0  0
   16.5100   -8.7347   16.8148 C   0  0  0  0  0  0  0  0  0  0  0  0
   17.7899   -9.0142   17.3094 C   0  0  0  0  0  0  0  0  0  0  0  0
   18.7062   -9.6451   16.5271 N   0  0  0  0  0  0  0  0  0  0  0  0
   18.4173  -10.0217   15.2526 C   0  0  0  0  0  0  0  0  0  0  0  0
   17.1552   -9.7662   14.7119 C   0  0  0  0  0  0  0  0  0  0  0  0
   16.1991   -9.1173   15.5045 C   0  0  0  0  0  0  0  0  0  0  0  0
   14.7100   -7.3667   19.9469 C   0  0  0  0  0  0  0  0  0  0  0  0
   15.6626   -8.0367   19.0773 N   0  0  0  0  0  0  0  0  0  0  0  0
   15.5125   -8.0497   17.6553 C   0  0  0  0  0  0  0  0  0  0  0  0
   14.5272   -7.4708   17.1205 O   0  0  0  0  0  0  0  0  0  0  0  0
   16.4350   -8.4957   19.4797 H   0  0  0  0  0  0  0  0  0  0  0  0
   16.3253   -9.6352    8.6278 C   0  0  0  0  0  0  0  0  0  0  0  0
   17.3545   -9.0448    7.7244 C   0  0  0  0  0  0  0  0  0  0  0  0
   18.3039   -8.1798    8.1667 N   0  0  0  0  0  0  0  0  0  0  0  0
   19.0139   -7.9411    7.0556 C   0  0  0  0  0  0  0  0  0  0  0  0
   20.1251   -7.1129    6.9187 C   0  0  0  0  0  0  0  0  0  0  0  0
   20.7103   -7.0223    5.6418 C   0  0  0  0  0  0  0  0  0  0  0  0
   20.1780   -7.7517    4.5547 C   0  0  0  0  0  0  0  0  0  0  0  0
   19.0540   -8.5806    4.7315 C   0  0  0  0  0  0  0  0  0  0  0  0
   18.5007   -8.6440    6.0080 C   0  0  0  0  0  0  0  0  0  0  0  0
   17.4412   -9.3622    6.4060 N   0  0  0  0  0  0  0  0  0  0  0  0
   16.8710   -9.9662    5.8776 H   0  0  0  0  0  0  0  0  0  0  0  0
 13 14  1  0  0  0
 14 15  1  0  0  0
 15 16  2  0  0  0
 15  7  1  0  0  0
  7  8  2  0  0  0
  8  9  1  0  0  0
  9 10  2  0  0  0
 10 11  1  0  0  0
 11  5  1  0  0  0
 11 12  2  0  0  0
  5  6  2  0  0  0
  6  1  1  0  0  0
  1  2  2  0  0  0
  1  3  1  0  0  0
  3  4  1  0  0  0
  3 18  1  0  0  0
 18 19  1  0  0  0
 19 20  2  0  0  0
 20 21  1  0  0  0
 21 22  2  0  0  0
 22 23  1  0  0  0
 23 24  2  0  0  0
 24 25  1  0  0  0
 25 26  2  0  0  0
 26 27  1  0  0  0
 26 21  1  0  0  0
 27 19  1  0  0  0
 12  7  1  0  0  0
 14 17  1  0  0  0
 27 28  1  0  0  0
M  END
>  <minimizedAffinity>
-7.37555

>  <minimizedRMSD>
1.86935

$$$$
CSC082334225 CSSS00082334225 MCULE-9653242437 MolPort-046-145-099 PubChem-136579161 Z838282660


 29 32  0  0  0  0  0  0  0  0999 V2000
   16.6873   -9.4490   15.7974 C   0  0  0  0  0  0  0  0  0  0  0  0
   17.0342  -10.4545   16.7115 C   0  0  0  0  0  0  0  0  0  0  0  0
   17.8670  -11.5076   16.3221 C   0  0  0  0  0  0  0  0  0  0  0  0
   18.3608  -11.5619   15.0161 C   0  0  0  0  0  0  0  0  0  0  0  0
   18.0266  -10.5600   14.0999 C   0  0  0  0  0  0  0  0  0  0  0  0
   17.1873   -9.5108   14.4882 C   0  0  0  0  0  0  0  0  0  0  0  0
   15.7322   -7.2993   15.4999 O   0  0  0  0  0  0  0  0  0  0  0  0
   15.8072   -8.3411   16.2077 C   0  0  0  0  0  0  0  0  0  0  0  0
   15.0346   -8.4467   17.4082 N   0  0  0  0  0  0  0  0  0  0  0  0
   15.0877   -9.2789   17.9316 H   0  0  0  0  0  0  0  0  0  0  0  0
   14.1732   -7.3743   17.8878 C   0  0  0  0  0  0  0  0  0  0  0  0
   14.6111   -6.9143   19.2697 C   0  0  0  0  0  0  0  0  0  0  0  0
   15.0421   -8.0955   20.1099 C   0  0  0  0  0  0  0  0  0  0  0  0
   14.5014   -7.7828   21.4721 C   0  0  0  0  0  0  0  0  0  0  0  0
   13.7873   -6.4641   21.2875 C   0  0  0  0  0  0  0  0  0  0  0  0
   13.5437   -6.2788   19.9189 O   0  0  0  0  0  0  0  0  0  0  0  0
   18.5322  -10.6302   12.7026 C   0  0  0  0  0  0  0  0  0  0  0  0
   17.6680   -9.8534   11.8287 N   0  0  0  0  0  0  0  0  0  0  0  0
   16.7161   -9.7577   12.0610 H   0  0  0  0  0  0  0  0  0  0  0  0
   18.1579   -9.2250   10.6436 C   0  0  0  0  0  0  0  0  0  0  0  0
   17.5313   -9.4167    9.4208 C   0  0  0  0  0  0  0  0  0  0  0  0
   16.4331  -10.1417    9.0182 C   0  0  0  0  0  0  0  0  0  0  0  0
   16.3057   -9.9368    7.6804 N   0  0  0  0  0  0  0  0  0  0  0  0
   17.2663   -9.1259    7.2421 N   0  0  0  0  0  0  0  0  0  0  0  0
   18.0107   -8.8121    8.3093 C   0  0  0  0  0  0  0  0  0  0  0  0
   19.1004   -8.0079    8.3322 N   0  0  0  0  0  0  0  0  0  0  0  0
   19.7278   -7.8104    9.5314 C   0  0  0  0  0  0  0  0  0  0  0  0
   19.2589   -8.4135   10.6711 N   0  0  0  0  0  0  0  0  0  0  0  0
   17.4021   -8.8181    6.3169 H   0  0  0  0  0  0  0  0  0  0  0  0
  7  8  2  0  0  0
  8  9  1  0  0  0
  9 11  1  0  0  0
 11 12  1  0  0  0
 12 13  1  0  0  0
 13 14  1  0  0  0
 14 15  1  0  0  0
 15 16  1  0  0  0
  8  1  1  0  0  0
  1  2  2  0  0  0
  2  3  1  0  0  0
  3  4  2  0  0  0
  4  5  1  0  0  0
  5 17  1  0  0  0
 17 18  1  0  0  0
 18 20  1  0  0  0
 20 21  2  0  0  0
 21 22  1  0  0  0
 22 23  2  0  0  0
 23 24  1  0  0  0
 24 25  1  0  0  0
 25 26  2  0  0  0
 26 27  1  0  0  0
 27 28  2  0  0  0
  5  6  2  0  0  0
 16 12  1  0  0  0
  6  1  1  0  0  0
 28 20  1  0  0  0
 25 21  1  0  0  0
  9 10  1  0  0  0
 18 19  1  0  0  0
 24 29  1  0  0  0
M  END
>  <minimizedAffinity>
-7.36415

>  <minimizedRMSD>
0.92791

$$$$
97272570 CSSS00160089059 MCULE-5104792313 MolPort-030-045-524 PubChem-74232223 ZINC000097272570 ZINC97272570


 30 32  0  0  0  0  0  0  0  0999 V2000
   17.8556   -9.4508   14.1269 N   0  0  0  0  0  0  0  0  0  0  0  0
   17.7796  -10.4236   13.0806 C   0  0  0  0  0  0  0  0  0  0  0  0
   17.9055  -11.6505   13.3463 O   0  0  0  0  0  0  0  0  0  0  0  0
   17.8020   -8.4974   13.8876 H   0  0  0  0  0  0  0  0  0  0  0  0
   17.5586   -9.9864   11.6940 C   0  0  0  0  0  0  0  0  0  0  0  0
   16.3798  -10.3293   11.0199 C   0  0  0  0  0  0  0  0  0  0  0  0
   16.1821   -9.9061    9.7049 C   0  0  0  0  0  0  0  0  0  0  0  0
   15.1180  -10.2201    9.1070 O   0  0  0  0  0  0  0  0  0  0  0  0
   17.1688   -9.1382    9.0676 C   0  0  0  0  0  0  0  0  0  0  0  0
   17.0112   -8.6920    7.7477 C   0  0  0  0  0  0  0  0  0  0  0  0
   18.0116   -7.9286    7.1402 C   0  0  0  0  0  0  0  0  0  0  0  0
   19.1742   -7.6062    7.8457 C   0  0  0  0  0  0  0  0  0  0  0  0
   19.3442   -8.0446    9.1622 C   0  0  0  0  0  0  0  0  0  0  0  0
   20.4784   -7.7228    9.8326 F   0  0  0  0  0  0  0  0  0  0  0  0
   18.3460   -8.8108    9.7792 C   0  0  0  0  0  0  0  0  0  0  0  0
   18.5051   -9.2406   11.0602 N   0  0  0  0  0  0  0  0  0  0  0  0
   19.3297   -9.0051   11.5436 H   0  0  0  0  0  0  0  0  0  0  0  0
   18.0090   -9.8088   15.5306 C   0  0  0  0  0  0  0  0  0  0  0  0
   14.9523   -7.9465   17.8979 C   0  0  0  0  0  0  0  0  0  0  0  0
   14.9225   -7.8376   16.5030 C   0  0  0  0  0  0  0  0  0  0  0  0
   15.9209   -8.4395   15.7314 C   0  0  0  0  0  0  0  0  0  0  0  0
   16.9524   -9.1523   16.3528 C   0  0  0  0  0  0  0  0  0  0  0  0
   16.9789   -9.2671   17.7466 C   0  0  0  0  0  0  0  0  0  0  0  0
   15.9804   -8.6651   18.5178 C   0  0  0  0  0  0  0  0  0  0  0  0
   14.3397   -6.7180   20.3926 N   0  0  0  0  0  0  0  0  0  0  0  0
   13.6931   -7.2014   18.8650 S   0  0  0  0  0  0  0  0  0  0  0  0
   13.1630   -5.9864   18.1568 O   0  0  0  0  0  0  0  0  0  0  0  0
   12.5772   -8.1837   19.0814 O   0  0  0  0  0  0  0  0  0  0  0  0
   13.6043   -6.2853   20.9515 H   0  0  0  0  0  0  0  0  0  0  0  0
   15.0941   -6.0474   20.2456 H   0  0  0  0  0  0  0  0  0  0  0  0
 25 26  1  0  0  0
 26 27  2  0  0  0
 26 28  2  0  0  0
 26 19  1  0  0  0
 19 20  2  0  0  0
 20 21  1  0  0  0
 21 22  2  0  0  0
 22 18  1  0  0  0
 22 23  1  0  0  0
 18  1  1  0  0  0
  1  2  1  0  0  0
  2  3  2  0  0  0
  2  5  1  0  0  0
  5  6  2  0  0  0
  6  7  1  0  0  0
  7  8  2  0  0  0
  7  9  1  0  0  0
  9 10  2  0  0  0
 10 11  1  0  0  0
 11 12  2  0  0  0
 12 13  1  0  0  0
 13 14  1  0  0  0
 13 15  2  0  0  0
 15 16  1  0  0  0
 15  9  1  0  0  0
 16  5  1  0  0  0
 23 24  2  0  0  0
 24 19  1  0  0  0
 25 29  1  0  0  0
 25 30  1  0  0  0
  1  4  1  0  0  0
 16 17  1  0  0  0
M  END
>  <minimizedAffinity>
-7.35457

>  <minimizedRMSD>
2.40730

$$$$
44921291 CSSS00340140342 MolPort-047-812-976 PubChem-166197712 Z324879420


 28 30  0  0  0  0  0  0  0  0999 V2000
   17.6177  -10.6550   14.2088 C   0  0  0  0  0  0  0  0  0  0  0  0
   17.7904  -11.9031   14.2835 O   0  0  0  0  0  0  0  0  0  0  0  0
   15.9550   -8.5041   17.5217 C   0  0  0  0  0  0  0  0  0  0  0  0
   15.7314   -8.0693   16.2069 C   0  0  0  0  0  0  0  0  0  0  0  0
   16.2738   -8.7724   15.1279 C   0  0  0  0  0  0  0  0  0  0  0  0
   17.0468   -9.9195   15.3484 C   0  0  0  0  0  0  0  0  0  0  0  0
   17.2705  -10.3538   16.6624 C   0  0  0  0  0  0  0  0  0  0  0  0
   16.7271   -9.6495   17.7406 C   0  0  0  0  0  0  0  0  0  0  0  0
   13.7749   -6.4864   19.9328 N   0  0  0  0  0  0  0  0  0  0  0  0
   14.1565   -7.1270   18.7218 C   0  0  0  0  0  0  0  0  0  0  0  0
   13.3826   -7.0843   17.7294 O   0  0  0  0  0  0  0  0  0  0  0  0
   15.4151   -7.8091   18.6541 N   0  0  0  0  0  0  0  0  0  0  0  0
   12.9125   -6.0151   19.9899 H   0  0  0  0  0  0  0  0  0  0  0  0
   14.3733   -6.5143   20.7141 H   0  0  0  0  0  0  0  0  0  0  0  0
   15.9664   -7.7996   19.4697 H   0  0  0  0  0  0  0  0  0  0  0  0
   17.9694   -9.9640   13.0474 O   0  0  0  0  0  0  0  0  0  0  0  0
   17.8556  -10.5506   11.7588 C   0  0  0  0  0  0  0  0  0  0  0  0
   16.8300   -9.7885   10.9362 C   0  0  0  0  0  0  0  0  0  0  0  0
   17.4318   -9.2838    9.7095 N   0  0  0  0  0  0  0  0  0  0  0  0
   18.3221   -8.2975    9.6687 N   0  0  0  0  0  0  0  0  0  0  0  0
   18.6114   -8.1371    8.3591 C   0  0  0  0  0  0  0  0  0  0  0  0
   19.5008   -7.2187    7.8096 C   0  0  0  0  0  0  0  0  0  0  0  0
   19.6457   -7.2272    6.4110 C   0  0  0  0  0  0  0  0  0  0  0  0
   18.9137   -8.1329    5.6152 C   0  0  0  0  0  0  0  0  0  0  0  0
   18.0310   -9.0357    6.2275 C   0  0  0  0  0  0  0  0  0  0  0  0
   17.9262   -8.9897    7.5780 N   0  0  0  0  0  0  0  0  0  0  0  0
   17.1923   -9.6959    8.4471 C   0  0  0  0  0  0  0  0  0  0  0  0
   16.3889  -10.6139    8.1290 O   0  0  0  0  0  0  0  0  0  0  0  0
  9 10  1  0  0  0
 10 11  2  0  0  0
 10 12  1  0  0  0
 12  3  1  0  0  0
  3  4  2  0  0  0
  4  5  1  0  0  0
  5  6  2  0  0  0
  6  7  1  0  0  0
  7  8  2  0  0  0
  6  1  1  0  0  0
  1  2  2  0  0  0
  1 16  1  0  0  0
 16 17  1  0  0  0
 17 18  1  0  0  0
 18 19  1  0  0  0
 19 20  1  0  0  0
 20 21  2  0  0  0
 21 22  1  0  0  0
 22 23  2  0  0  0
 23 24  1  0  0  0
 24 25  2  0  0  0
 25 26  1  0  0  0
 26 27  1  0  0  0
 27 28  2  0  0  0
  8  3  1  0  0  0
 27 19  1  0  0  0
 26 21  1  0  0  0
  9 13  1  0  0  0
  9 14  1  0  0  0
 12 15  1  0  0  0
M  END
>  <minimizedAffinity>
-7.35249

>  <minimizedRMSD>
2.46349

$$$$
CSSS14831857967 Z8607383493


 30 32  0  0  0  0  0  0  0  0999 V2000
   17.3233  -10.0374   14.6145 C   0  0  0  0  0  0  0  0  0  0  0  0
   16.8769  -10.0076   13.2278 N   0  0  0  0  0  0  0  0  0  0  0  0
   17.7417   -9.6128   12.1588 C   0  0  0  0  0  0  0  0  0  0  0  0
   18.9277   -9.2685   12.4146 O   0  0  0  0  0  0  0  0  0  0  0  0
   15.9503  -10.2675   13.0198 H   0  0  0  0  0  0  0  0  0  0  0  0
   17.2345   -9.6148   10.7645 C   0  0  0  0  0  0  0  0  0  0  0  0
   16.0416  -10.2977   10.4896 C   0  0  0  0  0  0  0  0  0  0  0  0
   15.5276  -10.3268    9.1925 C   0  0  0  0  0  0  0  0  0  0  0  0
   16.1799   -9.6930    8.1841 N   0  0  0  0  0  0  0  0  0  0  0  0
   17.3384   -9.0191    8.4032 C   0  0  0  0  0  0  0  0  0  0  0  0
   17.9862   -8.3778    7.3472 C   0  0  0  0  0  0  0  0  0  0  0  0
   19.1758   -7.6880    7.5814 C   0  0  0  0  0  0  0  0  0  0  0  0
   19.8134   -7.0617    6.5637 F   0  0  0  0  0  0  0  0  0  0  0  0
   19.7037   -7.6485    8.8730 C   0  0  0  0  0  0  0  0  0  0  0  0
   19.0615   -8.2784    9.8935 N   0  0  0  0  0  0  0  0  0  0  0  0
   17.8977   -8.9614    9.7005 C   0  0  0  0  0  0  0  0  0  0  0  0
   19.7277  -10.7034   14.8596 C   0  0  0  0  0  0  0  0  0  0  0  0
   18.2943  -11.1985   14.8570 C   0  0  0  0  0  0  0  0  0  0  0  0
   18.1338  -12.3131   13.8344 C   0  0  0  0  0  0  0  0  0  0  0  0
   16.1153  -10.1162   15.5400 C   0  0  0  0  0  0  0  0  0  0  0  0
   15.9132   -8.8298   16.2669 C   0  0  0  0  0  0  0  0  0  0  0  0
   15.9581   -7.7377   15.6389 O   0  0  0  0  0  0  0  0  0  0  0  0
   15.6640   -8.8503   17.6717 N   0  0  0  0  0  0  0  0  0  0  0  0
   15.6170   -9.7172   18.1359 H   0  0  0  0  0  0  0  0  0  0  0  0
   15.4776   -7.6294   18.4373 C   0  0  0  0  0  0  0  0  0  0  0  0
   14.0011   -7.4381   18.7355 C   0  0  0  0  0  0  0  0  0  0  0  0
   13.8290   -6.2929   19.7267 C   0  0  0  0  0  0  0  0  0  0  0  0
   13.6859   -7.7217   20.1927 C   0  0  0  0  0  0  0  0  0  0  0  0
   14.7077   -8.1620   21.0174 F   0  0  0  0  0  0  0  0  0  0  0  0
   12.3859   -8.0983   20.4694 F   0  0  0  0  0  0  0  0  0  0  0  0
 17 18  1  0  0  0
 18 19  1  0  0  0
 18  1  1  0  0  0
  1 20  1  0  0  0
 20 21  1  0  0  0
 21 22  2  0  0  0
 21 23  1  0  0  0
 23 25  1  0  0  0
 25 26  1  0  0  0
 26 27  1  0  0  0
 27 28  1  0  0  0
 28 29  1  0  0  0
 28 30  1  0  0  0
  1  2  1  0  0  0
  2  3  1  0  0  0
  3  4  2  0  0  0
  3  6  1  0  0  0
  6  7  2  0  0  0
  7  8  1  0  0  0
  8  9  2  0  0  0
  9 10  1  0  0  0
 10 11  2  0  0  0
 11 12  1  0  0  0
 12 13  1  0  0  0
 12 14  2  0  0  0
 14 15  1  0  0  0
 15 16  2  0  0  0
 28 26  1  0  0  0
 16  6  1  0  0  0
 16 10  1  0  0  0
 23 24  1  0  0  0
  2  5  1  0  0  0
M  END
>  <minimizedAffinity>
-7.33825

>  <minimizedRMSD>
1.56271

$$$$
CHEMBL4538883 CSSS03437702368 MCULE-1710050658 MolPort-002-906-783 PubChem-2820666 ZINC000001038321 ZINC01038321


 33 36  0  0  0  0  0  0  0  0999 V2000
   16.8580   -9.6478   11.3887 C   0  0  0  0  0  0  0  0  0  0  0  0
   17.7442  -10.1676   12.2821 N   0  0  0  0  0  0  0  0  0  0  0  0
   17.3879  -10.4288   13.5668 C   0  0  0  0  0  0  0  0  0  0  0  0
   16.1200  -10.1801   13.9849 N   0  0  0  0  0  0  0  0  0  0  0  0
   15.1969   -9.6677   13.1321 C   0  0  0  0  0  0  0  0  0  0  0  0
   15.5467   -9.3908   11.8120 C   0  0  0  0  0  0  0  0  0  0  0  0
   20.3823   -7.2022    5.4303 C   0  0  0  0  0  0  0  0  0  0  0  0
   19.4733   -7.8424    6.4167 C   0  0  0  0  0  0  0  0  0  0  0  0
   19.6206   -7.7141    7.7549 N   0  0  0  0  0  0  0  0  0  0  0  0
   18.6409   -8.4126    8.2962 N   0  0  0  0  0  0  0  0  0  0  0  0
   17.8959   -8.9643    7.3341 C   0  0  0  0  0  0  0  0  0  0  0  0
   18.3760   -8.6379    6.0834 C   0  0  0  0  0  0  0  0  0  0  0  0
   16.8183   -9.7273    7.6236 N   0  0  0  0  0  0  0  0  0  0  0  0
   16.4948   -9.9363    8.9306 C   0  0  0  0  0  0  0  0  0  0  0  0
   17.2600   -9.3741    9.9803 C   0  0  0  0  0  0  0  0  0  0  0  0
   18.3793   -8.5747    9.6198 C   0  0  0  0  0  0  0  0  0  0  0  0
   19.2481   -7.8907   10.6274 C   0  0  0  0  0  0  0  0  0  0  0  0
   18.5895  -11.1035   14.7068 S   0  0  0  0  0  0  0  0  0  0  0  0
   19.0910   -9.4622   15.3150 C   0  0  0  0  0  0  0  0  0  0  0  0
   17.9039   -8.6812   15.7630 C   0  0  0  0  0  0  0  0  0  0  0  0
   17.5067   -7.7125   15.0633 O   0  0  0  0  0  0  0  0  0  0  0  0
   17.2429   -9.0367   16.9848 N   0  0  0  0  0  0  0  0  0  0  0  0
   17.6378   -9.7757   17.5018 H   0  0  0  0  0  0  0  0  0  0  0  0
   16.0658   -8.4267   17.5310 C   0  0  0  0  0  0  0  0  0  0  0  0
   14.9369   -8.1545   16.7442 C   0  0  0  0  0  0  0  0  0  0  0  0
   13.8025   -7.5721   17.3144 C   0  0  0  0  0  0  0  0  0  0  0  0
   13.7900   -7.2542   18.6745 C   0  0  0  0  0  0  0  0  0  0  0  0
   14.9166   -7.5050   19.4701 C   0  0  0  0  0  0  0  0  0  0  0  0
   16.0437   -8.1076   18.8927 C   0  0  0  0  0  0  0  0  0  0  0  0
   14.8844   -7.2142   20.9424 C   0  0  0  0  0  0  0  0  0  0  0  0
   13.9598   -6.2217   21.2186 F   0  0  0  0  0  0  0  0  0  0  0  0
   16.1284   -6.7911   21.3782 F   0  0  0  0  0  0  0  0  0  0  0  0
   14.5326   -8.3623   21.6272 F   0  0  0  0  0  0  0  0  0  0  0  0
  7  8  1  0  0  0
  8  9  2  0  0  0
  9 10  1  0  0  0
 10 11  1  0  0  0
 11 12  2  0  0  0
 11 13  1  0  0  0
 12  8  1  0  0  0
 13 14  2  0  0  0
 14 15  1  0  0  0
 15 16  2  0  0  0
 15  1  1  0  0  0
 16 17  1  0  0  0
 16 10  1  0  0  0
  1  2  2  0  0  0
  2  3  1  0  0  0
  3 18  1  0  0  0
  3  4  2  0  0  0
 18 19  1  0  0  0
 19 20  1  0  0  0
 20 21  2  0  0  0
 20 22  1  0  0  0
 22 24  1  0  0  0
 24 25  2  0  0  0
 25 26  1  0  0  0
 26 27  2  0  0  0
 27 28  1  0  0  0
 28 29  2  0  0  0
 28 30  1  0  0  0
 29 24  1  0  0  0
 30 31  1  0  0  0
 30 32  1  0  0  0
 30 33  1  0  0  0
  4  5  1  0  0  0
  5  6  2  0  0  0
  6  1  1  0  0  0
 22 23  1  0  0  0
M  END
>  <minimizedAffinity>
-7.31491

>  <minimizedRMSD>
1.88401

$$$$
CSSS14790113854 Z8363153340


 28 31  0  0  0  0  0  0  0  0999 V2000
   16.3706   -8.7512   15.6485 C   0  0  0  0  0  0  0  0  0  0  0  0
   15.8837  -10.1701   15.4500 C   0  0  0  0  0  0  0  0  0  0  0  0
   17.1714   -9.7133   14.7962 C   0  0  0  0  0  0  0  0  0  0  0  0
   16.9228   -9.4229   13.3944 N   0  0  0  0  0  0  0  0  0  0  0  0
   17.5660  -10.1476   12.3441 C   0  0  0  0  0  0  0  0  0  0  0  0
   18.3790  -11.0710   12.6194 O   0  0  0  0  0  0  0  0  0  0  0  0
   16.2915   -8.7044   13.1609 H   0  0  0  0  0  0  0  0  0  0  0  0
   17.2729   -9.8097   10.9407 C   0  0  0  0  0  0  0  0  0  0  0  0
   16.1437  -10.1990   10.2329 C   0  0  0  0  0  0  0  0  0  0  0  0
   16.2231   -9.7007    8.9736 N   0  0  0  0  0  0  0  0  0  0  0  0
   17.3914   -9.0271    8.9529 C   0  0  0  0  0  0  0  0  0  0  0  0
   17.9235   -8.3322    7.8643 C   0  0  0  0  0  0  0  0  0  0  0  0
   17.2180   -8.2635    6.5549 C   0  0  0  0  0  0  0  0  0  0  0  0
   19.1592   -7.6915    8.0417 C   0  0  0  0  0  0  0  0  0  0  0  0
   19.8246   -7.7575    9.2798 C   0  0  0  0  0  0  0  0  0  0  0  0
   19.2434   -8.4696   10.3386 C   0  0  0  0  0  0  0  0  0  0  0  0
   18.0462   -9.0748   10.1237 N   0  0  0  0  0  0  0  0  0  0  0  0
   17.0323   -8.6315   17.0083 C   0  0  0  0  0  0  0  0  0  0  0  0
   14.8015   -7.8224   17.8898 C   0  0  0  0  0  0  0  0  0  0  0  0
   14.5633   -7.1989   16.8214 O   0  0  0  0  0  0  0  0  0  0  0  0
   16.0210   -8.5508   18.0518 N   0  0  0  0  0  0  0  0  0  0  0  0
   16.1833   -9.0167   18.9038 H   0  0  0  0  0  0  0  0  0  0  0  0
   13.7976   -7.8034   18.9907 C   0  0  0  0  0  0  0  0  0  0  0  0
   13.3278   -5.8141   22.8532 C   0  0  0  0  0  0  0  0  0  0  0  0
   12.8708   -6.7040   21.7144 C   0  0  0  0  0  0  0  0  0  0  0  0
   13.9926   -7.6374   21.3219 C   0  0  0  0  0  0  0  0  0  0  0  0
   14.2552   -6.9393   20.0703 N   0  0  0  0  0  0  0  0  0  0  0  0
   13.1651   -6.0273   20.3959 C   0  0  0  0  0  0  0  0  0  0  0  0
 24 25  1  0  0  0
 25 26  1  0  0  0
 26 27  1  0  0  0
 27 23  1  0  0  0
 23 19  1  0  0  0
 19 20  2  0  0  0
 19 21  1  0  0  0
 21 18  1  0  0  0
  1 18  1  0  0  0
  1  2  1  0  0  0
  2  3  1  0  0  0
  3  4  1  0  0  0
  4  5  1  0  0  0
  5  6  2  0  0  0
  5  8  1  0  0  0
  8  9  2  0  0  0
  9 10  1  0  0  0
 10 11  2  0  0  0
 11 12  1  0  0  0
 12 13  1  0  0  0
 12 14  2  0  0  0
 14 15  1  0  0  0
 15 16  2  0  0  0
 16 17  1  0  0  0
 27 28  1  0  0  0
 28 25  1  0  0  0
  3  1  1  0  0  0
 17  8  1  0  0  0
 17 11  1  0  0  0
 21 22  1  0  0  0
  4  7  1  0  0  0
M  END
>  <minimizedAffinity>
-7.29517

>  <minimizedRMSD>
1.19894

$$$$
CSC027568008 75146090 CSSS00027568008 MCULE-4432674884 MolPort-023-196-847 PubChem-72040600 Z1258918962 ZINC000075146090


 27 30  0  0  0  0  0  0  0  0999 V2000
   17.8700  -11.5872   13.6220 O   0  0  0  0  0  0  0  0  0  0  0  0
   17.5141  -10.3773   13.5696 C   0  0  0  0  0  0  0  0  0  0  0  0
   16.8963   -9.7389   14.7429 C   0  0  0  0  0  0  0  0  0  0  0  0
   16.2561   -8.5002   14.6129 C   0  0  0  0  0  0  0  0  0  0  0  0
   15.6676   -7.8899   15.7236 C   0  0  0  0  0  0  0  0  0  0  0  0
   15.7091   -8.5078   16.9824 C   0  0  0  0  0  0  0  0  0  0  0  0
   16.3511   -9.7485   17.1086 C   0  0  0  0  0  0  0  0  0  0  0  0
   16.9400  -10.3597   15.9985 C   0  0  0  0  0  0  0  0  0  0  0  0
   15.1063   -7.8882   18.1325 N   0  0  0  0  0  0  0  0  0  0  0  0
   13.8232   -7.2984   18.2262 C   0  0  0  0  0  0  0  0  0  0  0  0
   13.0039   -7.2357   17.2720 O   0  0  0  0  0  0  0  0  0  0  0  0
   13.5433   -6.7800   19.5061 N   0  0  0  0  0  0  0  0  0  0  0  0
   14.7157   -7.0360   20.3341 C   0  0  0  0  0  0  0  0  0  0  0  0
   15.7397   -7.7610   19.4378 C   0  0  0  0  0  0  0  0  0  0  0  0
   12.7139   -6.3304   19.7876 H   0  0  0  0  0  0  0  0  0  0  0  0
   17.7034   -9.6381   12.3999 O   0  0  0  0  0  0  0  0  0  0  0  0
   18.9409   -9.6378   11.7032 C   0  0  0  0  0  0  0  0  0  0  0  0
   18.7511   -9.0466   10.3495 C   0  0  0  0  0  0  0  0  0  0  0  0
   17.6307   -9.3390    9.5700 C   0  0  0  0  0  0  0  0  0  0  0  0
   17.4421   -8.7754    8.3434 C   0  0  0  0  0  0  0  0  0  0  0  0
   16.2556   -9.2800    7.8656 C   0  0  0  0  0  0  0  0  0  0  0  0
   15.7791  -10.1220    8.8173 N   0  0  0  0  0  0  0  0  0  0  0  0
   16.6102  -10.1614    9.8551 N   0  0  0  0  0  0  0  0  0  0  0  0
   18.3463   -7.8718    7.7921 C   0  0  0  0  0  0  0  0  0  0  0  0
   19.4840   -7.5494    8.5564 C   0  0  0  0  0  0  0  0  0  0  0  0
   19.6841   -8.1301    9.8294 C   0  0  0  0  0  0  0  0  0  0  0  0
   16.4977  -10.6930   10.6761 H   0  0  0  0  0  0  0  0  0  0  0  0
  1  2  2  0  0  0
  2  3  1  0  0  0
  3  4  2  0  0  0
  4  5  1  0  0  0
  5  6  2  0  0  0
  6  9  1  0  0  0
  9 10  1  0  0  0
 10 11  2  0  0  0
 10 12  1  0  0  0
 12 13  1  0  0  0
 13 14  1  0  0  0
  6  7  1  0  0  0
  7  8  2  0  0  0
  2 16  1  0  0  0
 16 17  1  0  0  0
 17 18  1  0  0  0
 18 19  1  0  0  0
 19 20  2  0  0  0
 20 21  1  0  0  0
 21 22  2  0  0  0
 22 23  1  0  0  0
 20 24  1  0  0  0
 24 25  2  0  0  0
 25 26  1  0  0  0
  8  3  1  0  0  0
 26 18  2  0  0  0
 14  9  1  0  0  0
 23 19  1  0  0  0
 12 15  1  0  0  0
 23 27  1  0  0  0
M  END
>  <minimizedAffinity>
-7.28288

>  <minimizedRMSD>
1.75002

$$$$
CSSS14823899186 Z8653534637


 33 37  0  0  0  0  0  0  0  0999 V2000
   15.6469   -8.1779   17.0108 C   0  0  0  0  0  0  0  0  0  0  0  0
   14.7493   -7.3169   16.8042 O   0  0  0  0  0  0  0  0  0  0  0  0
   15.9892   -9.1285   15.9856 N   0  0  0  0  0  0  0  0  0  0  0  0
   15.2222   -9.0892   14.7328 C   0  0  0  0  0  0  0  0  0  0  0  0
   15.6824  -10.1357   13.7369 C   0  0  0  0  0  0  0  0  0  0  0  0
   17.1327  -10.2082   13.7736 N   0  0  0  0  0  0  0  0  0  0  0  0
   17.7412  -10.6913   15.0092 C   0  0  0  0  0  0  0  0  0  0  0  0
   18.3825   -9.5519   15.7794 C   0  0  0  0  0  0  0  0  0  0  0  0
   17.0549  -10.1119   16.2551 C   0  0  0  0  0  0  0  0  0  0  0  0
   17.9453   -9.8815   12.6286 C   0  0  0  0  0  0  0  0  0  0  0  0
   19.1956   -9.7855   12.7672 O   0  0  0  0  0  0  0  0  0  0  0  0
   17.3547   -9.6653   11.2834 C   0  0  0  0  0  0  0  0  0  0  0  0
   16.0703  -10.1563   11.0172 C   0  0  0  0  0  0  0  0  0  0  0  0
   15.5043   -9.9975    9.7520 C   0  0  0  0  0  0  0  0  0  0  0  0
   14.2292  -10.4833    9.4990 O   0  0  0  0  0  0  0  0  0  0  0  0
   16.1983   -9.3706    8.7669 N   0  0  0  0  0  0  0  0  0  0  0  0
   17.4487   -8.8826    8.9762 C   0  0  0  0  0  0  0  0  0  0  0  0
   18.1077   -8.2566    7.9644 N   0  0  0  0  0  0  0  0  0  0  0  0
   19.3561   -7.7453    8.1336 C   0  0  0  0  0  0  0  0  0  0  0  0
   19.9971   -7.8514    9.3689 C   0  0  0  0  0  0  0  0  0  0  0  0
   19.3450   -8.4891   10.4246 C   0  0  0  0  0  0  0  0  0  0  0  0
   18.0611   -9.0209   10.2434 C   0  0  0  0  0  0  0  0  0  0  0  0
   13.7494  -10.9160   10.1777 H   0  0  0  0  0  0  0  0  0  0  0  0
   16.3181   -8.2034   18.3475 C   0  0  0  0  0  0  0  0  0  0  0  0
   14.3527   -6.5247   22.4662 N   0  0  0  0  0  0  0  0  0  0  0  0
   14.5150   -7.0941   21.1728 C   0  0  0  0  0  0  0  0  0  0  0  0
   13.4849   -7.4909   20.4067 N   0  0  0  0  0  0  0  0  0  0  0  0
   14.0160   -7.9551   19.2892 N   0  0  0  0  0  0  0  0  0  0  0  0
   15.3502   -7.8302   19.4173 C   0  0  0  0  0  0  0  0  0  0  0  0
   15.7148   -7.2808   20.5926 N   0  0  0  0  0  0  0  0  0  0  0  0
   13.4508   -6.4104   22.8441 H   0  0  0  0  0  0  0  0  0  0  0  0
   15.1422   -6.2449   22.9835 H   0  0  0  0  0  0  0  0  0  0  0  0
   16.6145   -7.0726   20.9340 H   0  0  0  0  0  0  0  0  0  0  0  0
 25 26  1  0  0  0
 26 27  2  0  0  0
 27 28  1  0  0  0
 28 29  2  0  0  0
 29 24  1  0  0  0
 24  1  1  0  0  0
  1  2  2  0  0  0
  1  3  1  0  0  0
  3  4  1  0  0  0
  4  5  1  0  0  0
  5  6  1  0  0  0
  6  7  1  0  0  0
  7  8  1  0  0  0
  8  9  1  0  0  0
  6 10  1  0  0  0
 10 11  2  0  0  0
 10 12  1  0  0  0
 12 13  2  0  0  0
 13 14  1  0  0  0
 14 15  1  0  0  0
 14 16  2  0  0  0
 16 17  1  0  0  0
 17 18  2  0  0  0
 18 19  1  0  0  0
 19 20  2  0  0  0
 20 21  1  0  0  0
 21 22  2  0  0  0
 29 30  1  0  0  0
 30 26  1  0  0  0
  9  3  1  0  0  0
 22 12  1  0  0  0
  9  7  1  0  0  0
 22 17  1  0  0  0
 25 31  1  0  0  0
 25 32  1  0  0  0
 15 23  1  0  0  0
 30 33  1  0  0  0
M  END
>  <minimizedAffinity>
-7.27202

>  <minimizedRMSD>
1.57155

$$$$
CSC068949867 CSSS00068949867 PubChem-133286515


 26 28  0  0  0  0  0  0  0  0999 V2000
   17.9071  -10.7686   13.2053 C   0  0  0  0  0  0  0  0  0  0  0  0
   18.7722  -12.0182   13.2178 C   0  0  0  0  0  0  0  0  0  0  0  0
   17.0124   -8.8915   16.3696 C   0  0  0  0  0  0  0  0  0  0  0  0
   18.2771   -8.6068   16.8971 C   0  0  0  0  0  0  0  0  0  0  0  0
   19.4289   -9.0264   16.2259 C   0  0  0  0  0  0  0  0  0  0  0  0
   19.3184   -9.7302   15.0241 C   0  0  0  0  0  0  0  0  0  0  0  0
   18.0525  -10.0156   14.4880 C   0  0  0  0  0  0  0  0  0  0  0  0
   16.9032   -9.5948   15.1655 C   0  0  0  0  0  0  0  0  0  0  0  0
   15.5698   -8.3651   17.2212 S   0  0  0  0  0  0  0  0  0  0  0  0
   14.6175   -9.5182   17.3744 O   0  0  0  0  0  0  0  0  0  0  0  0
   14.8991   -7.2790   16.4297 O   0  0  0  0  0  0  0  0  0  0  0  0
   14.7654   -7.6316   19.5566 C   0  0  0  0  0  0  0  0  0  0  0  0
   15.9902   -7.7602   18.7872 N   0  0  0  0  0  0  0  0  0  0  0  0
   16.6250   -8.4099   19.2513 H   0  0  0  0  0  0  0  0  0  0  0  0
   18.2608   -9.9170   12.0777 N   0  0  0  0  0  0  0  0  0  0  0  0
   19.0814   -9.3765   12.1379 H   0  0  0  0  0  0  0  0  0  0  0  0
   17.4723   -9.8283   10.8857 C   0  0  0  0  0  0  0  0  0  0  0  0
   17.9256   -9.0841    9.7877 C   0  0  0  0  0  0  0  0  0  0  0  0
   19.1527   -8.4056    9.8057 C   0  0  0  0  0  0  0  0  0  0  0  0
   19.5638   -7.6743    8.6866 C   0  0  0  0  0  0  0  0  0  0  0  0
   18.7529   -7.6164    7.5480 C   0  0  0  0  0  0  0  0  0  0  0  0
   17.5270   -8.2902    7.5231 C   0  0  0  0  0  0  0  0  0  0  0  0
   17.1104   -9.0241    8.6377 C   0  0  0  0  0  0  0  0  0  0  0  0
   15.9200   -9.6747    8.6176 N   0  0  0  0  0  0  0  0  0  0  0  0
   15.5004  -10.3900    9.6939 C   0  0  0  0  0  0  0  0  0  0  0  0
   16.2709  -10.4622   10.8114 N   0  0  0  0  0  0  0  0  0  0  0  0
 12 13  1  0  0  0
 13  9  1  0  0  0
  9 10  2  0  0  0
  9 11  2  0  0  0
  9  3  1  0  0  0
  3  4  2  0  0  0
  4  5  1  0  0  0
  5  6  2  0  0  0
  6  7  1  0  0  0
  7  8  2  0  0  0
  7  1  1  0  0  0
  1  2  1  0  0  0
  1 15  1  0  0  0
 15 17  1  0  0  0
 17 18  1  0  0  0
 18 19  2  0  0  0
 19 20  1  0  0  0
 20 21  2  0  0  0
 21 22  1  0  0  0
 22 23  2  0  0  0
 23 24  1  0  0  0
 24 25  2  0  0  0
 25 26  1  0  0  0
  8  3  1  0  0  0
 26 17  2  0  0  0
 23 18  1  0  0  0
 13 14  1  0  0  0
 15 16  1  0  0  0
M  END
>  <minimizedAffinity>
-7.26964

>  <minimizedRMSD>
1.29065

$$$$
CSC027057504 12778843 CSSS00027057504 MCULE-7712970502 MolPort-005-654-949 PubChem-17527392 Z107215978 ZINC000012778843


 26 28  0  0  0  0  0  0  0  0999 V2000
   16.8730  -10.5278   13.1827 N   0  0  0  0  0  0  0  0  0  0  0  0
   16.0550   -9.5105   12.5906 C   0  0  0  0  0  0  0  0  0  0  0  0
   15.5292   -8.6040   13.2889 O   0  0  0  0  0  0  0  0  0  0  0  0
   17.2622  -11.1934   12.5705 H   0  0  0  0  0  0  0  0  0  0  0  0
   16.9175  -10.0302   16.9119 C   0  0  0  0  0  0  0  0  0  0  0  0
   16.5962   -9.8635   15.5566 C   0  0  0  0  0  0  0  0  0  0  0  0
   17.1828  -10.6758   14.5750 C   0  0  0  0  0  0  0  0  0  0  0  0
   18.0972  -11.6611   14.9605 C   0  0  0  0  0  0  0  0  0  0  0  0
   18.4228  -11.8340   16.3083 C   0  0  0  0  0  0  0  0  0  0  0  0
   17.8340  -11.0203   17.2798 C   0  0  0  0  0  0  0  0  0  0  0  0
   14.9504   -7.3592   18.9320 C   0  0  0  0  0  0  0  0  0  0  0  0
   15.4637   -8.0914   17.7455 C   0  0  0  0  0  0  0  0  0  0  0  0
   16.3336   -9.2142   17.9366 N   0  0  0  0  0  0  0  0  0  0  0  0
   15.1258   -7.7127   16.5930 O   0  0  0  0  0  0  0  0  0  0  0  0
   16.5529   -9.4496   18.8670 H   0  0  0  0  0  0  0  0  0  0  0  0
   15.8566   -9.5030   11.1177 C   0  0  0  0  0  0  0  0  0  0  0  0
   17.1161   -9.4202   10.4696 O   0  0  0  0  0  0  0  0  0  0  0  0
   17.2229   -9.4510    9.0798 C   0  0  0  0  0  0  0  0  0  0  0  0
   18.0793   -8.7015    8.3753 N   0  0  0  0  0  0  0  0  0  0  0  0
   17.8396   -9.0517    7.1062 C   0  0  0  0  0  0  0  0  0  0  0  0
   18.5478   -8.4767    6.0551 C   0  0  0  0  0  0  0  0  0  0  0  0
   19.5200   -7.5174    6.3904 C   0  0  0  0  0  0  0  0  0  0  0  0
   19.7522   -7.1671    7.7371 C   0  0  0  0  0  0  0  0  0  0  0  0
   19.0034   -7.7843    8.7509 C   0  0  0  0  0  0  0  0  0  0  0  0
   16.8715   -9.9836    7.0165 N   0  0  0  0  0  0  0  0  0  0  0  0
   16.4815  -10.2363    8.2643 N   0  0  0  0  0  0  0  0  0  0  0  0
 11 12  1  0  0  0
 12 13  1  0  0  0
 13  5  1  0  0  0
  5  6  2  0  0  0
  6  7  1  0  0  0
  7  1  1  0  0  0
  1  2  1  0  0  0
  2 16  1  0  0  0
 16 17  1  0  0  0
 17 18  1  0  0  0
 18 19  1  0  0  0
 19 20  1  0  0  0
 20 21  1  0  0  0
 21 22  2  0  0  0
 22 23  1  0  0  0
 23 24  2  0  0  0
 20 25  2  0  0  0
 25 26  1  0  0  0
  2  3  2  0  0  0
  7  8  2  0  0  0
  8  9  1  0  0  0
  9 10  2  0  0  0
 12 14  2  0  0  0
 10  5  1  0  0  0
 26 18  2  0  0  0
 24 19  1  0  0  0
 13 15  1  0  0  0
  1  4  1  0  0  0
M  END
>  <minimizedAffinity>
-7.25747

>  <minimizedRMSD>
0.56716

$$$$
CSSS00159451241 MCULE-2169199503 MolPort-005-014-924 PubChem-45177431


 33 37  0  0  0  0  0  0  0  0999 V2000
   17.7597  -10.0902   12.2621 N   0  0  0  0  0  0  0  0  0  0  0  0
   18.6167  -10.4459   13.3945 C   0  0  0  0  0  0  0  0  0  0  0  0
   17.7889  -11.1026   14.4969 C   0  0  0  0  0  0  0  0  0  0  0  0
   16.6319  -10.1832   14.8589 C   0  0  0  0  0  0  0  0  0  0  0  0
   15.7271  -10.7524   15.9217 C   0  0  0  0  0  0  0  0  0  0  0  0
   16.6532   -9.5873   16.2649 C   0  0  0  0  0  0  0  0  0  0  0  0
   15.8691   -9.5162   13.7138 C   0  0  0  0  0  0  0  0  0  0  0  0
   16.8727   -9.0058   12.6823 C   0  0  0  0  0  0  0  0  0  0  0  0
   15.8756   -8.3114   16.3851 C   0  0  0  0  0  0  0  0  0  0  0  0
   16.1172   -7.3547   15.6000 O   0  0  0  0  0  0  0  0  0  0  0  0
   14.8964   -8.1703   17.4184 N   0  0  0  0  0  0  0  0  0  0  0  0
   14.7234   -8.9374   18.0107 H   0  0  0  0  0  0  0  0  0  0  0  0
   14.1440   -6.9412   17.6329 C   0  0  0  0  0  0  0  0  0  0  0  0
   13.6438   -6.8739   19.0361 C   0  0  0  0  0  0  0  0  0  0  0  0
   12.3226   -6.4931   19.2892 C   0  0  0  0  0  0  0  0  0  0  0  0
   11.8581   -6.4089   20.6042 C   0  0  0  0  0  0  0  0  0  0  0  0
   12.7134   -6.7086   21.6683 C   0  0  0  0  0  0  0  0  0  0  0  0
   14.0358   -7.1071   21.4241 C   0  0  0  0  0  0  0  0  0  0  0  0
   14.5001   -7.1705   20.1023 C   0  0  0  0  0  0  0  0  0  0  0  0
   14.9690   -7.3755   22.5687 C   0  0  0  0  0  0  0  0  0  0  0  0
   14.8079   -8.6707   23.0297 F   0  0  0  0  0  0  0  0  0  0  0  0
   16.2737   -7.2064   22.1439 F   0  0  0  0  0  0  0  0  0  0  0  0
   14.7164   -6.5015   23.6120 F   0  0  0  0  0  0  0  0  0  0  0  0
   18.6244   -9.5446   11.2297 C   0  0  0  0  0  0  0  0  0  0  0  0
   15.8997  -10.9521   10.3701 C   0  0  0  0  0  0  0  0  0  0  0  0
   16.6652   -9.9530    9.5748 C   0  0  0  0  0  0  0  0  0  0  0  0
   17.8409   -9.3215    9.9780 C   0  0  0  0  0  0  0  0  0  0  0  0
   18.2077   -8.5414    8.9587 N   0  0  0  0  0  0  0  0  0  0  0  0
   19.2263   -7.7073    8.6534 C   0  0  0  0  0  0  0  0  0  0  0  0
   19.0744   -7.1676    7.3619 C   0  0  0  0  0  0  0  0  0  0  0  0
   17.6354   -7.7916    6.6590 S   0  0  0  0  0  0  0  0  0  0  0  0
   17.2972   -8.6927    8.0222 C   0  0  0  0  0  0  0  0  0  0  0  0
   16.3055   -9.5545    8.3219 N   0  0  0  0  0  0  0  0  0  0  0  0
 25 26  1  0  0  0
 26 27  2  0  0  0
 27 24  1  0  0  0
 24  1  1  0  0  0
  1  2  1  0  0  0
  2  3  1  0  0  0
  3  4  1  0  0  0
  4  5  1  0  0  0
  5  6  1  0  0  0
  6  9  1  0  0  0
  9 10  2  0  0  0
  9 11  1  0  0  0
 11 13  1  0  0  0
 13 14  1  0  0  0
 14 15  2  0  0  0
 15 16  1  0  0  0
 16 17  2  0  0  0
 17 18  1  0  0  0
 18 19  2  0  0  0
 18 20  1  0  0  0
 20 21  1  0  0  0
 20 22  1  0  0  0
 20 23  1  0  0  0
  4  7  1  0  0  0
  7  8  1  0  0  0
 27 28  1  0  0  0
 28 29  1  0  0  0
 29 30  2  0  0  0
 30 31  1  0  0  0
 31 32  1  0  0  0
 32 33  2  0  0  0
 33 26  1  0  0  0
  8  1  1  0  0  0
 32 28  1  0  0  0
  6  4  1  0  0  0
 19 14  1  0  0  0
 11 12  1  0  0  0
M  END
>  <minimizedAffinity>
-7.25567

>  <minimizedRMSD>
2.04163

$$$$
CSSS09880976216 MCULE-8163909295 MolPort-051-538-363 PubChem-165427049


 27 29  0  0  0  0  0  0  0  0999 V2000
   17.5174  -10.4042   12.7222 N   0  0  0  0  0  0  0  0  0  0  0  0
   16.5035   -9.9502   11.8237 C   0  0  0  0  0  0  0  0  0  0  0  0
   15.3192   -9.7971   12.2314 O   0  0  0  0  0  0  0  0  0  0  0  0
   18.4381  -10.5074   12.3893 H   0  0  0  0  0  0  0  0  0  0  0  0
   16.8466   -9.6661   10.4225 C   0  0  0  0  0  0  0  0  0  0  0  0
   17.8593   -8.8030   10.1306 N   0  0  0  0  0  0  0  0  0  0  0  0
   18.1974   -8.5232    8.8453 C   0  0  0  0  0  0  0  0  0  0  0  0
   19.2386   -7.6354    8.5607 C   0  0  0  0  0  0  0  0  0  0  0  0
   19.5730   -7.3592    7.2304 C   0  0  0  0  0  0  0  0  0  0  0  0
   18.8679   -7.9694    6.1862 C   0  0  0  0  0  0  0  0  0  0  0  0
   17.8244   -8.8590    6.4665 C   0  0  0  0  0  0  0  0  0  0  0  0
   17.4869   -9.1379    7.7938 C   0  0  0  0  0  0  0  0  0  0  0  0
   16.4769   -9.9980    8.0850 N   0  0  0  0  0  0  0  0  0  0  0  0
   16.1426  -10.2748    9.3738 C   0  0  0  0  0  0  0  0  0  0  0  0
   17.2320  -10.7187   14.1130 C   0  0  0  0  0  0  0  0  0  0  0  0
   16.4594   -8.7245   16.7793 C   0  0  0  0  0  0  0  0  0  0  0  0
   17.2020   -9.9232   17.3179 C   0  0  0  0  0  0  0  0  0  0  0  0
   18.2740  -10.1892   16.3002 C   0  0  0  0  0  0  0  0  0  0  0  0
   17.7420   -9.6023   15.0097 C   0  0  0  0  0  0  0  0  0  0  0  0
   16.6502   -8.6844   15.3307 N   0  0  0  0  0  0  0  0  0  0  0  0
   17.1139   -7.3471   14.9983 C   0  0  0  0  0  0  0  0  0  0  0  0
   14.9821   -8.8579   17.1200 C   0  0  0  0  0  0  0  0  0  0  0  0
   12.8339   -6.1529   18.8733 C   0  0  0  0  0  0  0  0  0  0  0  0
   13.2978   -7.1662   17.9411 N   0  0  0  0  0  0  0  0  0  0  0  0
   14.5617   -7.8116   18.0953 C   0  0  0  0  0  0  0  0  0  0  0  0
   15.3187   -7.5186   19.0589 O   0  0  0  0  0  0  0  0  0  0  0  0
   12.7238   -7.4150   17.1809 H   0  0  0  0  0  0  0  0  0  0  0  0
 23 24  1  0  0  0
 24 25  1  0  0  0
 25 26  2  0  0  0
 25 22  1  0  0  0
 16 22  1  0  0  0
 16 17  1  0  0  0
 17 18  1  0  0  0
 18 19  1  0  0  0
 19 15  1  0  0  0
 15  1  1  0  0  0
  1  2  1  0  0  0
  2  3  2  0  0  0
  2  5  1  0  0  0
  5  6  2  0  0  0
  6  7  1  0  0  0
  7  8  2  0  0  0
  8  9  1  0  0  0
  9 10  2  0  0  0
 10 11  1  0  0  0
 11 12  2  0  0  0
 12 13  1  0  0  0
 13 14  2  0  0  0
 19 20  1  0  0  0
 20 21  1  0  0  0
 20 16  1  0  0  0
 14  5  1  0  0  0
 12  7  1  0  0  0
 24 27  1  0  0  0
  1  4  1  0  0  0
M  END
>  <minimizedAffinity>
-7.23074

>  <minimizedRMSD>
2.53837

$$$$
CSC027587878 76062579 CSSS00027587878 MCULE-3021322661 MolPort-023-168-437 PubChem-72120287 Z1271597818 ZINC000076062579 ZINC76062579


 27 29  0  0  0  0  0  0  0  0999 V2000
   17.6075   -9.4714   14.5604 C   0  0  0  0  0  0  0  0  0  0  0  0
   18.1089  -10.6635   15.1066 C   0  0  0  0  0  0  0  0  0  0  0  0
   17.7698  -11.0380   16.4088 C   0  0  0  0  0  0  0  0  0  0  0  0
   16.9289  -10.2249   17.1727 C   0  0  0  0  0  0  0  0  0  0  0  0
   16.4209   -9.0318   16.6402 C   0  0  0  0  0  0  0  0  0  0  0  0
   16.7662   -8.6631   15.3316 C   0  0  0  0  0  0  0  0  0  0  0  0
   15.5342   -8.1747   17.4466 C   0  0  0  0  0  0  0  0  0  0  0  0
   14.6254   -7.5022   16.8862 O   0  0  0  0  0  0  0  0  0  0  0  0
   15.7029   -8.1039   18.8647 N   0  0  0  0  0  0  0  0  0  0  0  0
   16.4158   -8.6352   19.2873 H   0  0  0  0  0  0  0  0  0  0  0  0
   14.8541   -7.2714   19.7022 C   0  0  0  0  0  0  0  0  0  0  0  0
   15.2487   -7.4327   21.1576 C   0  0  0  0  0  0  0  0  0  0  0  0
   16.4083   -6.7026   21.4191 O   0  0  0  0  0  0  0  0  0  0  0  0
   17.1289   -7.0281   20.8572 H   0  0  0  0  0  0  0  0  0  0  0  0
   17.9281   -9.0684   13.2619 O   0  0  0  0  0  0  0  0  0  0  0  0
   18.3129   -9.9859   12.2463 C   0  0  0  0  0  0  0  0  0  0  0  0
   13.9533  -10.5205    9.8994 C   0  0  0  0  0  0  0  0  0  0  0  0
   15.3520  -10.0193    9.9072 C   0  0  0  0  0  0  0  0  0  0  0  0
   15.8385   -9.3506    8.8280 N   0  0  0  0  0  0  0  0  0  0  0  0
   17.1111   -8.8738    8.7991 C   0  0  0  0  0  0  0  0  0  0  0  0
   17.5728   -8.1872    7.6725 C   0  0  0  0  0  0  0  0  0  0  0  0
   18.8796   -7.6924    7.6404 C   0  0  0  0  0  0  0  0  0  0  0  0
   19.7294   -7.8818    8.7340 C   0  0  0  0  0  0  0  0  0  0  0  0
   19.2762   -8.5675    9.8646 C   0  0  0  0  0  0  0  0  0  0  0  0
   17.9667   -9.0691    9.9087 C   0  0  0  0  0  0  0  0  0  0  0  0
   17.4773   -9.7657   11.0283 C   0  0  0  0  0  0  0  0  0  0  0  0
   16.1613  -10.2340   11.0246 C   0  0  0  0  0  0  0  0  0  0  0  0
 17 18  1  0  0  0
 18 19  2  0  0  0
 19 20  1  0  0  0
 20 21  2  0  0  0
 21 22  1  0  0  0
 22 23  2  0  0  0
 23 24  1  0  0  0
 24 25  2  0  0  0
 25 26  1  0  0  0
 26 16  1  0  0  0
 16 15  1  0  0  0
 15  1  1  0  0  0
  1  2  2  0  0  0
  2  3  1  0  0  0
  3  4  2  0  0  0
  4  5  1  0  0  0
  5  6  2  0  0  0
  5  7  1  0  0  0
  7  8  2  0  0  0
  7  9  1  0  0  0
  9 11  1  0  0  0
 11 12  1  0  0  0
 12 13  1  0  0  0
 26 27  2  0  0  0
 27 18  1  0  0  0
 25 20  1  0  0  0
  6  1  1  0  0  0
  9 10  1  0  0  0
 13 14  1  0  0  0
M  END
>  <minimizedAffinity>
-7.22143

>  <minimizedRMSD>
1.10134

$$$$
CSC027534834 CSSS00027534834 MCULE-4892093744 MolPort-020-094-476 Z1230094331


 25 27  0  0  0  0  0  0  0  0999 V2000
   17.2105   -9.2944   11.7137 N   0  0  0  0  0  0  0  0  0  0  0  0
   18.1023   -9.0091   12.0178 H   0  0  0  0  0  0  0  0  0  0  0  0
   16.9981   -9.5389   10.3199 C   0  0  0  0  0  0  0  0  0  0  0  0
   17.7939   -8.9029    9.3575 C   0  0  0  0  0  0  0  0  0  0  0  0
   17.5472   -9.1807    7.9967 C   0  0  0  0  0  0  0  0  0  0  0  0
   18.3200   -8.5658    7.0076 C   0  0  0  0  0  0  0  0  0  0  0  0
   19.3371   -7.6761    7.3669 C   0  0  0  0  0  0  0  0  0  0  0  0
   19.5842   -7.3991    8.7153 C   0  0  0  0  0  0  0  0  0  0  0  0
   18.8152   -8.0104    9.7103 C   0  0  0  0  0  0  0  0  0  0  0  0
   20.0849   -7.0813    6.4069 F   0  0  0  0  0  0  0  0  0  0  0  0
   16.5596  -10.0451    7.6503 N   0  0  0  0  0  0  0  0  0  0  0  0
   15.8005  -10.6510    8.6001 C   0  0  0  0  0  0  0  0  0  0  0  0
   16.0213  -10.3978    9.9169 N   0  0  0  0  0  0  0  0  0  0  0  0
   16.1501   -9.4545   12.6937 C   0  0  0  0  0  0  0  0  0  0  0  0
   16.2545   -8.3588   13.7349 C   0  0  0  0  0  0  0  0  0  0  0  0
   17.3397   -9.9664   15.3332 N   0  0  0  0  0  0  0  0  0  0  0  0
   16.4792   -8.9635   15.0790 C   0  0  0  0  0  0  0  0  0  0  0  0
   15.7919   -8.6092   16.1816 N   0  0  0  0  0  0  0  0  0  0  0  0
   16.2198   -9.3841   17.1689 N   0  0  0  0  0  0  0  0  0  0  0  0
   17.1547  -10.2016   16.6488 C   0  0  0  0  0  0  0  0  0  0  0  0
   18.0177  -11.4444   17.6079 S   0  0  0  0  0  0  0  0  0  0  0  0
   17.5845  -11.4042   18.8965 H   0  0  0  0  0  0  0  0  0  0  0  0
   18.1656  -12.1329   14.5266 C   0  0  0  0  0  0  0  0  0  0  0  0
   18.2318  -10.6239   14.3791 C   0  0  0  0  0  0  0  0  0  0  0  0
   19.6590  -10.1359   14.5460 C   0  0  0  0  0  0  0  0  0  0  0  0
 23 24  1  0  0  0
 24 16  1  0  0  0
 16 17  1  0  0  0
 17 15  1  0  0  0
 15 14  1  0  0  0
 14  1  1  0  0  0
  1  3  1  0  0  0
  3  4  1  0  0  0
  4  5  1  0  0  0
  5  6  2  0  0  0
  6  7  1  0  0  0
  7  8  2  0  0  0
  8  9  1  0  0  0
  7 10  1  0  0  0
  5 11  1  0  0  0
 11 12  2  0  0  0
 12 13  1  0  0  0
 17 18  2  0  0  0
 18 19  1  0  0  0
 19 20  2  0  0  0
 20 21  1  0  0  0
 24 25  1  0  0  0
 20 16  1  0  0  0
 13  3  2  0  0  0
  9  4  2  0  0  0
  1  2  1  0  0  0
 21 22  1  0  0  0
M  END
>  <minimizedAffinity>
-7.21616

>  <minimizedRMSD>
1.97927

$$$$
CSSS00329250953 Z6795745454


 26 29  0  0  0  0  0  0  0  0999 V2000
   17.9499  -10.7292   13.3084 C   0  0  0  0  0  0  0  0  0  0  0  0
   18.0935   -9.9715   14.5804 C   0  0  0  0  0  0  0  0  0  0  0  0
   19.3636   -9.7379   15.1160 C   0  0  0  0  0  0  0  0  0  0  0  0
   19.4999   -9.0054   16.2981 C   0  0  0  0  0  0  0  0  0  0  0  0
   18.3664   -8.5012   16.9426 C   0  0  0  0  0  0  0  0  0  0  0  0
   17.0887   -8.7240   16.4089 C   0  0  0  0  0  0  0  0  0  0  0  0
   16.9606   -9.4602   15.2218 C   0  0  0  0  0  0  0  0  0  0  0  0
   15.8950   -8.1888   17.0867 C   0  0  0  0  0  0  0  0  0  0  0  0
   14.9091   -7.7899   16.4078 O   0  0  0  0  0  0  0  0  0  0  0  0
   15.8523   -8.1216   18.5148 N   0  0  0  0  0  0  0  0  0  0  0  0
   16.6308   -8.4345   19.0299 H   0  0  0  0  0  0  0  0  0  0  0  0
   14.6968   -7.6063   19.2300 C   0  0  0  0  0  0  0  0  0  0  0  0
   15.1670   -6.6767   20.3290 C   0  0  0  0  0  0  0  0  0  0  0  0
   14.7412   -8.0897   20.6650 C   0  0  0  0  0  0  0  0  0  0  0  0
   18.0707   -9.8201   12.1803 N   0  0  0  0  0  0  0  0  0  0  0  0
   18.8067   -9.1662   12.1718 H   0  0  0  0  0  0  0  0  0  0  0  0
   19.5702   -7.4592    6.2468 I   0  0  0  0  0  0  0  0  0  0  0  0
   18.4176   -8.3592    7.7584 C   0  0  0  0  0  0  0  0  0  0  0  0
   17.1094   -8.8192    7.6037 C   0  0  0  0  0  0  0  0  0  0  0  0
   16.6236   -9.3646    8.7940 C   0  0  0  0  0  0  0  0  0  0  0  0
   15.3849   -9.8928    8.9570 N   0  0  0  0  0  0  0  0  0  0  0  0
   15.0258  -10.3969   10.1738 C   0  0  0  0  0  0  0  0  0  0  0  0
   15.9039  -10.3715   11.2220 N   0  0  0  0  0  0  0  0  0  0  0  0
   17.1558   -9.8457   11.0840 C   0  0  0  0  0  0  0  0  0  0  0  0
   17.5171   -9.3339    9.8439 C   0  0  0  0  0  0  0  0  0  0  0  0
   18.9534   -8.6274    9.3424 S   0  0  0  0  0  0  0  0  0  0  0  0
 17 18  1  0  0  0
 18 19  2  0  0  0
 19 20  1  0  0  0
 20 21  2  0  0  0
 21 22  1  0  0  0
 22 23  2  0  0  0
 23 24  1  0  0  0
 24 15  1  0  0  0
 15  1  1  0  0  0
  1  2  1  0  0  0
  2  3  2  0  0  0
  3  4  1  0  0  0
  4  5  2  0  0  0
  5  6  1  0  0  0
  6  7  2  0  0  0
  6  8  1  0  0  0
  8  9  2  0  0  0
  8 10  1  0  0  0
 10 12  1  0  0  0
 12 13  1  0  0  0
 13 14  1  0  0  0
 24 25  2  0  0  0
 25 26  1  0  0  0
 26 18  1  0  0  0
 25 20  1  0  0  0
  7  2  1  0  0  0
 14 12  1  0  0  0
 15 16  1  0  0  0
 10 11  1  0  0  0
M  END
>  <minimizedAffinity>
-7.21075

>  <minimizedRMSD>
1.50142

$$$$
CSSS14831854588 Z8595185944


 32 35  0  0  0  0  0  0  0  0999 V2000
   18.2190  -10.9216   14.0963 C   0  0  0  0  0  0  0  0  0  0  0  0
   18.4444  -12.0124   14.9426 C   0  0  0  0  0  0  0  0  0  0  0  0
   17.9292  -12.0077   16.2422 C   0  0  0  0  0  0  0  0  0  0  0  0
   17.1927  -10.9102   16.6981 C   0  0  0  0  0  0  0  0  0  0  0  0
   16.9712   -9.8151   15.8559 C   0  0  0  0  0  0  0  0  0  0  0  0
   17.4885   -9.8209   14.5558 C   0  0  0  0  0  0  0  0  0  0  0  0
   16.0476   -8.4408   16.4347 S   0  0  0  0  0  0  0  0  0  0  0  0
   16.7393   -7.1726   16.0223 O   0  0  0  0  0  0  0  0  0  0  0  0
   14.6630   -8.4571   15.8495 O   0  0  0  0  0  0  0  0  0  0  0  0
   15.9349   -8.4979   18.1611 N   0  0  0  0  0  0  0  0  0  0  0  0
   14.9932   -7.7095   18.8944 C   0  0  0  0  0  0  0  0  0  0  0  0
   14.2158   -6.9211   18.2941 O   0  0  0  0  0  0  0  0  0  0  0  0
   16.5412   -9.0948   18.6564 H   0  0  0  0  0  0  0  0  0  0  0  0
   14.9174   -7.8181   20.3810 C   0  0  0  0  0  0  0  0  0  0  0  0
   15.8372   -6.8084   21.0479 C   0  0  0  0  0  0  0  0  0  0  0  0
   14.9765   -5.9893   21.9909 C   0  0  0  0  0  0  0  0  0  0  0  0
   13.6895   -6.7644   22.1630 C   0  0  0  0  0  0  0  0  0  0  0  0
   13.5129   -7.5301   20.8731 C   0  0  0  0  0  0  0  0  0  0  0  0
   18.7884  -10.9153   12.7222 C   0  0  0  0  0  0  0  0  0  0  0  0
   18.4053   -9.6898   12.0377 N   0  0  0  0  0  0  0  0  0  0  0  0
   18.8792   -8.8565   12.2619 H   0  0  0  0  0  0  0  0  0  0  0  0
   19.5507   -7.7136    7.1896 C   0  0  0  0  0  0  0  0  0  0  0  0
   18.5164   -8.3070    8.0770 C   0  0  0  0  0  0  0  0  0  0  0  0
   17.1933   -8.5497    7.6998 C   0  0  0  0  0  0  0  0  0  0  0  0
   16.6818   -9.0897    8.8607 C   0  0  0  0  0  0  0  0  0  0  0  0
   15.4157   -9.5203    9.0814 N   0  0  0  0  0  0  0  0  0  0  0  0
   15.0975  -10.0281   10.3081 C   0  0  0  0  0  0  0  0  0  0  0  0
   13.7158  -10.5063   10.5734 C   0  0  0  0  0  0  0  0  0  0  0  0
   16.0687  -10.1025   11.3247 C   0  0  0  0  0  0  0  0  0  0  0  0
   17.3690   -9.6448   11.0528 C   0  0  0  0  0  0  0  0  0  0  0  0
   17.6176   -9.1522    9.8137 N   0  0  0  0  0  0  0  0  0  0  0  0
   18.7585   -8.6756    9.3561 N   0  0  0  0  0  0  0  0  0  0  0  0
 22 23  1  0  0  0
 23 24  1  0  0  0
 24 25  2  0  0  0
 25 26  1  0  0  0
 26 27  2  0  0  0
 27 28  1  0  0  0
 27 29  1  0  0  0
 29 30  2  0  0  0
 30 20  1  0  0  0
 20 19  1  0  0  0
 19  1  1  0  0  0
  1  2  2  0  0  0
  2  3  1  0  0  0
  3  4  2  0  0  0
  4  5  1  0  0  0
  5  6  2  0  0  0
  5  7  1  0  0  0
  7  8  2  0  0  0
  7  9  2  0  0  0
  7 10  1  0  0  0
 10 11  1  0  0  0
 11 12  2  0  0  0
 11 14  1  0  0  0
 14 15  1  0  0  0
 15 16  1  0  0  0
 16 17  1  0  0  0
 17 18  1  0  0  0
 30 31  1  0  0  0
 31 32  1  0  0  0
 32 23  2  0  0  0
 31 25  1  0  0  0
  6  1  1  0  0  0
 18 14  1  0  0  0
 20 21  1  0  0  0
 10 13  1  0  0  0
M  END
>  <minimizedAffinity>
-7.20262

>  <minimizedRMSD>
2.10880

$$$$
CSC027793679 48325396 CSSS00027793679 MCULE-4390942901 MolPort-009-078-402 PubChem-47054459 Z645961754 ZINC000048325396


 26 30  0  0  0  0  0  0  0  0999 V2000
   16.0557  -10.4534   10.6884 C   0  0  0  0  0  0  0  0  0  0  0  0
   16.8863  -11.5166   11.4177 C   0  0  0  0  0  0  0  0  0  0  0  0
   17.8782  -10.8812   12.3910 C   0  0  0  0  0  0  0  0  0  0  0  0
   17.1738   -9.9546   13.2717 N   0  0  0  0  0  0  0  0  0  0  0  0
   16.4152   -8.8793   12.6387 C   0  0  0  0  0  0  0  0  0  0  0  0
   15.3964   -9.4737   11.6670 C   0  0  0  0  0  0  0  0  0  0  0  0
   19.3208   -7.8099    4.4016 Cl  0  0  0  0  0  0  0  0  0  0  0  0
   18.8791   -8.0533    6.0773 C   0  0  0  0  0  0  0  0  0  0  0  0
   17.9253   -9.0334    6.4130 C   0  0  0  0  0  0  0  0  0  0  0  0
   17.6113   -9.1845    7.7609 C   0  0  0  0  0  0  0  0  0  0  0  0
   18.1948   -8.4226    8.7276 C   0  0  0  0  0  0  0  0  0  0  0  0
   17.7151   -8.7782    9.8874 O   0  0  0  0  0  0  0  0  0  0  0  0
   16.8481   -9.7464    9.6333 C   0  0  0  0  0  0  0  0  0  0  0  0
   16.7402  -10.0458    8.3119 N   0  0  0  0  0  0  0  0  0  0  0  0
   19.1410   -7.4444    8.4372 C   0  0  0  0  0  0  0  0  0  0  0  0
   19.4825   -7.2643    7.0836 C   0  0  0  0  0  0  0  0  0  0  0  0
   17.2287  -10.1308   14.7006 C   0  0  0  0  0  0  0  0  0  0  0  0
   16.6253   -9.2482   15.6031 C   0  0  0  0  0  0  0  0  0  0  0  0
   16.7132   -9.4733   16.9379 C   0  0  0  0  0  0  0  0  0  0  0  0
   16.0730   -8.5210   17.6268 N   0  0  0  0  0  0  0  0  0  0  0  0
   15.5710   -7.6796   16.7274 N   0  0  0  0  0  0  0  0  0  0  0  0
   15.8876   -8.0904   15.4722 C   0  0  0  0  0  0  0  0  0  0  0  0
   17.3723  -10.5363   17.4552 N   0  0  0  0  0  0  0  0  0  0  0  0
   17.9669  -11.4076   16.5879 C   0  0  0  0  0  0  0  0  0  0  0  0
   17.8925  -11.2026   15.2348 N   0  0  0  0  0  0  0  0  0  0  0  0
   15.9901   -8.4561   18.6057 H   0  0  0  0  0  0  0  0  0  0  0  0
  7  8  1  0  0  0
  8  9  2  0  0  0
  9 10  1  0  0  0
 10 11  2  0  0  0
 11 12  1  0  0  0
 12 13  1  0  0  0
 13  1  1  0  0  0
  1  2  1  0  0  0
  2  3  1  0  0  0
  3  4  1  0  0  0
  4 17  1  0  0  0
 17 18  1  0  0  0
 18 19  2  0  0  0
 19 20  1  0  0  0
 20 21  1  0  0  0
 21 22  2  0  0  0
 19 23  1  0  0  0
 23 24  2  0  0  0
 24 25  1  0  0  0
  4  5  1  0  0  0
  5  6  1  0  0  0
 13 14  2  0  0  0
 11 15  1  0  0  0
 15 16  2  0  0  0
 16  8  1  0  0  0
 14 10  1  0  0  0
  6  1  1  0  0  0
 25 17  2  0  0  0
 22 18  1  0  0  0
 20 26  1  0  0  0
M  END
>  <minimizedAffinity>
-7.19681

>  <minimizedRMSD>
0.38173

$$$$
CSSS00160661294 MCULE-7572348437 MolPort-008-314-861


 26 28  0  0  0  0  0  0  0  0999 V2000
   15.7083   -9.8529   14.3059 C   0  0  0  0  0  0  0  0  0  0  0  0
   16.3805  -10.1682   15.6376 C   0  0  0  0  0  0  0  0  0  0  0  0
   16.8814   -8.9043   16.3245 C   0  0  0  0  0  0  0  0  0  0  0  0
   15.7622   -8.1881   16.9999 C   0  0  0  0  0  0  0  0  0  0  0  0
   14.8826   -7.6189   16.2991 O   0  0  0  0  0  0  0  0  0  0  0  0
   12.6891   -6.2031   22.0786 C   0  0  0  0  0  0  0  0  0  0  0  0
   13.3935   -6.6558   20.8509 C   0  0  0  0  0  0  0  0  0  0  0  0
   12.9909   -6.3400   19.6006 N   0  0  0  0  0  0  0  0  0  0  0  0
   13.7729   -6.8549   18.6534 N   0  0  0  0  0  0  0  0  0  0  0  0
   14.7979   -7.5806   19.1550 C   0  0  0  0  0  0  0  0  0  0  0  0
   14.7779   -7.6159   20.8369 S   0  0  0  0  0  0  0  0  0  0  0  0
   15.6957   -8.1831   18.4335 N   0  0  0  0  0  0  0  0  0  0  0  0
   13.6208   -6.7213   17.6900 H   0  0  0  0  0  0  0  0  0  0  0  0
   16.6953   -9.2559   13.3150 C   0  0  0  0  0  0  0  0  0  0  0  0
   17.2088  -10.3286   12.3659 C   0  0  0  0  0  0  0  0  0  0  0  0
   17.2194   -9.8335   10.9937 N   0  0  0  0  0  0  0  0  0  0  0  0
   16.1691  -10.1339   10.1793 C   0  0  0  0  0  0  0  0  0  0  0  0
   16.1493   -9.7080    8.8899 N   0  0  0  0  0  0  0  0  0  0  0  0
   17.1738   -8.9797    8.3816 C   0  0  0  0  0  0  0  0  0  0  0  0
   17.1361   -8.5489    7.0522 C   0  0  0  0  0  0  0  0  0  0  0  0
   18.1949   -7.8001    6.5294 C   0  0  0  0  0  0  0  0  0  0  0  0
   19.2935   -7.4806    7.3335 C   0  0  0  0  0  0  0  0  0  0  0  0
   19.3374   -7.9086    8.6638 C   0  0  0  0  0  0  0  0  0  0  0  0
   18.2788   -8.6596    9.1953 C   0  0  0  0  0  0  0  0  0  0  0  0
   18.2802   -9.1096   10.5234 C   0  0  0  0  0  0  0  0  0  0  0  0
   19.2559   -8.8445   11.2808 O   0  0  0  0  0  0  0  0  0  0  0  0
  6  7  1  0  0  0
  7  8  2  0  0  0
  8  9  1  0  0  0
  9 10  1  0  0  0
 10 11  1  0  0  0
 10 12  2  0  0  0
 11  7  1  0  0  0
 12  4  1  0  0  0
  4  5  2  0  0  0
  4  3  1  0  0  0
  3  2  1  0  0  0
  2  1  1  0  0  0
  1 14  1  0  0  0
 14 15  1  0  0  0
 15 16  1  0  0  0
 16 17  1  0  0  0
 17 18  2  0  0  0
 18 19  1  0  0  0
 19 20  2  0  0  0
 20 21  1  0  0  0
 21 22  2  0  0  0
 22 23  1  0  0  0
 23 24  2  0  0  0
 24 25  1  0  0  0
 24 19  1  0  0  0
 25 26  2  0  0  0
 25 16  1  0  0  0
  9 13  1  0  0  0
M  END
>  <minimizedAffinity>
-7.19108

>  <minimizedRMSD>
1.53625

$$$$
CSSS01653156546


 23 25  0  0  0  0  0  0  0  0999 V2000
   18.0523   -9.5152   11.9203 N   0  0  0  0  0  0  0  0  0  0  0  0
   18.6496   -8.7912   12.2173 H   0  0  0  0  0  0  0  0  0  0  0  0
   18.4655   -7.7478    6.1314 C   0  0  0  0  0  0  0  0  0  0  0  0
   18.5960   -8.0278    7.5503 N   0  0  0  0  0  0  0  0  0  0  0  0
   19.5803   -7.5759    8.3188 N   0  0  0  0  0  0  0  0  0  0  0  0
   19.3928   -8.0276    9.5891 C   0  0  0  0  0  0  0  0  0  0  0  0
   18.2369   -8.7900    9.5839 C   0  0  0  0  0  0  0  0  0  0  0  0
   17.5621   -9.4924   10.5775 C   0  0  0  0  0  0  0  0  0  0  0  0
   16.3854  -10.1715   10.1962 C   0  0  0  0  0  0  0  0  0  0  0  0
   15.9442  -10.1164    8.8532 C   0  0  0  0  0  0  0  0  0  0  0  0
   16.6478   -9.4096    7.9167 N   0  0  0  0  0  0  0  0  0  0  0  0
   17.7761   -8.7646    8.3057 C   0  0  0  0  0  0  0  0  0  0  0  0
   17.7046  -10.5643   12.8655 C   0  0  0  0  0  0  0  0  0  0  0  0
   17.6967  -10.0090   14.2445 C   0  0  0  0  0  0  0  0  0  0  0  0
   16.6251   -9.4153   14.8049 N   0  0  0  0  0  0  0  0  0  0  0  0
   16.9034   -8.9454   16.0528 C   0  0  0  0  0  0  0  0  0  0  0  0
   18.2113   -9.1470   16.5016 C   0  0  0  0  0  0  0  0  0  0  0  0
   19.0245   -9.9486   15.2628 S   0  0  0  0  0  0  0  0  0  0  0  0
   15.8846   -8.2646   16.8629 C   0  0  0  0  0  0  0  0  0  0  0  0
   15.9691   -8.2715   18.2848 N   0  0  0  0  0  0  0  0  0  0  0  0
   14.9274   -7.6688   16.3024 O   0  0  0  0  0  0  0  0  0  0  0  0
   16.7141   -8.7349   18.7313 H   0  0  0  0  0  0  0  0  0  0  0  0
   15.2824   -7.8129   18.8209 H   0  0  0  0  0  0  0  0  0  0  0  0
  3  4  1  0  0  0
  4  5  1  0  0  0
  5  6  2  0  0  0
  6  7  1  0  0  0
  7  8  2  0  0  0
  8  1  1  0  0  0
  1 13  1  0  0  0
 13 14  1  0  0  0
 14 15  2  0  0  0
 15 16  1  0  0  0
 16 17  2  0  0  0
 17 18  1  0  0  0
 16 19  1  0  0  0
 19 20  1  0  0  0
 19 21  2  0  0  0
  8  9  1  0  0  0
  9 10  2  0  0  0
 10 11  1  0  0  0
 11 12  2  0  0  0
 12  4  1  0  0  0
 12  7  1  0  0  0
 18 14  1  0  0  0
  1  2  1  0  0  0
 20 22  1  0  0  0
 20 23  1  0  0  0
M  END
>  <minimizedAffinity>
-7.16416

>  <minimizedRMSD>
0.94229

$$$$
82106675 CSSS00159838603 MCULE-2693767528 MolPort-023-319-477 ZINC000082106675


 26 28  0  0  0  0  0  0  0  0999 V2000
   17.6279   -9.3285   13.9536 N   0  0  0  0  0  0  0  0  0  0  0  0
   17.9112  -10.1477   12.8155 C   0  0  0  0  0  0  0  0  0  0  0  0
   18.7249  -11.1044   12.9290 O   0  0  0  0  0  0  0  0  0  0  0  0
   16.9855   -8.5886   13.8591 H   0  0  0  0  0  0  0  0  0  0  0  0
   17.2454   -9.8575   11.5177 C   0  0  0  0  0  0  0  0  0  0  0  0
   15.9100  -10.2552   11.3660 C   0  0  0  0  0  0  0  0  0  0  0  0
   15.2285  -10.0114   10.1750 C   0  0  0  0  0  0  0  0  0  0  0  0
   13.8129  -10.4394   10.0311 C   0  0  0  0  0  0  0  0  0  0  0  0
   15.8542   -9.3842    9.1470 N   0  0  0  0  0  0  0  0  0  0  0  0
   17.1466   -8.9782    9.2406 C   0  0  0  0  0  0  0  0  0  0  0  0
   17.7463   -8.3365    8.1532 C   0  0  0  0  0  0  0  0  0  0  0  0
   19.0743   -7.9129    8.2326 C   0  0  0  0  0  0  0  0  0  0  0  0
   19.6506   -7.2915    7.1761 F   0  0  0  0  0  0  0  0  0  0  0  0
   19.8086   -8.1294    9.3999 C   0  0  0  0  0  0  0  0  0  0  0  0
   19.2165   -8.7701   10.4911 C   0  0  0  0  0  0  0  0  0  0  0  0
   17.8820   -9.2037   10.4320 C   0  0  0  0  0  0  0  0  0  0  0  0
   18.2573   -9.5521   15.2457 C   0  0  0  0  0  0  0  0  0  0  0  0
   17.2868   -9.2078   16.3598 C   0  0  0  0  0  0  0  0  0  0  0  0
   15.8200   -8.3757   15.6817 S   0  0  0  0  0  0  0  0  0  0  0  0
   14.0420   -7.3411   17.5348 N   0  0  0  0  0  0  0  0  0  0  0  0
   14.0632   -7.2074   18.8745 C   0  0  0  0  0  0  0  0  0  0  0  0
   12.9531   -6.6041   19.6578 C   0  0  0  0  0  0  0  0  0  0  0  0
   15.1943   -7.6780   19.4291 N   0  0  0  0  0  0  0  0  0  0  0  0
   15.9377   -8.1325   18.4357 N   0  0  0  0  0  0  0  0  0  0  0  0
   15.2355   -7.9227   17.3082 C   0  0  0  0  0  0  0  0  0  0  0  0
   16.8295   -8.5434   18.5069 H   0  0  0  0  0  0  0  0  0  0  0  0
 20 21  1  0  0  0
 21 22  1  0  0  0
 21 23  2  0  0  0
 23 24  1  0  0  0
 24 25  1  0  0  0
 25 19  1  0  0  0
 19 18  1  0  0  0
 18 17  1  0  0  0
 17  1  1  0  0  0
  1  2  1  0  0  0
  2  3  2  0  0  0
  2  5  1  0  0  0
  5  6  2  0  0  0
  6  7  1  0  0  0
  7  8  1  0  0  0
  7  9  2  0  0  0
  9 10  1  0  0  0
 10 11  2  0  0  0
 11 12  1  0  0  0
 12 13  1  0  0  0
 12 14  2  0  0  0
 14 15  1  0  0  0
 15 16  2  0  0  0
 25 20  2  0  0  0
 16  5  1  0  0  0
 16 10  1  0  0  0
 24 26  1  0  0  0
  1  4  1  0  0  0
M  END
>  <minimizedAffinity>
-7.15887

>  <minimizedRMSD>
1.62739

$$$$
CSC027257247 14772347 CSSS00027257247 MCULE-6953966924 MolPort-009-375-746 PubChem-16592571 Z224083676 ZINC000014772347


 34 37  0  0  0  0  0  0  0  0999 V2000
   17.0170  -10.7107   14.7976 C   0  0  0  0  0  0  0  0  0  0  0  0
   16.9581  -10.0023   16.0254 C   0  0  0  0  0  0  0  0  0  0  0  0
   17.7145  -10.4650   17.1140 C   0  0  0  0  0  0  0  0  0  0  0  0
   18.5195  -11.5995   17.0018 C   0  0  0  0  0  0  0  0  0  0  0  0
   18.5790  -12.2924   15.7949 C   0  0  0  0  0  0  0  0  0  0  0  0
   17.8338  -11.8493   14.7022 C   0  0  0  0  0  0  0  0  0  0  0  0
   16.5236  -10.5479   12.2814 C   0  0  0  0  0  0  0  0  0  0  0  0
   16.2602  -10.2617   13.6614 N   0  0  0  0  0  0  0  0  0  0  0  0
   17.4490  -11.3329   11.9396 O   0  0  0  0  0  0  0  0  0  0  0  0
   15.4766   -9.6967   13.8510 H   0  0  0  0  0  0  0  0  0  0  0  0
   15.6758   -9.9060   11.2346 C   0  0  0  0  0  0  0  0  0  0  0  0
   18.7302   -8.5491    5.5710 C   0  0  0  0  0  0  0  0  0  0  0  0
   18.7947   -8.3225    7.0043 N   0  0  0  0  0  0  0  0  0  0  0  0
   17.9431   -8.7734    7.9303 C   0  0  0  0  0  0  0  0  0  0  0  0
   18.3431   -8.3582    9.1539 C   0  0  0  0  0  0  0  0  0  0  0  0
   17.6137   -8.7136   10.2796 C   0  0  0  0  0  0  0  0  0  0  0  0
   16.4914   -9.4872   10.0999 N   0  0  0  0  0  0  0  0  0  0  0  0
   16.1127   -9.8917    8.8426 C   0  0  0  0  0  0  0  0  0  0  0  0
   16.8405   -9.5361    7.7408 N   0  0  0  0  0  0  0  0  0  0  0  0
   17.9758   -8.3366   11.4278 O   0  0  0  0  0  0  0  0  0  0  0  0
   19.4965   -7.6187    8.9542 C   0  0  0  0  0  0  0  0  0  0  0  0
   19.7420   -7.6195    7.6149 N   0  0  0  0  0  0  0  0  0  0  0  0
   16.1084   -8.8007   16.2266 C   0  0  0  0  0  0  0  0  0  0  0  0
   15.5965   -8.5058   17.5301 N   0  0  0  0  0  0  0  0  0  0  0  0
   15.8201   -8.0422   15.2613 O   0  0  0  0  0  0  0  0  0  0  0  0
   15.8585   -9.0798   18.2859 H   0  0  0  0  0  0  0  0  0  0  0  0
   14.7023   -7.3863   17.7742 C   0  0  0  0  0  0  0  0  0  0  0  0
   14.2401   -7.4136   19.2191 C   0  0  0  0  0  0  0  0  0  0  0  0
   13.0926   -6.4832   19.4180 C   0  0  0  0  0  0  0  0  0  0  0  0
   12.3983   -5.9650   18.3168 C   0  0  0  0  0  0  0  0  0  0  0  0
   11.3125   -5.1062   18.5151 C   0  0  0  0  0  0  0  0  0  0  0  0
   10.9160   -4.7669   19.8126 C   0  0  0  0  0  0  0  0  0  0  0  0
   11.6037   -5.2879   20.9122 C   0  0  0  0  0  0  0  0  0  0  0  0
   12.6883   -6.1483   20.7156 C   0  0  0  0  0  0  0  0  0  0  0  0
 12 13  1  0  0  0
 13 14  1  0  0  0
 14 15  2  0  0  0
 15 16  1  0  0  0
 16 17  1  0  0  0
 17 18  1  0  0  0
 18 19  2  0  0  0
 17 11  1  0  0  0
 11  7  1  0  0  0
  7  8  1  0  0  0
  8  1  1  0  0  0
  1  2  1  0  0  0
  2 23  1  0  0  0
 23 24  1  0  0  0
 24 27  1  0  0  0
 27 28  1  0  0  0
 28 29  1  0  0  0
 29 30  2  0  0  0
 30 31  1  0  0  0
 31 32  2  0  0  0
 32 33  1  0  0  0
 33 34  2  0  0  0
 23 25  2  0  0  0
  2  3  2  0  0  0
  3  4  1  0  0  0
  4  5  2  0  0  0
  5  6  1  0  0  0
  7  9  2  0  0  0
 16 20  2  0  0  0
 15 21  1  0  0  0
 21 22  2  0  0  0
 22 13  1  0  0  0
 19 14  1  0  0  0
  6  1  2  0  0  0
 34 29  1  0  0  0
  8 10  1  0  0  0
 24 26  1  0  0  0
M  END
>  <minimizedAffinity>
-7.15273

>  <minimizedRMSD>
1.66368

$$$$
CSSS06519766220


 24 27  0  0  0  0  0  0  0  0999 V2000
   18.2198  -10.6828   11.5054 C   0  0  0  0  0  0  0  0  0  0  0  0
   16.0465   -8.0839   15.8644 O   0  0  0  0  0  0  0  0  0  0  0  0
   16.6242   -9.1819   16.0765 C   0  0  0  0  0  0  0  0  0  0  0  0
   16.7378   -9.7822   17.3612 N   0  0  0  0  0  0  0  0  0  0  0  0
   17.4705  -11.0435   17.1987 C   0  0  0  0  0  0  0  0  0  0  0  0
   17.7589  -11.1053   15.7288 C   0  0  0  0  0  0  0  0  0  0  0  0
   18.4315  -12.1044   15.0265 C   0  0  0  0  0  0  0  0  0  0  0  0
   18.5842  -11.9530   13.6373 C   0  0  0  0  0  0  0  0  0  0  0  0
   18.0714  -10.8153   12.9795 C   0  0  0  0  0  0  0  0  0  0  0  0
   17.3891   -9.8239   13.7056 C   0  0  0  0  0  0  0  0  0  0  0  0
   17.2560  -10.0037   15.0807 C   0  0  0  0  0  0  0  0  0  0  0  0
   16.3882   -9.4176   18.2063 H   0  0  0  0  0  0  0  0  0  0  0  0
   17.9335   -9.3139   11.1046 N   0  0  0  0  0  0  0  0  0  0  0  0
   17.4365   -8.7338   11.7257 H   0  0  0  0  0  0  0  0  0  0  0  0
   18.3449   -8.7774    9.8453 C   0  0  0  0  0  0  0  0  0  0  0  0
   19.3842   -7.8283    9.7321 C   0  0  0  0  0  0  0  0  0  0  0  0
   19.7482   -7.3320    8.4562 C   0  0  0  0  0  0  0  0  0  0  0  0
   19.1019   -7.7634    7.3289 N   0  0  0  0  0  0  0  0  0  0  0  0
   18.1082   -8.6748    7.4667 C   0  0  0  0  0  0  0  0  0  0  0  0
   17.7294   -9.1739    8.6638 C   0  0  0  0  0  0  0  0  0  0  0  0
   16.7305  -10.0445    8.4598 N   0  0  0  0  0  0  0  0  0  0  0  0
   16.5315  -10.0485    7.1406 N   0  0  0  0  0  0  0  0  0  0  0  0
   17.3586   -9.2204    6.5015 N   0  0  0  0  0  0  0  0  0  0  0  0
   17.4072   -9.0483    5.5333 H   0  0  0  0  0  0  0  0  0  0  0  0
  2  3  2  0  0  0
  3  4  1  0  0  0
  4  5  1  0  0  0
  5  6  1  0  0  0
  6  7  2  0  0  0
  7  8  1  0  0  0
  8  9  2  0  0  0
  9  1  1  0  0  0
  1 13  1  0  0  0
 13 15  1  0  0  0
 15 16  2  0  0  0
 16 17  1  0  0  0
 17 18  2  0  0  0
 18 19  1  0  0  0
 19 20  2  0  0  0
 20 21  1  0  0  0
 21 22  2  0  0  0
 22 23  1  0  0  0
  9 10  1  0  0  0
 10 11  2  0  0  0
 11  3  1  0  0  0
 11  6  1  0  0  0
 20 15  1  0  0  0
 23 19  1  0  0  0
  4 12  1  0  0  0
 13 14  1  0  0  0
 23 24  1  0  0  0
M  END
>  <minimizedAffinity>
-7.13736

>  <minimizedRMSD>
1.31328

$$$$
CSSS03880381954 PubChem-166332151 Z4982084511


 24 26  0  0  0  0  0  0  0  0999 V2000
   18.2770  -10.4499   12.0164 N   0  0  0  0  0  0  0  0  0  0  0  0
   17.2250  -10.0210   11.1490 C   0  0  0  0  0  0  0  0  0  0  0  0
   16.0294  -10.0840   11.5481 O   0  0  0  0  0  0  0  0  0  0  0  0
   19.2019  -10.4484   11.6790 H   0  0  0  0  0  0  0  0  0  0  0  0
   17.5124   -9.5201    9.7815 C   0  0  0  0  0  0  0  0  0  0  0  0
   18.6052   -8.6716    9.4579 C   0  0  0  0  0  0  0  0  0  0  0  0
   19.5709   -8.1633   10.4806 C   0  0  0  0  0  0  0  0  0  0  0  0
   18.7468   -8.2937    8.1604 N   0  0  0  0  0  0  0  0  0  0  0  0
   19.6810   -7.5154    7.6493 N   0  0  0  0  0  0  0  0  0  0  0  0
   19.4254   -7.4090    6.3224 C   0  0  0  0  0  0  0  0  0  0  0  0
   18.2857   -8.1470    5.9834 C   0  0  0  0  0  0  0  0  0  0  0  0
   17.9113   -8.6785    7.1963 C   0  0  0  0  0  0  0  0  0  0  0  0
   16.8521   -9.4792    7.4528 N   0  0  0  0  0  0  0  0  0  0  0  0
   16.6453   -9.9014    8.7321 C   0  0  0  0  0  0  0  0  0  0  0  0
   18.0277  -10.8885   13.3809 C   0  0  0  0  0  0  0  0  0  0  0  0
   18.3171   -9.7545   14.3465 C   0  0  0  0  0  0  0  0  0  0  0  0
   17.9797  -10.1754   15.7657 C   0  0  0  0  0  0  0  0  0  0  0  0
   16.0439   -8.2110   14.1781 C   0  0  0  0  0  0  0  0  0  0  0  0
   16.1327   -8.3974   15.6524 C   0  0  0  0  0  0  0  0  0  0  0  0
   15.4044   -7.7199   16.5545 N   0  0  0  0  0  0  0  0  0  0  0  0
   15.7841   -8.1568   17.7483 N   0  0  0  0  0  0  0  0  0  0  0  0
   16.7266   -9.0853   17.6493 N   0  0  0  0  0  0  0  0  0  0  0  0
   16.9548   -9.2575   16.3367 C   0  0  0  0  0  0  0  0  0  0  0  0
   15.4130   -7.8327   18.6007 H   0  0  0  0  0  0  0  0  0  0  0  0
 18 19  1  0  0  0
 19 20  2  0  0  0
 20 21  1  0  0  0
 21 22  1  0  0  0
 22 23  2  0  0  0
 23 17  1  0  0  0
 17 16  1  0  0  0
 16 15  1  0  0  0
 15  1  1  0  0  0
  1  2  1  0  0  0
  2  3  2  0  0  0
  2  5  1  0  0  0
  5  6  2  0  0  0
  6  7  1  0  0  0
  6  8  1  0  0  0
  8  9  1  0  0  0
  9 10  2  0  0  0
 10 11  1  0  0  0
 11 12  2  0  0  0
 12 13  1  0  0  0
 13 14  2  0  0  0
 23 19  1  0  0  0
 14  5  1  0  0  0
 12  8  1  0  0  0
 21 24  1  0  0  0
  1  4  1  0  0  0
M  END
>  <minimizedAffinity>
-7.13313

>  <minimizedRMSD>
1.28799

$$$$
CSC027207506 CSSS00027207506 MolPort-039-273-790 Z183869778


 29 31  0  0  0  0  0  0  0  0999 V2000
   16.7292   -9.4015   13.2170 C   0  0  0  0  0  0  0  0  0  0  0  0
   17.4462   -9.9781   14.4226 C   0  0  0  0  0  0  0  0  0  0  0  0
   17.3728   -9.0133   15.5921 C   0  0  0  0  0  0  0  0  0  0  0  0
   16.3265   -9.4726   16.5925 C   0  0  0  0  0  0  0  0  0  0  0  0
   15.7422   -8.1806   18.6761 N   0  0  0  0  0  0  0  0  0  0  0  0
   15.7078   -8.2925   17.2531 C   0  0  0  0  0  0  0  0  0  0  0  0
   15.1829   -7.3876   16.5506 O   0  0  0  0  0  0  0  0  0  0  0  0
   16.1659   -8.8976   19.2012 H   0  0  0  0  0  0  0  0  0  0  0  0
   12.2544   -6.1474   22.1949 C   0  0  0  0  0  0  0  0  0  0  0  0
   13.3678   -7.0939   21.7953 C   0  0  0  0  0  0  0  0  0  0  0  0
   14.6967   -6.3290   21.7500 C   0  0  0  0  0  0  0  0  0  0  0  0
   15.6905   -7.0133   20.8168 C   0  0  0  0  0  0  0  0  0  0  0  0
   15.1705   -7.0401   19.3729 C   0  0  0  0  0  0  0  0  0  0  0  0
   13.6384   -7.0847   19.2726 C   0  0  0  0  0  0  0  0  0  0  0  0
   13.0148   -7.7938   20.4742 C   0  0  0  0  0  0  0  0  0  0  0  0
   16.6835  -10.4411   12.1114 C   0  0  0  0  0  0  0  0  0  0  0  0
   16.8941   -9.8099   10.8081 N   0  0  0  0  0  0  0  0  0  0  0  0
   15.8756   -9.7875    9.8906 C   0  0  0  0  0  0  0  0  0  0  0  0
   14.2650  -10.4945   10.2562 S   0  0  0  0  0  0  0  0  0  0  0  0
   16.0636   -9.2151    8.6732 N   0  0  0  0  0  0  0  0  0  0  0  0
   17.2515   -8.6620    8.3304 C   0  0  0  0  0  0  0  0  0  0  0  0
   17.4160   -8.0794    7.0703 C   0  0  0  0  0  0  0  0  0  0  0  0
   18.6442   -7.5122    6.7172 C   0  0  0  0  0  0  0  0  0  0  0  0
   19.7099   -7.5269    7.6224 C   0  0  0  0  0  0  0  0  0  0  0  0
   19.5506   -8.1087    8.8838 C   0  0  0  0  0  0  0  0  0  0  0  0
   18.3205   -8.6785    9.2444 C   0  0  0  0  0  0  0  0  0  0  0  0
   18.1165   -9.2725   10.4972 C   0  0  0  0  0  0  0  0  0  0  0  0
   19.0621   -9.3133   11.3343 O   0  0  0  0  0  0  0  0  0  0  0  0
   14.2732  -11.0156   11.5124 H   0  0  0  0  0  0  0  0  0  0  0  0
  9 10  1  0  0  0
 10 11  1  0  0  0
 11 12  1  0  0  0
 12 13  1  0  0  0
 13 14  1  0  0  0
 14 15  1  0  0  0
 13  5  1  0  0  0
  5  6  1  0  0  0
  6  7  2  0  0  0
  6  4  1  0  0  0
  4  3  1  0  0  0
  3  2  1  0  0  0
  2  1  1  0  0  0
  1 16  1  0  0  0
 16 17  1  0  0  0
 17 18  1  0  0  0
 18 19  1  0  0  0
 18 20  2  0  0  0
 20 21  1  0  0  0
 21 22  2  0  0  0
 22 23  1  0  0  0
 23 24  2  0  0  0
 24 25  1  0  0  0
 25 26  2  0  0  0
 26 27  1  0  0  0
 27 28  2  0  0  0
 15 10  1  0  0  0
 27 17  1  0  0  0
 26 21  1  0  0  0
  5  8  1  0  0  0
 19 29  1  0  0  0
M  END
>  <minimizedAffinity>
-7.12056

>  <minimizedRMSD>
1.20085

$$$$
CSC027841505 CSSS00027841505 MCULE-3051921385 MolPort-038-951-405 PubChem-119032259 Z319019170


 29 32  0  0  0  0  0  0  0  0999 V2000
   17.4532   -8.9754   15.3210 N   0  0  0  0  0  0  0  0  0  0  0  0
   17.8592  -10.2145   14.6520 C   0  0  0  0  0  0  0  0  0  0  0  0
   18.3886   -9.8974   13.2569 C   0  0  0  0  0  0  0  0  0  0  0  0
   17.3678   -9.1584   12.5184 N   0  0  0  0  0  0  0  0  0  0  0  0
   16.8111   -7.9762   13.1707 C   0  0  0  0  0  0  0  0  0  0  0  0
   16.3471   -8.3541   14.5754 C   0  0  0  0  0  0  0  0  0  0  0  0
   16.9046   -9.5416   11.2061 C   0  0  0  0  0  0  0  0  0  0  0  0
   17.5112   -9.0999   10.0138 C   0  0  0  0  0  0  0  0  0  0  0  0
   16.9892   -9.5288    8.8125 C   0  0  0  0  0  0  0  0  0  0  0  0
   17.8657   -8.8929    7.5408 S   0  0  0  0  0  0  0  0  0  0  0  0
   18.9576   -8.0386    8.5139 C   0  0  0  0  0  0  0  0  0  0  0  0
   18.6231   -8.2611    9.8540 C   0  0  0  0  0  0  0  0  0  0  0  0
   15.9226  -10.3568    8.7325 N   0  0  0  0  0  0  0  0  0  0  0  0
   15.3413  -10.7837    9.8864 C   0  0  0  0  0  0  0  0  0  0  0  0
   15.8296  -10.3802   11.0962 N   0  0  0  0  0  0  0  0  0  0  0  0
   16.7896  -10.7931   16.9267 C   0  0  0  0  0  0  0  0  0  0  0  0
   17.0559   -9.3025   16.7009 C   0  0  0  0  0  0  0  0  0  0  0  0
   15.9034   -8.4660   17.1788 C   0  0  0  0  0  0  0  0  0  0  0  0
   15.6693   -8.3516   18.5894 N   0  0  0  0  0  0  0  0  0  0  0  0
   15.1686   -7.8611   16.3512 O   0  0  0  0  0  0  0  0  0  0  0  0
   16.2946   -8.8322   19.1788 H   0  0  0  0  0  0  0  0  0  0  0  0
   14.6206   -7.6110   19.2352 C   0  0  0  0  0  0  0  0  0  0  0  0
   14.8961   -6.9069   20.4225 C   0  0  0  0  0  0  0  0  0  0  0  0
   16.2604   -6.9136   21.0229 C   0  0  0  0  0  0  0  0  0  0  0  0
   13.8829   -6.1839   21.0608 C   0  0  0  0  0  0  0  0  0  0  0  0
   12.5930   -6.1561   20.5260 C   0  0  0  0  0  0  0  0  0  0  0  0
   12.3114   -6.8524   19.3494 C   0  0  0  0  0  0  0  0  0  0  0  0
   11.0609   -6.8269   18.8295 F   0  0  0  0  0  0  0  0  0  0  0  0
   13.3198   -7.5759   18.7080 C   0  0  0  0  0  0  0  0  0  0  0  0
 16 17  1  0  0  0
 17 18  1  0  0  0
 18 19  1  0  0  0
 19 22  1  0  0  0
 22 23  2  0  0  0
 23 24  1  0  0  0
 23 25  1  0  0  0
 25 26  2  0  0  0
 26 27  1  0  0  0
 27 28  1  0  0  0
 27 29  2  0  0  0
 18 20  2  0  0  0
 17  1  1  0  0  0
  1  2  1  0  0  0
  2  3  1  0  0  0
  3  4  1  0  0  0
  4  7  1  0  0  0
  7  8  1  0  0  0
  8  9  2  0  0  0
  9 10  1  0  0  0
 10 11  1  0  0  0
 11 12  2  0  0  0
  9 13  1  0  0  0
 13 14  2  0  0  0
 14 15  1  0  0  0
  4  5  1  0  0  0
  5  6  1  0  0  0
 29 22  1  0  0  0
  6  1  1  0  0  0
 15  7  2  0  0  0
 12  8  1  0  0  0
 19 21  1  0  0  0
M  END
>  <minimizedAffinity>
-7.08534

>  <minimizedRMSD>
1.60220

$$$$
CSC046129374 CSSS00046129374 MCULE-1156021826 MolPort-040-123-427 PubChem-128437009 Z2161389456


 28 31  0  0  0  0  0  0  0  0999 V2000
   18.3089  -10.1904   15.1566 N   0  0  0  0  0  0  0  0  0  0  0  0
   17.7407  -11.2973   14.3826 C   0  0  0  0  0  0  0  0  0  0  0  0
   18.3705  -11.3371   12.9928 C   0  0  0  0  0  0  0  0  0  0  0  0
   18.2054  -10.0329   12.3549 N   0  0  0  0  0  0  0  0  0  0  0  0
   18.6142   -8.8570   13.1198 C   0  0  0  0  0  0  0  0  0  0  0  0
   17.9744   -8.9151   14.5042 C   0  0  0  0  0  0  0  0  0  0  0  0
   17.4691   -9.8843   11.1248 C   0  0  0  0  0  0  0  0  0  0  0  0
   17.9791   -9.1614   10.0213 C   0  0  0  0  0  0  0  0  0  0  0  0
   19.2181   -8.5042   10.0690 C   0  0  0  0  0  0  0  0  0  0  0  0
   19.6876   -7.7914    8.9627 C   0  0  0  0  0  0  0  0  0  0  0  0
   18.9209   -7.7216    7.7974 C   0  0  0  0  0  0  0  0  0  0  0  0
   17.6794   -8.3589    7.7370 C   0  0  0  0  0  0  0  0  0  0  0  0
   17.2017   -9.0723    8.8402 C   0  0  0  0  0  0  0  0  0  0  0  0
   15.9823   -9.6675    8.7781 N   0  0  0  0  0  0  0  0  0  0  0  0
   15.4709  -10.3541    9.8319 C   0  0  0  0  0  0  0  0  0  0  0  0
   16.1999  -10.4702   11.0150 C   0  0  0  0  0  0  0  0  0  0  0  0
   17.7651  -11.6646   17.1200 C   0  0  0  0  0  0  0  0  0  0  0  0
   17.7659  -10.2545   16.5240 C   0  0  0  0  0  0  0  0  0  0  0  0
   16.4096   -9.6179   16.6311 C   0  0  0  0  0  0  0  0  0  0  0  0
   15.4635   -9.9906   15.8841 O   0  0  0  0  0  0  0  0  0  0  0  0
   16.2037   -8.5687   17.5806 N   0  0  0  0  0  0  0  0  0  0  0  0
   16.9532   -8.3044   18.1617 H   0  0  0  0  0  0  0  0  0  0  0  0
   14.9312   -7.8750   17.7238 C   0  0  0  0  0  0  0  0  0  0  0  0
   14.8335   -7.2227   19.0930 C   0  0  0  0  0  0  0  0  0  0  0  0
   13.4361   -6.6937   19.3076 C   0  0  0  0  0  0  0  0  0  0  0  0
   13.1521   -7.0036   20.7462 C   0  0  0  0  0  0  0  0  0  0  0  0
   14.3999   -7.7109   21.2212 C   0  0  0  0  0  0  0  0  0  0  0  0
   15.1097   -8.1608   20.0986 O   0  0  0  0  0  0  0  0  0  0  0  0
 17 18  1  0  0  0
 18  1  1  0  0  0
  1  2  1  0  0  0
  2  3  1  0  0  0
  3  4  1  0  0  0
  4  5  1  0  0  0
  5  6  1  0  0  0
  4  7  1  0  0  0
  7  8  1  0  0  0
  8  9  2  0  0  0
  9 10  1  0  0  0
 10 11  2  0  0  0
 11 12  1  0  0  0
 12 13  2  0  0  0
 13 14  1  0  0  0
 14 15  2  0  0  0
 15 16  1  0  0  0
 18 19  1  0  0  0
 19 20  2  0  0  0
 19 21  1  0  0  0
 21 23  1  0  0  0
 23 24  1  0  0  0
 24 25  1  0  0  0
 25 26  1  0  0  0
 26 27  1  0  0  0
 27 28  1  0  0  0
  6  1  1  0  0  0
 16  7  2  0  0  0
 28 24  1  0  0  0
 13  8  1  0  0  0
 21 22  1  0  0  0
M  END
>  <minimizedAffinity>
-7.08507

>  <minimizedRMSD>
2.18305

$$$$
CSC027129046 12609539 CSSS00027129046 MCULE-8752957852 MolPort-005-670-690 PubChem-17543207 Z135291134 ZINC000012609539


 28 31  0  0  0  0  0  0  0  0999 V2000
   17.4535   -9.9179   12.8315 N   0  0  0  0  0  0  0  0  0  0  0  0
   17.8759  -10.6505   12.3273 H   0  0  0  0  0  0  0  0  0  0  0  0
   17.3207  -10.0514   14.2481 C   0  0  0  0  0  0  0  0  0  0  0  0
   16.5956   -9.1165   15.0019 C   0  0  0  0  0  0  0  0  0  0  0  0
   16.4739   -9.2607   16.3915 C   0  0  0  0  0  0  0  0  0  0  0  0
   17.0863  -10.3523   17.0227 C   0  0  0  0  0  0  0  0  0  0  0  0
   17.8095  -11.2860   16.2757 C   0  0  0  0  0  0  0  0  0  0  0  0
   17.9258  -11.1350   14.8916 C   0  0  0  0  0  0  0  0  0  0  0  0
   15.7118   -8.2761   17.1792 C   0  0  0  0  0  0  0  0  0  0  0  0
   15.8427   -8.2425   18.6031 N   0  0  0  0  0  0  0  0  0  0  0  0
   14.9433   -7.4613   16.5982 O   0  0  0  0  0  0  0  0  0  0  0  0
   16.4441   -8.8870   19.0415 H   0  0  0  0  0  0  0  0  0  0  0  0
   15.1165   -7.2877   19.4238 C   0  0  0  0  0  0  0  0  0  0  0  0
   13.7595   -7.8625   19.7714 C   0  0  0  0  0  0  0  0  0  0  0  0
   14.8755   -7.8880   20.7934 C   0  0  0  0  0  0  0  0  0  0  0  0
   16.9919   -8.7468   12.1015 C   0  0  0  0  0  0  0  0  0  0  0  0
   18.8439   -8.3450    6.3317 C   0  0  0  0  0  0  0  0  0  0  0  0
   19.2044   -7.3219    7.6397 S   0  0  0  0  0  0  0  0  0  0  0  0
   18.2536   -8.2724    8.6461 C   0  0  0  0  0  0  0  0  0  0  0  0
   17.7074   -9.3143    7.9844 N   0  0  0  0  0  0  0  0  0  0  0  0
   16.9073  -10.2105    8.6202 C   0  0  0  0  0  0  0  0  0  0  0  0
   16.6512  -10.0372    9.9848 C   0  0  0  0  0  0  0  0  0  0  0  0
   17.2272   -8.9394   10.6458 C   0  0  0  0  0  0  0  0  0  0  0  0
   18.0302   -8.0711    9.9678 N   0  0  0  0  0  0  0  0  0  0  0  0
   16.4034  -11.1829    7.9981 O   0  0  0  0  0  0  0  0  0  0  0  0
   18.0315   -9.3669    6.6945 N   0  0  0  0  0  0  0  0  0  0  0  0
   20.5483   -7.2216    4.9486 C   0  0  0  0  0  0  0  0  0  0  0  0
   19.3727   -8.1791    4.9495 C   0  0  0  0  0  0  0  0  0  0  0  0
 27 28  1  0  0  0
 28 17  1  0  0  0
 17 18  1  0  0  0
 18 19  1  0  0  0
 19 20  1  0  0  0
 20 21  1  0  0  0
 21 22  1  0  0  0
 22 23  2  0  0  0
 23 24  1  0  0  0
 23 16  1  0  0  0
 16  1  1  0  0  0
  1  3  1  0  0  0
  3  4  2  0  0  0
  4  5  1  0  0  0
  5  9  1  0  0  0
  9 10  1  0  0  0
 10 13  1  0  0  0
 13 14  1  0  0  0
 14 15  1  0  0  0
  9 11  2  0  0  0
  5  6  2  0  0  0
  6  7  1  0  0  0
  7  8  2  0  0  0
 21 25  2  0  0  0
 20 26  1  0  0  0
 26 17  2  0  0  0
 24 19  2  0  0  0
  8  3  1  0  0  0
 15 13  1  0  0  0
  1  2  1  0  0  0
 10 12  1  0  0  0
M  END
>  <minimizedAffinity>
-7.08134

>  <minimizedRMSD>
0.67237

$$$$
220168591 CSSS00160114231 MCULE-1601433284 MolPort-035-856-795 ZINC000220168591


 24 26  0  0  0  0  0  0  0  0999 V2000
   16.7043  -10.0965   14.2648 C   0  0  0  0  0  0  0  0  0  0  0  0
   17.5029  -10.9700   14.6987 O   0  0  0  0  0  0  0  0  0  0  0  0
   16.6756   -9.7637   12.8777 N   0  0  0  0  0  0  0  0  0  0  0  0
   16.0359   -9.0849   12.5625 H   0  0  0  0  0  0  0  0  0  0  0  0
   15.7707   -9.4127   15.2003 C   0  0  0  0  0  0  0  0  0  0  0  0
   16.4692   -7.8208   15.7294 S   0  0  0  0  0  0  0  0  0  0  0  0
   13.8360   -7.5487   18.4945 C   0  0  0  0  0  0  0  0  0  0  0  0
   14.8798   -7.9380   19.2480 N   0  0  0  0  0  0  0  0  0  0  0  0
   15.9041   -8.0815   18.4255 N   0  0  0  0  0  0  0  0  0  0  0  0
   15.4503   -7.7788   17.1964 C   0  0  0  0  0  0  0  0  0  0  0  0
   14.1479   -7.4366   17.1883 N   0  0  0  0  0  0  0  0  0  0  0  0
   16.8187   -8.3558   18.6652 H   0  0  0  0  0  0  0  0  0  0  0  0
   12.1820   -5.8046   19.0400 C   0  0  0  0  0  0  0  0  0  0  0  0
   12.4768   -7.2917   19.0471 C   0  0  0  0  0  0  0  0  0  0  0  0
   17.5628  -10.3969   11.9160 C   0  0  0  0  0  0  0  0  0  0  0  0
   17.1967   -9.9664   10.5388 C   0  0  0  0  0  0  0  0  0  0  0  0
   17.8811   -9.1131    9.7138 C   0  0  0  0  0  0  0  0  0  0  0  0
   19.0703   -8.4962    9.9205 N   0  0  0  0  0  0  0  0  0  0  0  0
   19.5555   -7.6770    8.9416 C   0  0  0  0  0  0  0  0  0  0  0  0
   18.8325   -7.4789    7.7478 C   0  0  0  0  0  0  0  0  0  0  0  0
   17.6052   -8.1371    7.5843 C   0  0  0  0  0  0  0  0  0  0  0  0
   17.1813   -8.9359    8.5921 N   0  0  0  0  0  0  0  0  0  0  0  0
   16.0565   -9.6282    8.6429 N   0  0  0  0  0  0  0  0  0  0  0  0
   16.0307  -10.2733    9.8391 C   0  0  0  0  0  0  0  0  0  0  0  0
 13 14  1  0  0  0
 14  7  1  0  0  0
  7  8  2  0  0  0
  8  9  1  0  0  0
  9 10  1  0  0  0
 10  6  1  0  0  0
  6  5  1  0  0  0
  5  1  1  0  0  0
  1  2  2  0  0  0
  1  3  1  0  0  0
  3 15  1  0  0  0
 15 16  1  0  0  0
 16 17  2  0  0  0
 17 18  1  0  0  0
 18 19  2  0  0  0
 19 20  1  0  0  0
 20 21  2  0  0  0
 21 22  1  0  0  0
 22 23  1  0  0  0
 23 24  2  0  0  0
 10 11  2  0  0  0
 11  7  1  0  0  0
 24 16  1  0  0  0
 22 17  1  0  0  0
  9 12  1  0  0  0
  3  4  1  0  0  0
M  END
>  <minimizedAffinity>
-7.08064

>  <minimizedRMSD>
1.39904

$$$$
CSC026452607 CSSS00026452607 MolPort-039-260-185 Z357036938


 30 32  0  0  0  0  0  0  0  0999 V2000
   16.3301   -9.0948   12.9980 C   0  0  0  0  0  0  0  0  0  0  0  0
   16.8624  -10.1901   12.0921 C   0  0  0  0  0  0  0  0  0  0  0  0
   14.4070  -10.4974   10.2957 S   0  0  0  0  0  0  0  0  0  0  0  0
   15.9805   -9.7593    9.8405 C   0  0  0  0  0  0  0  0  0  0  0  0
   16.1218   -9.2757    8.5791 N   0  0  0  0  0  0  0  0  0  0  0  0
   17.2810   -8.7085    8.1677 C   0  0  0  0  0  0  0  0  0  0  0  0
   17.3976   -8.2188    6.8635 C   0  0  0  0  0  0  0  0  0  0  0  0
   18.5951   -7.6337    6.4410 C   0  0  0  0  0  0  0  0  0  0  0  0
   19.6777   -7.5369    7.3208 C   0  0  0  0  0  0  0  0  0  0  0  0
   19.5660   -8.0252    8.6261 C   0  0  0  0  0  0  0  0  0  0  0  0
   18.3674   -8.6136    9.0563 C   0  0  0  0  0  0  0  0  0  0  0  0
   18.2113   -9.1160   10.3551 C   0  0  0  0  0  0  0  0  0  0  0  0
   19.1692   -9.0452   11.1761 O   0  0  0  0  0  0  0  0  0  0  0  0
   17.0215   -9.6826   10.7299 N   0  0  0  0  0  0  0  0  0  0  0  0
   13.5576  -10.4442    9.2349 H   0  0  0  0  0  0  0  0  0  0  0  0
   16.9241   -9.2527   14.3842 C   0  0  0  0  0  0  0  0  0  0  0  0
   16.2763   -8.2776   15.3503 C   0  0  0  0  0  0  0  0  0  0  0  0
   16.1374   -8.9086   16.7257 C   0  0  0  0  0  0  0  0  0  0  0  0
   15.3633   -8.0128   17.6284 C   0  0  0  0  0  0  0  0  0  0  0  0
   14.3794   -7.3643   17.1799 O   0  0  0  0  0  0  0  0  0  0  0  0
   15.7348   -7.9103   19.0025 N   0  0  0  0  0  0  0  0  0  0  0  0
   16.5038   -8.4306   19.3298 H   0  0  0  0  0  0  0  0  0  0  0  0
   15.0111   -7.0604   19.9325 C   0  0  0  0  0  0  0  0  0  0  0  0
   14.5377   -7.8895   21.1105 C   0  0  0  0  0  0  0  0  0  0  0  0
   13.9774   -6.9870   22.1991 C   0  0  0  0  0  0  0  0  0  0  0  0
   15.0162   -6.6154   23.1484 N   0  0  0  0  0  0  0  0  0  0  0  0
   15.4624   -7.3754   24.1617 C   0  0  0  0  0  0  0  0  0  0  0  0
   16.4291   -6.6500   24.8355 C   0  0  0  0  0  0  0  0  0  0  0  0
   16.5067   -5.4402   24.1604 C   0  0  0  0  0  0  0  0  0  0  0  0
   15.6309   -5.4486   23.1389 N   0  0  0  0  0  0  0  0  0  0  0  0
  3  4  1  0  0  0
  4  5  2  0  0  0
  5  6  1  0  0  0
  6  7  2  0  0  0
  7  8  1  0  0  0
  8  9  2  0  0  0
  9 10  1  0  0  0
 10 11  2  0  0  0
 11 12  1  0  0  0
 12 13  2  0  0  0
 12 14  1  0  0  0
 14  2  1  0  0  0
  2  1  1  0  0  0
  1 16  1  0  0  0
 16 17  1  0  0  0
 17 18  1  0  0  0
 18 19  1  0  0  0
 19 20  2  0  0  0
 19 21  1  0  0  0
 21 23  1  0  0  0
 23 24  1  0  0  0
 24 25  1  0  0  0
 25 26  1  0  0  0
 26 27  1  0  0  0
 27 28  2  0  0  0
 28 29  1  0  0  0
 29 30  2  0  0  0
 14  4  1  0  0  0
 30 26  1  0  0  0
 11  6  1  0  0  0
  3 15  1  0  0  0
 21 22  1  0  0  0
M  END
>  <minimizedAffinity>
-7.07148

>  <minimizedRMSD>
1.27534

$$$$
91691624 CSSS00159623698 MCULE-4938555881 MolPort-027-875-190 PubChem-72896248 ZINC000091691624


 24 26  0  0  0  0  0  0  0  0999 V2000
   18.2095   -9.8976   12.0330 N   0  0  0  0  0  0  0  0  0  0  0  0
   18.9590   -9.2773   11.8820 H   0  0  0  0  0  0  0  0  0  0  0  0
   17.2503   -9.4933    9.8142 C   0  0  0  0  0  0  0  0  0  0  0  0
   17.0948   -9.8666   11.1412 C   0  0  0  0  0  0  0  0  0  0  0  0
   15.8366  -10.2030   11.5608 N   0  0  0  0  0  0  0  0  0  0  0  0
   14.7658  -10.1729   10.7027 C   0  0  0  0  0  0  0  0  0  0  0  0
   14.9339   -9.8026    9.3965 N   0  0  0  0  0  0  0  0  0  0  0  0
   16.1816   -9.4711    8.9880 C   0  0  0  0  0  0  0  0  0  0  0  0
   16.5596   -9.0934    7.7991 O   0  0  0  0  0  0  0  0  0  0  0  0
   17.8636   -8.8859    7.9061 C   0  0  0  0  0  0  0  0  0  0  0  0
   18.7117   -8.4371    6.7702 C   0  0  0  0  0  0  0  0  0  0  0  0
   18.3589   -9.1209    9.1526 N   0  0  0  0  0  0  0  0  0  0  0  0
   13.4144  -10.5452   11.1962 C   0  0  0  0  0  0  0  0  0  0  0  0
   18.2711  -10.8170   13.1568 C   0  0  0  0  0  0  0  0  0  0  0  0
   18.0763  -10.0663   14.4258 C   0  0  0  0  0  0  0  0  0  0  0  0
   19.0757   -9.7609   15.3288 C   0  0  0  0  0  0  0  0  0  0  0  0
   18.4484   -9.0432   16.3353 C   0  0  0  0  0  0  0  0  0  0  0  0
   17.1190   -8.9681   15.9586 C   0  0  0  0  0  0  0  0  0  0  0  0
   16.9258   -9.5826   14.8186 O   0  0  0  0  0  0  0  0  0  0  0  0
   16.0566   -8.2972   16.7146 C   0  0  0  0  0  0  0  0  0  0  0  0
   16.0639   -8.3316   18.1432 N   0  0  0  0  0  0  0  0  0  0  0  0
   15.0328   -7.6816   18.9343 C   0  0  0  0  0  0  0  0  0  0  0  0
   15.1393   -7.6916   16.0975 O   0  0  0  0  0  0  0  0  0  0  0  0
   16.7896   -8.8101   18.6054 H   0  0  0  0  0  0  0  0  0  0  0  0
  3  4  1  0  0  0
  4  1  1  0  0  0
  1 14  1  0  0  0
 14 15  1  0  0  0
 15 16  2  0  0  0
 16 17  1  0  0  0
 17 18  2  0  0  0
 18 20  1  0  0  0
 20 21  1  0  0  0
 21 22  1  0  0  0
 20 23  2  0  0  0
 18 19  1  0  0  0
  4  5  2  0  0  0
  5  6  1  0  0  0
  6  7  2  0  0  0
  7  8  1  0  0  0
  8  9  1  0  0  0
  9 10  1  0  0  0
 10 11  1  0  0  0
 10 12  2  0  0  0
  6 13  1  0  0  0
  8  3  2  0  0  0
 12  3  1  0  0  0
 19 15  1  0  0  0
  1  2  1  0  0  0
 21 24  1  0  0  0
M  END
>  <minimizedAffinity>
-7.06476

>  <minimizedRMSD>
1.90593

$$$$
CSC047529154 CSSS00047529154 MCULE-9772918579 MolPort-023-265-399 PubChem-70761141


 25 28  0  0  0  0  0  0  0  0999 V2000
   15.1006  -10.1445   13.4130 O   0  0  0  0  0  0  0  0  0  0  0  0
   16.2895   -9.7263   13.4093 C   0  0  0  0  0  0  0  0  0  0  0  0
   17.1452   -9.9800   14.5341 N   0  0  0  0  0  0  0  0  0  0  0  0
   18.5359   -9.5326   14.5408 C   0  0  0  0  0  0  0  0  0  0  0  0
   18.8417   -8.8278   15.8570 C   0  0  0  0  0  0  0  0  0  0  0  0
   18.4851   -9.7367   17.0330 C   0  0  0  0  0  0  0  0  0  0  0  0
   17.0124  -10.1606   16.9868 C   0  0  0  0  0  0  0  0  0  0  0  0
   16.6801  -10.8159   15.6400 C   0  0  0  0  0  0  0  0  0  0  0  0
   16.1004   -9.0136   17.3250 C   0  0  0  0  0  0  0  0  0  0  0  0
   15.2578   -8.4348   16.4479 N   0  0  0  0  0  0  0  0  0  0  0  0
   14.6391   -7.4743   17.1580 C   0  0  0  0  0  0  0  0  0  0  0  0
   15.1212   -7.4965   18.4514 C   0  0  0  0  0  0  0  0  0  0  0  0
   16.0431   -8.4710   18.5548 N   0  0  0  0  0  0  0  0  0  0  0  0
   16.5601   -8.7291   19.3519 H   0  0  0  0  0  0  0  0  0  0  0  0
   16.7821   -8.9688   12.2170 C   0  0  0  0  0  0  0  0  0  0  0  0
   17.6747   -9.8376   11.3396 C   0  0  0  0  0  0  0  0  0  0  0  0
   17.3875   -9.6257    9.9266 N   0  0  0  0  0  0  0  0  0  0  0  0
   16.4294  -10.2307    9.1821 C   0  0  0  0  0  0  0  0  0  0  0  0
   16.4652   -9.8432    7.8782 N   0  0  0  0  0  0  0  0  0  0  0  0
   17.4939   -8.9766    7.8354 C   0  0  0  0  0  0  0  0  0  0  0  0
   17.9767   -8.2830    6.7284 C   0  0  0  0  0  0  0  0  0  0  0  0
   19.0804   -7.4320    6.9290 C   0  0  0  0  0  0  0  0  0  0  0  0
   19.6640   -7.3002    8.2096 C   0  0  0  0  0  0  0  0  0  0  0  0
   19.1512   -8.0168    9.3070 C   0  0  0  0  0  0  0  0  0  0  0  0
   18.0569   -8.8472    9.0687 C   0  0  0  0  0  0  0  0  0  0  0  0
  1  2  2  0  0  0
  2 15  1  0  0  0
  2  3  1  0  0  0
 15 16  1  0  0  0
 16 17  1  0  0  0
 17 18  1  0  0  0
 18 19  2  0  0  0
 19 20  1  0  0  0
 20 21  2  0  0  0
 21 22  1  0  0  0
 22 23  2  0  0  0
 23 24  1  0  0  0
 24 25  2  0  0  0
 25 17  1  0  0  0
 25 20  1  0  0  0
  3  4  1  0  0  0
  4  5  1  0  0  0
  5  6  1  0  0  0
  6  7  1  0  0  0
  7  8  1  0  0  0
  7  9  1  0  0  0
  8  3  1  0  0  0
  9 10  2  0  0  0
 10 11  1  0  0  0
 11 12  2  0  0  0
 12 13  1  0  0  0
 13  9  1  0  0  0
 13 14  1  0  0  0
M  END
>  <minimizedAffinity>
-7.03361

>  <minimizedRMSD>
1.23494

$$$$
301881907 CSSS00133084750 MCULE-6710189548 MolPort-046-531-932 PubChem-138041998 Z1554565242


 27 29  0  0  0  0  0  0  0  0999 V2000
   17.4582   -9.6288   11.7409 N   0  0  0  0  0  0  0  0  0  0  0  0
   18.3554   -9.7169   12.1364 H   0  0  0  0  0  0  0  0  0  0  0  0
   19.1129   -7.9535    7.7285 N   0  0  0  0  0  0  0  0  0  0  0  0
   19.8833   -7.5692    8.7449 N   0  0  0  0  0  0  0  0  0  0  0  0
   19.3837   -8.0683    9.9076 C   0  0  0  0  0  0  0  0  0  0  0  0
   18.2537   -8.7916    9.5795 C   0  0  0  0  0  0  0  0  0  0  0  0
   17.3348   -9.5183   10.3226 C   0  0  0  0  0  0  0  0  0  0  0  0
   16.3095  -10.1227    9.6480 N   0  0  0  0  0  0  0  0  0  0  0  0
   16.1915  -10.0160    8.2853 C   0  0  0  0  0  0  0  0  0  0  0  0
   17.1033   -9.2971    7.5631 N   0  0  0  0  0  0  0  0  0  0  0  0
   18.1178   -8.6997    8.2354 C   0  0  0  0  0  0  0  0  0  0  0  0
   20.8172   -7.3722    6.0427 C   0  0  0  0  0  0  0  0  0  0  0  0
   19.3401   -7.6056    6.3183 C   0  0  0  0  0  0  0  0  0  0  0  0
   18.8616   -8.7329    5.4211 C   0  0  0  0  0  0  0  0  0  0  0  0
   18.5851   -6.3359    5.9680 C   0  0  0  0  0  0  0  0  0  0  0  0
   16.2993   -9.6150   12.6187 C   0  0  0  0  0  0  0  0  0  0  0  0
   16.7436   -9.5242   14.0354 C   0  0  0  0  0  0  0  0  0  0  0  0
   17.9734  -10.0674   14.4194 C   0  0  0  0  0  0  0  0  0  0  0  0
   18.4010   -9.9613   15.7454 C   0  0  0  0  0  0  0  0  0  0  0  0
   17.6018   -9.3072   16.6875 C   0  0  0  0  0  0  0  0  0  0  0  0
   16.3700   -8.7527   16.3103 C   0  0  0  0  0  0  0  0  0  0  0  0
   15.9481   -8.8632   14.9771 C   0  0  0  0  0  0  0  0  0  0  0  0
   15.5298   -8.0598   17.3026 C   0  0  0  0  0  0  0  0  0  0  0  0
   15.8979   -8.0497   18.6791 N   0  0  0  0  0  0  0  0  0  0  0  0
   14.4766   -7.4690   16.9433 O   0  0  0  0  0  0  0  0  0  0  0  0
   16.7185   -8.5077   18.9726 H   0  0  0  0  0  0  0  0  0  0  0  0
   15.3316   -7.5848   19.3367 H   0  0  0  0  0  0  0  0  0  0  0  0
 12 13  1  0  0  0
 13 14  1  0  0  0
 13 15  1  0  0  0
 13  3  1  0  0  0
  3  4  1  0  0  0
  4  5  2  0  0  0
  5  6  1  0  0  0
  6  7  2  0  0  0
  7  1  1  0  0  0
  1 16  1  0  0  0
 16 17  1  0  0  0
 17 18  2  0  0  0
 18 19  1  0  0  0
 19 20  2  0  0  0
 20 21  1  0  0  0
 21 22  2  0  0  0
 21 23  1  0  0  0
 23 24  1  0  0  0
 23 25  2  0  0  0
  7  8  1  0  0  0
  8  9  2  0  0  0
  9 10  1  0  0  0
 10 11  2  0  0  0
 11  3  1  0  0  0
 11  6  1  0  0  0
 22 17  1  0  0  0
  1  2  1  0  0  0
 24 26  1  0  0  0
 24 27  1  0  0  0
M  END
>  <minimizedAffinity>
-7.02557

>  <minimizedRMSD>
0.85890

$$$$
23141486 CSSS03437031357 MCULE-6065871264 MolPort-009-735-561 PubChem-30864913 ZINC000023141486


 30 33  0  0  0  0  0  0  0  0999 V2000
   16.6249   -9.7865   12.0892 C   0  0  0  0  0  0  0  0  0  0  0  0
   15.4592   -9.5868   12.7368 N   0  0  0  0  0  0  0  0  0  0  0  0
   15.6648   -9.8780   14.0134 N   0  0  0  0  0  0  0  0  0  0  0  0
   16.9514  -10.2567   14.1236 C   0  0  0  0  0  0  0  0  0  0  0  0
   17.5855  -10.2067   12.9385 N   0  0  0  0  0  0  0  0  0  0  0  0
   16.7811   -9.5995   10.6321 C   0  0  0  0  0  0  0  0  0  0  0  0
   15.8740   -9.9457    9.6266 C   0  0  0  0  0  0  0  0  0  0  0  0
   14.5774  -10.6514    9.8232 C   0  0  0  0  0  0  0  0  0  0  0  0
   16.3253   -9.5481    8.4051 N   0  0  0  0  0  0  0  0  0  0  0  0
   17.4975   -8.9707    8.7278 C   0  0  0  0  0  0  0  0  0  0  0  0
   18.6272   -8.1457    7.8181 S   0  0  0  0  0  0  0  0  0  0  0  0
   19.5545   -7.7679    9.2121 C   0  0  0  0  0  0  0  0  0  0  0  0
   18.9176   -8.3071   10.3446 C   0  0  0  0  0  0  0  0  0  0  0  0
   17.7900   -8.9753   10.0110 N   0  0  0  0  0  0  0  0  0  0  0  0
   18.9229  -10.7003   12.6380 C   0  0  0  0  0  0  0  0  0  0  0  0
   19.1474  -12.0405   13.3121 C   0  0  0  0  0  0  0  0  0  0  0  0
   17.6972  -10.8014   15.6602 S   0  0  0  0  0  0  0  0  0  0  0  0
   18.1406   -9.1089   16.1625 C   0  0  0  0  0  0  0  0  0  0  0  0
   16.9406   -8.2257   16.1510 C   0  0  0  0  0  0  0  0  0  0  0  0
   16.8822   -7.2688   15.3338 O   0  0  0  0  0  0  0  0  0  0  0  0
   15.8729   -8.4638   17.0684 N   0  0  0  0  0  0  0  0  0  0  0  0
   15.9483   -9.2103   17.7059 H   0  0  0  0  0  0  0  0  0  0  0  0
   14.6774   -7.6366   17.0892 C   0  0  0  0  0  0  0  0  0  0  0  0
   14.2663   -7.3841   18.4965 C   0  0  0  0  0  0  0  0  0  0  0  0
   15.1238   -7.7245   19.5485 C   0  0  0  0  0  0  0  0  0  0  0  0
   14.7277   -7.5083   20.8720 C   0  0  0  0  0  0  0  0  0  0  0  0
   13.4722   -6.9564   21.1448 C   0  0  0  0  0  0  0  0  0  0  0  0
   12.6110   -6.6236   20.0945 C   0  0  0  0  0  0  0  0  0  0  0  0
   13.0067   -6.8396   18.7708 C   0  0  0  0  0  0  0  0  0  0  0  0
   13.0889   -6.7468   22.4268 F   0  0  0  0  0  0  0  0  0  0  0  0
  1  2  2  0  0  0
  2  3  1  0  0  0
  3  4  2  0  0  0
  4 17  1  0  0  0
 17 18  1  0  0  0
 18 19  1  0  0  0
 19 20  2  0  0  0
 19 21  1  0  0  0
 21 23  1  0  0  0
 23 24  1  0  0  0
 24 25  2  0  0  0
 25 26  1  0  0  0
 26 27  2  0  0  0
 27 28  1  0  0  0
 28 29  2  0  0  0
 27 30  1  0  0  0
  4  5  1  0  0  0
  5 15  1  0  0  0
 15 16  1  0  0  0
  1  6  1  0  0  0
  6  7  2  0  0  0
  7  8  1  0  0  0
  7  9  1  0  0  0
  9 10  2  0  0  0
 10 11  1  0  0  0
 11 12  1  0  0  0
 12 13  2  0  0  0
 13 14  1  0  0  0
  5  1  1  0  0  0
 14  6  1  0  0  0
 29 24  1  0  0  0
 14 10  1  0  0  0
 21 22  1  0  0  0
M  END
>  <minimizedAffinity>
-7.01939

>  <minimizedRMSD>
1.58075

$$$$
CSC025910462 24658675 CSSS00025910462 MCULE-9721732855 MolPort-009-539-443 PubChem-31981190 Z367550760 ZINC000024658675


 26 28  0  0  0  0  0  0  0  0999 V2000
   17.9566  -10.6466   12.9728 C   0  0  0  0  0  0  0  0  0  0  0  0
   17.0192   -8.9739   16.2379 C   0  0  0  0  0  0  0  0  0  0  0  0
   16.9164   -9.5801   14.9807 C   0  0  0  0  0  0  0  0  0  0  0  0
   18.0664  -10.0240   14.3192 C   0  0  0  0  0  0  0  0  0  0  0  0
   19.3227   -9.8476   14.9086 C   0  0  0  0  0  0  0  0  0  0  0  0
   19.4275   -9.2399   16.1633 C   0  0  0  0  0  0  0  0  0  0  0  0
   18.2769   -8.8037   16.8272 C   0  0  0  0  0  0  0  0  0  0  0  0
   16.0035   -7.8725   18.6554 N   0  0  0  0  0  0  0  0  0  0  0  0
   15.5806   -8.4126   17.0697 S   0  0  0  0  0  0  0  0  0  0  0  0
   14.9629   -7.2809   16.2978 O   0  0  0  0  0  0  0  0  0  0  0  0
   14.5878   -9.5353   17.1871 O   0  0  0  0  0  0  0  0  0  0  0  0
   16.6774   -7.1100   18.5864 H   0  0  0  0  0  0  0  0  0  0  0  0
   16.4161   -8.6447   19.1788 H   0  0  0  0  0  0  0  0  0  0  0  0
   18.1904   -9.6421   11.9475 N   0  0  0  0  0  0  0  0  0  0  0  0
   18.8561   -8.9366   12.1160 H   0  0  0  0  0  0  0  0  0  0  0  0
   17.4861   -9.6443   10.7024 C   0  0  0  0  0  0  0  0  0  0  0  0
   18.0208   -8.9923    9.5831 C   0  0  0  0  0  0  0  0  0  0  0  0
   17.2881   -9.0229    8.3784 C   0  0  0  0  0  0  0  0  0  0  0  0
   17.7889   -8.3841    7.2405 C   0  0  0  0  0  0  0  0  0  0  0  0
   19.0155   -7.7152    7.2968 C   0  0  0  0  0  0  0  0  0  0  0  0
   19.7443   -7.6832    8.4902 C   0  0  0  0  0  0  0  0  0  0  0  0
   19.2496   -8.3199    9.6322 C   0  0  0  0  0  0  0  0  0  0  0  0
   19.6400   -6.9162    5.8706 Cl  0  0  0  0  0  0  0  0  0  0  0  0
   16.0978   -9.6731    8.3262 N   0  0  0  0  0  0  0  0  0  0  0  0
   15.5980  -10.2987    9.4236 C   0  0  0  0  0  0  0  0  0  0  0  0
   16.2875  -10.2813   10.5948 N   0  0  0  0  0  0  0  0  0  0  0  0
  8  9  1  0  0  0
  9  2  1  0  0  0
  2  3  2  0  0  0
  3  4  1  0  0  0
  4  1  1  0  0  0
  1 14  1  0  0  0
 14 16  1  0  0  0
 16 17  1  0  0  0
 17 18  1  0  0  0
 18 19  2  0  0  0
 19 20  1  0  0  0
 20 21  2  0  0  0
 21 22  1  0  0  0
 20 23  1  0  0  0
 18 24  1  0  0  0
 24 25  2  0  0  0
 25 26  1  0  0  0
  4  5  2  0  0  0
  5  6  1  0  0  0
  6  7  2  0  0  0
  9 10  2  0  0  0
  9 11  2  0  0  0
  7  2  1  0  0  0
 26 16  2  0  0  0
 22 17  2  0  0  0
  8 12  1  0  0  0
  8 13  1  0  0  0
 14 15  1  0  0  0
M  END
>  <minimizedAffinity>
-7.00893

>  <minimizedRMSD>
1.20446

$$$$
90070378 CSSS00104399396 MCULE-8033830591 MolPort-046-085-985 PubChem-133408998 Z1537068387


 24 26  0  0  0  0  0  0  0  0999 V2000
   18.1921   -9.8812   12.0431 N   0  0  0  0  0  0  0  0  0  0  0  0
   18.9557   -9.2607   12.0108 H   0  0  0  0  0  0  0  0  0  0  0  0
   19.7882   -7.4273    7.4056 C   0  0  0  0  0  0  0  0  0  0  0  0
   18.6860   -8.1502    8.0916 C   0  0  0  0  0  0  0  0  0  0  0  0
   18.7473   -8.6300    9.4001 C   0  0  0  0  0  0  0  0  0  0  0  0
   17.5527   -9.2643    9.7572 C   0  0  0  0  0  0  0  0  0  0  0  0
   17.2416   -9.8642   10.9762 C   0  0  0  0  0  0  0  0  0  0  0  0
   16.0094  -10.4343   11.1269 N   0  0  0  0  0  0  0  0  0  0  0  0
   15.0902  -10.4255   10.1149 C   0  0  0  0  0  0  0  0  0  0  0  0
   15.3852   -9.8411    8.9190 N   0  0  0  0  0  0  0  0  0  0  0  0
   16.6033   -9.2724    8.7568 C   0  0  0  0  0  0  0  0  0  0  0  0
   17.1861   -8.5017    7.3882 S   0  0  0  0  0  0  0  0  0  0  0  0
   18.0676  -10.7856   13.1748 C   0  0  0  0  0  0  0  0  0  0  0  0
   18.2074  -10.0229   14.4442 C   0  0  0  0  0  0  0  0  0  0  0  0
   19.4760   -9.7881   14.9833 C   0  0  0  0  0  0  0  0  0  0  0  0
   19.6087   -9.0513   16.1631 C   0  0  0  0  0  0  0  0  0  0  0  0
   18.4735   -8.5439   16.8019 C   0  0  0  0  0  0  0  0  0  0  0  0
   17.1973   -8.7680   16.2649 C   0  0  0  0  0  0  0  0  0  0  0  0
   17.0727   -9.5084   15.0800 C   0  0  0  0  0  0  0  0  0  0  0  0
   16.0014   -8.2298   16.9363 C   0  0  0  0  0  0  0  0  0  0  0  0
   15.8985   -8.2551   18.3572 N   0  0  0  0  0  0  0  0  0  0  0  0
   15.0574   -7.7415   16.2598 O   0  0  0  0  0  0  0  0  0  0  0  0
   16.6294   -8.6340   18.8970 H   0  0  0  0  0  0  0  0  0  0  0  0
   15.0964   -7.8937   18.7992 H   0  0  0  0  0  0  0  0  0  0  0  0
  3  4  1  0  0  0
  4  5  2  0  0  0
  5  6  1  0  0  0
  6  7  2  0  0  0
  7  1  1  0  0  0
  1 13  1  0  0  0
 13 14  1  0  0  0
 14 15  2  0  0  0
 15 16  1  0  0  0
 16 17  2  0  0  0
 17 18  1  0  0  0
 18 19  2  0  0  0
 18 20  1  0  0  0
 20 21  1  0  0  0
 20 22  2  0  0  0
  7  8  1  0  0  0
  8  9  2  0  0  0
  9 10  1  0  0  0
 10 11  2  0  0  0
 11 12  1  0  0  0
 12  4  1  0  0  0
 11  6  1  0  0  0
 19 14  1  0  0  0
  1  2  1  0  0  0
 21 23  1  0  0  0
 21 24  1  0  0  0
M  END
>  <minimizedAffinity>
-7.00344

>  <minimizedRMSD>
1.50339

$$$$
CSSS09880963393 MCULE-2179377483 MCULE-6448178175 MolPort-051-447-645


 30 33  0  0  0  0  0  0  0  0999 V2000
   18.2541  -12.8988   15.3071 C   0  0  0  0  0  0  0  0  0  0  0  0
   18.1014  -11.3989   15.5085 C   0  0  0  0  0  0  0  0  0  0  0  0
   17.4331  -11.1347   16.8803 C   0  0  0  0  0  0  0  0  0  0  0  0
   18.2759  -11.5380   17.9184 O   0  0  0  0  0  0  0  0  0  0  0  0
   17.0056   -9.6701   17.0865 C   0  0  0  0  0  0  0  0  0  0  0  0
   18.1260   -8.8437   17.2307 O   0  0  0  0  0  0  0  0  0  0  0  0
   16.1774   -9.2584   15.8782 C   0  0  0  0  0  0  0  0  0  0  0  0
   15.6464   -7.8507   15.8452 C   0  0  0  0  0  0  0  0  0  0  0  0
   15.4673   -7.5179   14.4286 N   0  0  0  0  0  0  0  0  0  0  0  0
   16.1457   -8.5678   13.6613 C   0  0  0  0  0  0  0  0  0  0  0  0
   17.0065   -9.3215   14.6442 C   0  0  0  0  0  0  0  0  0  0  0  0
   17.3140  -10.7815   14.3264 C   0  0  0  0  0  0  0  0  0  0  0  0
   19.0864  -11.0053   17.9024 H   0  0  0  0  0  0  0  0  0  0  0  0
   18.6780   -8.9057   16.4354 H   0  0  0  0  0  0  0  0  0  0  0  0
   15.8835   -6.6091   14.2254 H   0  0  0  0  0  0  0  0  0  0  0  0
   18.0976  -10.8789   13.0527 C   0  0  0  0  0  0  0  0  0  0  0  0
   18.8058  -11.8962   12.8175 O   0  0  0  0  0  0  0  0  0  0  0  0
   18.0374   -9.8040   12.1137 N   0  0  0  0  0  0  0  0  0  0  0  0
   17.4120   -9.0629   12.2840 H   0  0  0  0  0  0  0  0  0  0  0  0
   18.8625   -9.7592   10.9153 C   0  0  0  0  0  0  0  0  0  0  0  0
   18.0202   -9.4398    9.7258 C   0  0  0  0  0  0  0  0  0  0  0  0
   16.7386   -9.8494    9.5619 N   0  0  0  0  0  0  0  0  0  0  0  0
   16.2667   -9.3522    8.4202 N   0  0  0  0  0  0  0  0  0  0  0  0
   17.2566   -8.6262    7.8749 C   0  0  0  0  0  0  0  0  0  0  0  0
   17.2054   -7.9336    6.7107 N   0  0  0  0  0  0  0  0  0  0  0  0
   18.3141   -7.2375    6.3126 C   0  0  0  0  0  0  0  0  0  0  0  0
   19.4889   -7.2398    7.1016 C   0  0  0  0  0  0  0  0  0  0  0  0
   19.5247   -7.9630    8.3082 C   0  0  0  0  0  0  0  0  0  0  0  0
   18.3686   -8.6510    8.6579 C   0  0  0  0  0  0  0  0  0  0  0  0
   15.3659   -9.4902    8.0476 H   0  0  0  0  0  0  0  0  0  0  0  0
  2  1  1  0  0  0
  2  3  1  0  0  0
  3  4  1  0  0  0
  3  5  1  0  0  0
  5  6  1  0  0  0
  5  7  1  0  0  0
  7  8  1  0  0  0
  8  9  1  0  0  0
  9 10  1  0  0  0
 11 10  1  0  0  0
 11 12  1  0  0  0
 12 16  1  0  0  0
 16 17  2  0  0  0
 16 18  1  0  0  0
 18 20  1  0  0  0
 20 21  1  0  0  0
 21 22  2  0  0  0
 22 23  1  0  0  0
 23 24  1  0  0  0
 24 25  2  0  0  0
 25 26  1  0  0  0
 26 27  2  0  0  0
 27 28  1  0  0  0
 28 29  2  0  0  0
 12  2  1  0  0  0
 29 21  1  0  0  0
 11  7  1  0  0  0
 29 24  1  0  0  0
  4 13  1  0  0  0
  6 14  1  0  0  0
  9 15  1  0  0  0
 18 19  1  0  0  0
 23 30  1  0  0  0
M  END
>  <minimizedAffinity>
-6.99251

>  <minimizedRMSD>
2.35455

$$$$
CSC027349611 12547880 CSSS00027349611 MCULE-4536712887 MolPort-004-602-756 PubChem-16626827 Z237579684 ZINC000012547880


 25 29  0  0  0  0  0  0  0  0999 V2000
   15.3815   -9.4780   11.6052 C   0  0  0  0  0  0  0  0  0  0  0  0
   16.0299  -10.4285   10.5878 C   0  0  0  0  0  0  0  0  0  0  0  0
   16.8430  -11.5208   11.2930 C   0  0  0  0  0  0  0  0  0  0  0  0
   17.8602  -10.9156   12.2584 C   0  0  0  0  0  0  0  0  0  0  0  0
   17.1799  -10.0051   13.1742 N   0  0  0  0  0  0  0  0  0  0  0  0
   16.4136   -8.9124   12.5812 C   0  0  0  0  0  0  0  0  0  0  0  0
   17.2660  -10.2117   14.5973 C   0  0  0  0  0  0  0  0  0  0  0  0
   16.6871   -9.3459   15.5316 C   0  0  0  0  0  0  0  0  0  0  0  0
   16.8038   -9.5997   16.8591 C   0  0  0  0  0  0  0  0  0  0  0  0
   16.1835   -8.6595   17.5821 N   0  0  0  0  0  0  0  0  0  0  0  0
   15.6654   -7.7971   16.7122 N   0  0  0  0  0  0  0  0  0  0  0  0
   15.9519   -8.1825   15.4418 C   0  0  0  0  0  0  0  0  0  0  0  0
   17.4693  -10.6760   17.3388 N   0  0  0  0  0  0  0  0  0  0  0  0
   18.0403  -11.5313   16.4403 C   0  0  0  0  0  0  0  0  0  0  0  0
   17.9365  -11.2974   15.0937 N   0  0  0  0  0  0  0  0  0  0  0  0
   16.1227   -8.6150   18.5638 H   0  0  0  0  0  0  0  0  0  0  0  0
   16.8514   -9.7096    9.5559 C   0  0  0  0  0  0  0  0  0  0  0  0
   17.7355   -8.7646    9.8403 O   0  0  0  0  0  0  0  0  0  0  0  0
   18.2334   -8.3898    8.6942 C   0  0  0  0  0  0  0  0  0  0  0  0
   17.6431   -9.1140    7.7033 C   0  0  0  0  0  0  0  0  0  0  0  0
   17.9722   -8.9354    6.3622 C   0  0  0  0  0  0  0  0  0  0  0  0
   18.9495   -7.9675    6.0610 C   0  0  0  0  0  0  0  0  0  0  0  0
   19.5606   -7.2171    7.0917 C   0  0  0  0  0  0  0  0  0  0  0  0
   19.2026   -7.4246    8.4372 C   0  0  0  0  0  0  0  0  0  0  0  0
   16.7491   -9.9701    8.2248 N   0  0  0  0  0  0  0  0  0  0  0  0
  1  2  1  0  0  0
  2 17  1  0  0  0
 17 18  1  0  0  0
 18 19  1  0  0  0
 19 20  2  0  0  0
 20 21  1  0  0  0
 21 22  2  0  0  0
 22 23  1  0  0  0
 23 24  2  0  0  0
 20 25  1  0  0  0
  2  3  1  0  0  0
  3  4  1  0  0  0
  4  5  1  0  0  0
  5  7  1  0  0  0
  7  8  1  0  0  0
  8  9  2  0  0  0
  9 10  1  0  0  0
 10 11  1  0  0  0
 11 12  2  0  0  0
  9 13  1  0  0  0
 13 14  2  0  0  0
 14 15  1  0  0  0
  5  6  1  0  0  0
  6  1  1  0  0  0
 25 17  2  0  0  0
 15  7  2  0  0  0
 24 19  1  0  0  0
 12  8  1  0  0  0
 10 16  1  0  0  0
M  END
>  <minimizedAffinity>
-6.98021

>  <minimizedRMSD>
0.70338

$$$$
CSC025890137 3365965 CSSS00025890137 MCULE-2219879051 MolPort-004-032-603 PubChem-2483697 Z16518488 ZINC000003365965 ZINC03365965


 29 31  0  0  0  0  0  0  0  0999 V2000
   18.8928  -10.8235   14.0779 C   0  0  0  0  0  0  0  0  0  0  0  0
   20.0999  -11.1119   14.2958 O   0  0  0  0  0  0  0  0  0  0  0  0
   16.5881   -8.8215   17.0956 C   0  0  0  0  0  0  0  0  0  0  0  0
   16.7898   -8.2200   15.8449 C   0  0  0  0  0  0  0  0  0  0  0  0
   17.5388   -8.8703   14.8608 C   0  0  0  0  0  0  0  0  0  0  0  0
   18.0970  -10.1323   15.1117 C   0  0  0  0  0  0  0  0  0  0  0  0
   17.8924  -10.7319   16.3623 C   0  0  0  0  0  0  0  0  0  0  0  0
   17.1430  -10.0802   17.3460 C   0  0  0  0  0  0  0  0  0  0  0  0
   14.5647   -7.5171   17.9779 C   0  0  0  0  0  0  0  0  0  0  0  0
   14.0146   -7.4081   16.8504 O   0  0  0  0  0  0  0  0  0  0  0  0
   15.8243   -8.1862   18.1296 N   0  0  0  0  0  0  0  0  0  0  0  0
   16.2038   -8.2119   19.0377 H   0  0  0  0  0  0  0  0  0  0  0  0
   13.8980   -6.9239   19.1732 C   0  0  0  0  0  0  0  0  0  0  0  0
   11.7348   -8.1521   19.3446 C   0  0  0  0  0  0  0  0  0  0  0  0
   13.1177   -7.9773   19.9438 C   0  0  0  0  0  0  0  0  0  0  0  0
   12.9809   -7.5416   21.3872 C   0  0  0  0  0  0  0  0  0  0  0  0
   18.3036  -11.1639   12.7499 C   0  0  0  0  0  0  0  0  0  0  0  0
   18.0922   -9.9729   12.0065 O   0  0  0  0  0  0  0  0  0  0  0  0
   17.1455   -9.8941   10.9840 C   0  0  0  0  0  0  0  0  0  0  0  0
   17.4487   -9.2561    9.7761 C   0  0  0  0  0  0  0  0  0  0  0  0
   18.6431   -8.6254    9.3871 C   0  0  0  0  0  0  0  0  0  0  0  0
   19.8634   -8.5197   10.2411 C   0  0  0  0  0  0  0  0  0  0  0  0
   18.5638   -8.0967    8.0957 C   0  0  0  0  0  0  0  0  0  0  0  0
   19.6496   -7.3669    7.3843 C   0  0  0  0  0  0  0  0  0  0  0  0
   17.0351   -8.4024    7.4385 S   0  0  0  0  0  0  0  0  0  0  0  0
   16.4736   -9.2085    8.7982 C   0  0  0  0  0  0  0  0  0  0  0  0
   15.2460   -9.7528    8.9696 N   0  0  0  0  0  0  0  0  0  0  0  0
   14.9619  -10.3709   10.1498 C   0  0  0  0  0  0  0  0  0  0  0  0
   15.9014  -10.4377   11.1393 N   0  0  0  0  0  0  0  0  0  0  0  0
 14 15  1  0  0  0
 15 16  1  0  0  0
 15 13  1  0  0  0
 13  9  1  0  0  0
  9 10  2  0  0  0
  9 11  1  0  0  0
 11  3  1  0  0  0
  3  4  2  0  0  0
  4  5  1  0  0  0
  5  6  2  0  0  0
  6  7  1  0  0  0
  6  1  1  0  0  0
  7  8  2  0  0  0
  8  3  1  0  0  0
  1  2  2  0  0  0
  1 17  1  0  0  0
 17 18  1  0  0  0
 18 19  1  0  0  0
 19 20  2  0  0  0
 20 21  1  0  0  0
 21 22  1  0  0  0
 21 23  2  0  0  0
 23 24  1  0  0  0
 23 25  1  0  0  0
 25 26  1  0  0  0
 26 27  2  0  0  0
 26 20  1  0  0  0
 27 28  1  0  0  0
 28 29  2  0  0  0
 29 19  1  0  0  0
 11 12  1  0  0  0
M  END
>  <minimizedAffinity>
-6.97058

>  <minimizedRMSD>
1.47535

$$$$
CSSS03437702362 MCULE-8547388499 MolPort-002-906-782 PubChem-2820665 ZINC000001038320 ZINC01038320


 30 33  0  0  0  0  0  0  0  0999 V2000
   16.8283   -9.6690   11.4128 C   0  0  0  0  0  0  0  0  0  0  0  0
   17.7211  -10.1323   12.3304 N   0  0  0  0  0  0  0  0  0  0  0  0
   17.3577  -10.3776   13.6162 C   0  0  0  0  0  0  0  0  0  0  0  0
   16.0770  -10.1628   14.0137 N   0  0  0  0  0  0  0  0  0  0  0  0
   15.1488   -9.6983   13.1393 C   0  0  0  0  0  0  0  0  0  0  0  0
   15.5057   -9.4392   11.8175 C   0  0  0  0  0  0  0  0  0  0  0  0
   20.3845   -7.1965    5.4809 C   0  0  0  0  0  0  0  0  0  0  0  0
   19.4684   -7.8378    6.4601 C   0  0  0  0  0  0  0  0  0  0  0  0
   19.6150   -7.7233    7.7995 N   0  0  0  0  0  0  0  0  0  0  0  0
   18.6284   -8.4182    8.3332 N   0  0  0  0  0  0  0  0  0  0  0  0
   17.8817   -8.9564    7.3651 C   0  0  0  0  0  0  0  0  0  0  0  0
   18.3665   -8.6230    6.1180 C   0  0  0  0  0  0  0  0  0  0  0  0
   16.8051   -9.7239    7.6460 N   0  0  0  0  0  0  0  0  0  0  0  0
   16.4805   -9.9455    8.9505 C   0  0  0  0  0  0  0  0  0  0  0  0
   17.2428   -9.3920   10.0073 C   0  0  0  0  0  0  0  0  0  0  0  0
   18.3678   -8.5957    9.6550 C   0  0  0  0  0  0  0  0  0  0  0  0
   19.2740   -7.9719   10.6687 C   0  0  0  0  0  0  0  0  0  0  0  0
   18.5670  -10.9857   14.7852 S   0  0  0  0  0  0  0  0  0  0  0  0
   18.9947   -9.3161   15.3723 C   0  0  0  0  0  0  0  0  0  0  0  0
   17.7735   -8.5822   15.8081 C   0  0  0  0  0  0  0  0  0  0  0  0
   17.3251   -7.6532   15.0858 O   0  0  0  0  0  0  0  0  0  0  0  0
   17.1379   -8.9365   17.0438 N   0  0  0  0  0  0  0  0  0  0  0  0
   17.5712   -9.6416   17.5770 H   0  0  0  0  0  0  0  0  0  0  0  0
   15.9363   -8.3694   17.5825 C   0  0  0  0  0  0  0  0  0  0  0  0
   14.8366   -8.0496   16.7711 C   0  0  0  0  0  0  0  0  0  0  0  0
   13.6792   -7.5030   17.3326 C   0  0  0  0  0  0  0  0  0  0  0  0
   13.6129   -7.2734   18.7093 C   0  0  0  0  0  0  0  0  0  0  0  0
   12.1643   -6.5890   19.4138 Cl  0  0  0  0  0  0  0  0  0  0  0  0
   14.7032   -7.5910   19.5236 C   0  0  0  0  0  0  0  0  0  0  0  0
   15.8603   -8.1377   18.9606 C   0  0  0  0  0  0  0  0  0  0  0  0
  7  8  1  0  0  0
  8  9  2  0  0  0
  9 10  1  0  0  0
 10 11  1  0  0  0
 11 12  2  0  0  0
 11 13  1  0  0  0
 12  8  1  0  0  0
 13 14  2  0  0  0
 14 15  1  0  0  0
 15 16  2  0  0  0
 15  1  1  0  0  0
 16 17  1  0  0  0
 16 10  1  0  0  0
  1  2  2  0  0  0
  2  3  1  0  0  0
  3 18  1  0  0  0
  3  4  2  0  0  0
 18 19  1  0  0  0
 19 20  1  0  0  0
 20 21  2  0  0  0
 20 22  1  0  0  0
 22 24  1  0  0  0
 24 25  2  0  0  0
 25 26  1  0  0  0
 26 27  2  0  0  0
 27 28  1  0  0  0
 27 29  1  0  0  0
 29 30  2  0  0  0
 30 24  1  0  0  0
  4  5  1  0  0  0
  5  6  2  0  0  0
  6  1  1  0  0  0
 22 23  1  0  0  0
M  END
>  <minimizedAffinity>
-6.96963

>  <minimizedRMSD>
1.65031

$$$$
CSC025821929 24360029 CSSS00025821929 MCULE-8584212830 MolPort-009-477-404 PubChem-45868566 Z279651956 ZINC000024360029


 29 31  0  0  0  0  0  0  0  0999 V2000
   16.2947   -8.9147   13.1807 N   0  0  0  0  0  0  0  0  0  0  0  0
   16.0547   -8.0121   12.8694 H   0  0  0  0  0  0  0  0  0  0  0  0
   16.8620   -9.0590   14.4844 C   0  0  0  0  0  0  0  0  0  0  0  0
   16.1171   -8.6655   15.6002 C   0  0  0  0  0  0  0  0  0  0  0  0
   16.6446   -8.7945   16.8941 C   0  0  0  0  0  0  0  0  0  0  0  0
   17.9301   -9.3209   17.0594 C   0  0  0  0  0  0  0  0  0  0  0  0
   18.6809   -9.7164   15.9491 C   0  0  0  0  0  0  0  0  0  0  0  0
   18.1489   -9.5862   14.6640 C   0  0  0  0  0  0  0  0  0  0  0  0
   15.9074   -8.3970   18.0581 N   0  0  0  0  0  0  0  0  0  0  0  0
   14.6825   -7.6464   18.0884 C   0  0  0  0  0  0  0  0  0  0  0  0
   14.1047   -7.3235   17.0139 O   0  0  0  0  0  0  0  0  0  0  0  0
   16.2799   -8.6670   18.9285 H   0  0  0  0  0  0  0  0  0  0  0  0
   14.0450   -7.3201   19.4142 C   0  0  0  0  0  0  0  0  0  0  0  0
   12.8054   -8.1732   19.5960 C   0  0  0  0  0  0  0  0  0  0  0  0
   15.0088   -7.6058   20.5519 C   0  0  0  0  0  0  0  0  0  0  0  0
   13.6459   -5.8554   19.4906 C   0  0  0  0  0  0  0  0  0  0  0  0
   16.0558  -10.0427   12.2930 C   0  0  0  0  0  0  0  0  0  0  0  0
   19.1818   -7.8829    7.5567 C   0  0  0  0  0  0  0  0  0  0  0  0
   19.3901   -7.5523    9.2079 S   0  0  0  0  0  0  0  0  0  0  0  0
   18.1211   -8.5891    9.5767 C   0  0  0  0  0  0  0  0  0  0  0  0
   17.5891   -9.1457    8.4682 N   0  0  0  0  0  0  0  0  0  0  0  0
   16.5475  -10.0153    8.5478 C   0  0  0  0  0  0  0  0  0  0  0  0
   16.0276  -10.3320    9.8077 C   0  0  0  0  0  0  0  0  0  0  0  0
   16.6062   -9.7432   10.9444 C   0  0  0  0  0  0  0  0  0  0  0  0
   17.6457   -8.8706   10.8143 N   0  0  0  0  0  0  0  0  0  0  0  0
   16.0533  -10.5294    7.5095 O   0  0  0  0  0  0  0  0  0  0  0  0
   18.1733   -8.7616    7.3359 N   0  0  0  0  0  0  0  0  0  0  0  0
   19.6474   -7.9159    5.1377 C   0  0  0  0  0  0  0  0  0  0  0  0
   20.0188   -7.2999    6.4723 C   0  0  0  0  0  0  0  0  0  0  0  0
 28 29  1  0  0  0
 29 18  1  0  0  0
 18 19  1  0  0  0
 19 20  1  0  0  0
 20 21  1  0  0  0
 21 22  1  0  0  0
 22 23  1  0  0  0
 23 24  2  0  0  0
 24 25  1  0  0  0
 24 17  1  0  0  0
 17  1  1  0  0  0
  1  3  1  0  0  0
  3  4  2  0  0  0
  4  5  1  0  0  0
  5  9  1  0  0  0
  9 10  1  0  0  0
 10 13  1  0  0  0
 13 14  1  0  0  0
 13 15  1  0  0  0
 13 16  1  0  0  0
 10 11  2  0  0  0
  5  6  2  0  0  0
  6  7  1  0  0  0
  7  8  2  0  0  0
 22 26  2  0  0  0
 21 27  1  0  0  0
 27 18  2  0  0  0
 25 20  2  0  0  0
  8  3  1  0  0  0
  1  2  1  0  0  0
  9 12  1  0  0  0
M  END
>  <minimizedAffinity>
-6.96000

>  <minimizedRMSD>
1.37010

$$$$
CSSS01058713822 Z1758870589


 28 31  0  0  0  0  0  0  0  0999 V2000
   15.7466  -10.3463   11.4182 O   0  0  0  0  0  0  0  0  0  0  0  0
   16.8600   -9.9831   10.9520 C   0  0  0  0  0  0  0  0  0  0  0  0
   17.9966   -9.8475   11.8150 N   0  0  0  0  0  0  0  0  0  0  0  0
   18.8476   -9.5630   11.4099 H   0  0  0  0  0  0  0  0  0  0  0  0
   16.9848   -9.6990    9.5152 C   0  0  0  0  0  0  0  0  0  0  0  0
   16.1999  -10.2559    8.5617 N   0  0  0  0  0  0  0  0  0  0  0  0
   16.5669   -9.7932    7.3695 N   0  0  0  0  0  0  0  0  0  0  0  0
   17.5869   -8.9412    7.5684 C   0  0  0  0  0  0  0  0  0  0  0  0
   18.2900   -8.2182    6.6084 C   0  0  0  0  0  0  0  0  0  0  0  0
   19.3280   -7.3815    7.0603 C   0  0  0  0  0  0  0  0  0  0  0  0
   19.6314   -7.2907    8.4378 C   0  0  0  0  0  0  0  0  0  0  0  0
   18.9010   -8.0352    9.3826 C   0  0  0  0  0  0  0  0  0  0  0  0
   17.8808   -8.8527    8.8997 C   0  0  0  0  0  0  0  0  0  0  0  0
   16.1658  -10.0310    6.5024 H   0  0  0  0  0  0  0  0  0  0  0  0
   17.9808  -10.1016   13.2521 C   0  0  0  0  0  0  0  0  0  0  0  0
   18.5094  -11.5036   13.5641 C   0  0  0  0  0  0  0  0  0  0  0  0
   18.4813  -11.7598   15.0690 C   0  0  0  0  0  0  0  0  0  0  0  0
   17.0621  -11.5828   15.5990 C   0  0  0  0  0  0  0  0  0  0  0  0
   16.5707  -10.2527   15.2427 N   0  0  0  0  0  0  0  0  0  0  0  0
   16.5756   -9.9050   13.8235 C   0  0  0  0  0  0  0  0  0  0  0  0
   16.0609   -9.3110   16.2118 C   0  0  0  0  0  0  0  0  0  0  0  0
   14.7991   -8.8186   16.0546 N   0  0  0  0  0  0  0  0  0  0  0  0
   14.2565   -7.9311   16.9269 C   0  0  0  0  0  0  0  0  0  0  0  0
   15.0049   -7.5019   18.0192 C   0  0  0  0  0  0  0  0  0  0  0  0
   16.2650   -7.9763   18.1903 N   0  0  0  0  0  0  0  0  0  0  0  0
   16.8170   -8.8641   17.3214 C   0  0  0  0  0  0  0  0  0  0  0  0
   17.9945   -9.2619   17.5212 O   0  0  0  0  0  0  0  0  0  0  0  0
   16.7924   -7.6698   18.9630 H   0  0  0  0  0  0  0  0  0  0  0  0
  1  2  2  0  0  0
  2  3  1  0  0  0
  3 15  1  0  0  0
 15 16  1  0  0  0
 16 17  1  0  0  0
 17 18  1  0  0  0
 18 19  1  0  0  0
 19 20  1  0  0  0
 19 21  1  0  0  0
 21 22  2  0  0  0
 22 23  1  0  0  0
 23 24  2  0  0  0
 24 25  1  0  0  0
 25 26  1  0  0  0
 26 27  2  0  0  0
  2  5  1  0  0  0
  5  6  2  0  0  0
  6  7  1  0  0  0
  7  8  1  0  0  0
  8  9  2  0  0  0
  9 10  1  0  0  0
 10 11  2  0  0  0
 11 12  1  0  0  0
 12 13  2  0  0  0
 20 15  1  0  0  0
 26 21  1  0  0  0
 13  5  1  0  0  0
 13  8  1  0  0  0
  3  4  1  0  0  0
 25 28  1  0  0  0
  7 14  1  0  0  0
M  END
>  <minimizedAffinity>
-6.95139

>  <minimizedRMSD>
0.85337

$$$$
CSC026477498 12552830 CSSS00026477498 MCULE-9043468747 MolPort-005-604-501 PubChem-135687434 Z44500575 ZINC000012552830 ZINC12552830


 25 27  0  0  0  0  0  0  0  0999 V2000
   17.4334   -9.8507   13.1342 N   0  0  0  0  0  0  0  0  0  0  0  0
   16.6017   -9.4744   12.7656 H   0  0  0  0  0  0  0  0  0  0  0  0
   16.8707   -9.8062   16.8232 C   0  0  0  0  0  0  0  0  0  0  0  0
   17.4559  -11.0202   17.1983 C   0  0  0  0  0  0  0  0  0  0  0  0
   18.0354  -11.8531   16.2373 C   0  0  0  0  0  0  0  0  0  0  0  0
   18.0327  -11.4752   14.8924 C   0  0  0  0  0  0  0  0  0  0  0  0
   17.4495  -10.2608   14.5031 C   0  0  0  0  0  0  0  0  0  0  0  0
   16.8717   -9.4328   15.4704 C   0  0  0  0  0  0  0  0  0  0  0  0
   14.7852   -7.2155   18.8294 C   0  0  0  0  0  0  0  0  0  0  0  0
   15.2747   -7.9808   17.6537 C   0  0  0  0  0  0  0  0  0  0  0  0
   14.7927   -7.7392   16.5158 O   0  0  0  0  0  0  0  0  0  0  0  0
   16.2863   -8.9790   17.8387 N   0  0  0  0  0  0  0  0  0  0  0  0
   16.6138   -9.1105   18.7577 H   0  0  0  0  0  0  0  0  0  0  0  0
   18.5915   -9.9647   12.2609 C   0  0  0  0  0  0  0  0  0  0  0  0
   18.2181   -9.5549   10.8815 C   0  0  0  0  0  0  0  0  0  0  0  0
   19.0300   -8.7078   10.1818 N   0  0  0  0  0  0  0  0  0  0  0  0
   18.6696   -8.3177    8.9332 C   0  0  0  0  0  0  0  0  0  0  0  0
   17.4952   -8.7624    8.3736 C   0  0  0  0  0  0  0  0  0  0  0  0
   17.3356   -8.1072    6.8421 S   0  0  0  0  0  0  0  0  0  0  0  0
   18.7906   -7.2348    6.8812 C   0  0  0  0  0  0  0  0  0  0  0  0
   19.4104   -7.4613    8.1155 C   0  0  0  0  0  0  0  0  0  0  0  0
   16.6619   -9.6166    9.0839 C   0  0  0  0  0  0  0  0  0  0  0  0
   15.5803  -10.0325    8.5921 O   0  0  0  0  0  0  0  0  0  0  0  0
   17.0432   -9.9959   10.3357 N   0  0  0  0  0  0  0  0  0  0  0  0
   16.4635  -10.5976   10.8565 H   0  0  0  0  0  0  0  0  0  0  0  0
  9 10  1  0  0  0
 10 11  2  0  0  0
 10 12  1  0  0  0
 12  3  1  0  0  0
  3  4  2  0  0  0
  4  5  1  0  0  0
  5  6  2  0  0  0
  6  7  1  0  0  0
  7  1  1  0  0  0
  7  8  2  0  0  0
  1 14  1  0  0  0
 14 15  1  0  0  0
 15 16  2  0  0  0
 16 17  1  0  0  0
 17 18  2  0  0  0
 18 19  1  0  0  0
 18 22  1  0  0  0
 19 20  1  0  0  0
 20 21  2  0  0  0
 21 17  1  0  0  0
 22 23  2  0  0  0
 22 24  1  0  0  0
 24 15  1  0  0  0
  8  3  1  0  0  0
 12 13  1  0  0  0
  1  2  1  0  0  0
 24 25  1  0  0  0
M  END
>  <minimizedAffinity>
-6.94835

>  <minimizedRMSD>
0.55445

$$$$
CSSS07994456151


 30 32  0  0  0  0  0  0  0  0999 V2000
   17.7485  -10.0180   14.8792 C   0  0  0  0  0  0  0  0  0  0  0  0
   18.7644  -11.1472   14.9722 C   0  0  0  0  0  0  0  0  0  0  0  0
   17.6570   -9.5635   13.4914 N   0  0  0  0  0  0  0  0  0  0  0  0
   17.6756  -10.4185   12.3389 C   0  0  0  0  0  0  0  0  0  0  0  0
   17.7702  -11.6688   12.4783 O   0  0  0  0  0  0  0  0  0  0  0  0
   17.5764   -8.5947   13.3360 H   0  0  0  0  0  0  0  0  0  0  0  0
   17.5842   -9.8342   10.9904 C   0  0  0  0  0  0  0  0  0  0  0  0
   16.4811  -10.1395   10.1509 C   0  0  0  0  0  0  0  0  0  0  0  0
   16.3839   -9.6032    8.8963 N   0  0  0  0  0  0  0  0  0  0  0  0
   17.3659   -8.7724    8.4717 C   0  0  0  0  0  0  0  0  0  0  0  0
   17.5098   -8.1109    7.2778 C   0  0  0  0  0  0  0  0  0  0  0  0
   18.6724   -7.4137    7.3755 N   0  0  0  0  0  0  0  0  0  0  0  0
   19.2396   -7.6175    8.5637 N   0  0  0  0  0  0  0  0  0  0  0  0
   18.4368   -8.4523    9.2368 C   0  0  0  0  0  0  0  0  0  0  0  0
   18.5917   -8.9646   10.5185 C   0  0  0  0  0  0  0  0  0  0  0  0
   20.0855   -7.2295    8.8850 H   0  0  0  0  0  0  0  0  0  0  0  0
   15.2522  -10.1044   14.4168 C   0  0  0  0  0  0  0  0  0  0  0  0
   16.3897  -10.5720   15.3143 C   0  0  0  0  0  0  0  0  0  0  0  0
   18.1767   -8.8540   15.7815 C   0  0  0  0  0  0  0  0  0  0  0  0
   17.2760   -8.7019   16.9171 N   0  0  0  0  0  0  0  0  0  0  0  0
   16.1005   -7.8940   16.8470 C   0  0  0  0  0  0  0  0  0  0  0  0
   15.8123   -7.2826   15.7823 O   0  0  0  0  0  0  0  0  0  0  0  0
   17.4842   -9.1702   17.7577 H   0  0  0  0  0  0  0  0  0  0  0  0
   15.2270   -7.7775   18.0207 C   0  0  0  0  0  0  0  0  0  0  0  0
   13.8715   -7.5088   17.9714 C   0  0  0  0  0  0  0  0  0  0  0  0
   13.4934   -7.4970   19.2958 C   0  0  0  0  0  0  0  0  0  0  0  0
   11.8716   -7.2061   19.8866 Cl  0  0  0  0  0  0  0  0  0  0  0  0
   14.5966   -7.7509   20.0804 C   0  0  0  0  0  0  0  0  0  0  0  0
   15.6687   -7.9241   19.2858 N   0  0  0  0  0  0  0  0  0  0  0  0
   16.5906   -8.1187   19.5712 H   0  0  0  0  0  0  0  0  0  0  0  0
 17 18  1  0  0  0
 18  1  1  0  0  0
  1  2  1  0  0  0
  1 19  1  0  0  0
 19 20  1  0  0  0
 20 21  1  0  0  0
 21 22  2  0  0  0
 21 24  1  0  0  0
 24 25  2  0  0  0
 25 26  1  0  0  0
 26 27  1  0  0  0
 26 28  2  0  0  0
 28 29  1  0  0  0
  1  3  1  0  0  0
  3  4  1  0  0  0
  4  5  2  0  0  0
  4  7  1  0  0  0
  7  8  2  0  0  0
  8  9  1  0  0  0
  9 10  2  0  0  0
 10 11  1  0  0  0
 11 12  2  0  0  0
 12 13  1  0  0  0
 13 14  1  0  0  0
 14 15  2  0  0  0
 29 24  1  0  0  0
 15  7  1  0  0  0
 14 10  1  0  0  0
 20 23  1  0  0  0
 29 30  1  0  0  0
  3  6  1  0  0  0
 13 16  1  0  0  0
M  END
>  <minimizedAffinity>
-6.92647

>  <minimizedRMSD>
1.61802

$$$$
823128853 CSSS00159950380 MCULE-6135802989 MolPort-045-958-103 PubChem-131907444 ZINC000823128853


 27 30  0  0  0  0  0  0  0  0999 V2000
   16.9078   -9.8239   13.1457 N   0  0  0  0  0  0  0  0  0  0  0  0
   17.7202  -10.7418   12.3520 C   0  0  0  0  0  0  0  0  0  0  0  0
   16.8422  -11.4588   11.3274 C   0  0  0  0  0  0  0  0  0  0  0  0
   16.0052  -10.4700   10.5081 C   0  0  0  0  0  0  0  0  0  0  0  0
   15.2083   -9.5220   11.4112 C   0  0  0  0  0  0  0  0  0  0  0  0
   16.1069   -8.8294   12.4347 C   0  0  0  0  0  0  0  0  0  0  0  0
   16.8319   -9.7289    9.5034 C   0  0  0  0  0  0  0  0  0  0  0  0
   16.7330   -9.9513    8.1663 N   0  0  0  0  0  0  0  0  0  0  0  0
   17.6356   -9.0868    7.6742 C   0  0  0  0  0  0  0  0  0  0  0  0
   17.9715   -8.8705    6.3403 C   0  0  0  0  0  0  0  0  0  0  0  0
   18.9573   -7.9016    6.0718 C   0  0  0  0  0  0  0  0  0  0  0  0
   19.5701   -7.1871    7.1268 C   0  0  0  0  0  0  0  0  0  0  0  0
   19.2055   -7.4321    8.4643 C   0  0  0  0  0  0  0  0  0  0  0  0
   18.2278   -8.3968    8.6886 C   0  0  0  0  0  0  0  0  0  0  0  0
   17.7228   -8.8019    9.8212 O   0  0  0  0  0  0  0  0  0  0  0  0
   16.3248   -8.9632   16.7449 C   0  0  0  0  0  0  0  0  0  0  0  0
   17.2731   -9.7961   17.3485 C   0  0  0  0  0  0  0  0  0  0  0  0
   18.0760  -10.6147   16.5534 C   0  0  0  0  0  0  0  0  0  0  0  0
   17.9364  -10.6011   15.2012 N   0  0  0  0  0  0  0  0  0  0  0  0
   17.0249   -9.8016   14.5778 C   0  0  0  0  0  0  0  0  0  0  0  0
   16.2021   -8.9690   15.3504 C   0  0  0  0  0  0  0  0  0  0  0  0
   15.6829   -7.9967   18.9767 N   0  0  0  0  0  0  0  0  0  0  0  0
   15.4661   -8.0919   17.5662 C   0  0  0  0  0  0  0  0  0  0  0  0
   14.5382   -7.4294   17.0257 O   0  0  0  0  0  0  0  0  0  0  0  0
   16.4120   -8.5185   19.3832 H   0  0  0  0  0  0  0  0  0  0  0  0
   14.7893   -7.7552   21.2165 C   0  0  0  0  0  0  0  0  0  0  0  0
   14.8609   -7.1538   19.8286 C   0  0  0  0  0  0  0  0  0  0  0  0
 26 27  1  0  0  0
 27 22  1  0  0  0
 22 23  1  0  0  0
 23 24  2  0  0  0
 23 16  1  0  0  0
 16 17  2  0  0  0
 17 18  1  0  0  0
 18 19  2  0  0  0
 19 20  1  0  0  0
 20 21  2  0  0  0
 20  1  1  0  0  0
  1  2  1  0  0  0
  2  3  1  0  0  0
  3  4  1  0  0  0
  4  5  1  0  0  0
  5  6  1  0  0  0
  4  7  1  0  0  0
  7  8  2  0  0  0
  8  9  1  0  0  0
  9 10  2  0  0  0
 10 11  1  0  0  0
 11 12  2  0  0  0
 12 13  1  0  0  0
 13 14  2  0  0  0
 14 15  1  0  0  0
 21 16  1  0  0  0
  6  1  1  0  0  0
 15  7  1  0  0  0
 14  9  1  0  0  0
 22 25  1  0  0  0
M  END
>  <minimizedAffinity>
-6.90504

>  <minimizedRMSD>
0.55170

$$$$
CSC028194505 CSSS00028194505 MolPort-039-085-177 Z190779378


 27 29  0  0  0  0  0  0  0  0999 V2000
   16.5463  -10.2830   12.2614 C   0  0  0  0  0  0  0  0  0  0  0  0
   16.8039   -9.7443   10.9255 N   0  0  0  0  0  0  0  0  0  0  0  0
   15.8294   -9.8157    9.9637 C   0  0  0  0  0  0  0  0  0  0  0  0
   14.2174  -10.5292   10.3100 S   0  0  0  0  0  0  0  0  0  0  0  0
   16.0631   -9.3337    8.7154 N   0  0  0  0  0  0  0  0  0  0  0  0
   17.2548   -8.7813    8.3851 C   0  0  0  0  0  0  0  0  0  0  0  0
   17.4672   -8.2940    7.0921 C   0  0  0  0  0  0  0  0  0  0  0  0
   18.6991   -7.7271    6.7522 C   0  0  0  0  0  0  0  0  0  0  0  0
   19.7210   -7.6470    7.7034 C   0  0  0  0  0  0  0  0  0  0  0  0
   19.5136   -8.1331    8.9979 C   0  0  0  0  0  0  0  0  0  0  0  0
   18.2793   -8.7022    9.3455 C   0  0  0  0  0  0  0  0  0  0  0  0
   18.0282   -9.2027   10.6301 C   0  0  0  0  0  0  0  0  0  0  0  0
   18.9338   -9.1571   11.5101 O   0  0  0  0  0  0  0  0  0  0  0  0
   14.1770  -10.9524   11.6019 H   0  0  0  0  0  0  0  0  0  0  0  0
   16.0197   -9.1947   13.1801 C   0  0  0  0  0  0  0  0  0  0  0  0
   16.8436   -9.1699   14.4534 C   0  0  0  0  0  0  0  0  0  0  0  0
   16.2298   -8.2183   15.4644 C   0  0  0  0  0  0  0  0  0  0  0  0
   16.0701   -8.9049   16.8095 C   0  0  0  0  0  0  0  0  0  0  0  0
   15.6682   -8.0497   19.1456 N   0  0  0  0  0  0  0  0  0  0  0  0
   15.3550   -8.0050   17.7534 C   0  0  0  0  0  0  0  0  0  0  0  0
   14.4998   -7.1904   17.3136 O   0  0  0  0  0  0  0  0  0  0  0  0
   16.3498   -8.6861   19.4614 H   0  0  0  0  0  0  0  0  0  0  0  0
   16.0177   -6.7487   21.1585 C   0  0  0  0  0  0  0  0  0  0  0  0
   15.0110   -7.1835   20.1116 C   0  0  0  0  0  0  0  0  0  0  0  0
   13.8717   -7.9335   20.7779 C   0  0  0  0  0  0  0  0  0  0  0  0
   12.8245   -6.9441   21.2495 C   0  0  0  0  0  0  0  0  0  0  0  0
   12.5988   -7.7348   19.9790 C   0  0  0  0  0  0  0  0  0  0  0  0
 23 24  1  0  0  0
 24 19  1  0  0  0
 19 20  1  0  0  0
 20 21  2  0  0  0
 20 18  1  0  0  0
 18 17  1  0  0  0
 17 16  1  0  0  0
 16 15  1  0  0  0
 15  1  1  0  0  0
  1  2  1  0  0  0
  2  3  1  0  0  0
  3  4  1  0  0  0
  3  5  2  0  0  0
  5  6  1  0  0  0
  6  7  2  0  0  0
  7  8  1  0  0  0
  8  9  2  0  0  0
  9 10  1  0  0  0
 10 11  2  0  0  0
 11 12  1  0  0  0
 12 13  2  0  0  0
 24 25  1  0  0  0
 25 26  1  0  0  0
 26 27  1  0  0  0
 12  2  1  0  0  0
 27 25  1  0  0  0
 11  6  1  0  0  0
 19 22  1  0  0  0
  4 14  1  0  0  0
M  END
>  <minimizedAffinity>
-6.89062

>  <minimizedRMSD>
1.16172

$$$$
CSC046170437 CSSS00046170437 MCULE-7020606952 MolPort-039-796-158 PubChem-127354274 Z1263088203


 27 30  0  0  0  0  0  0  0  0999 V2000
   17.4787   -9.0058   15.1476 N   0  0  0  0  0  0  0  0  0  0  0  0
   17.9365  -10.2244   14.4743 C   0  0  0  0  0  0  0  0  0  0  0  0
   18.4312   -9.8828   13.0724 C   0  0  0  0  0  0  0  0  0  0  0  0
   17.3656   -9.1963   12.3486 N   0  0  0  0  0  0  0  0  0  0  0  0
   16.7550   -8.0440   13.0051 C   0  0  0  0  0  0  0  0  0  0  0  0
   16.3322   -8.4419   14.4175 C   0  0  0  0  0  0  0  0  0  0  0  0
   16.9549   -9.5678   11.0182 C   0  0  0  0  0  0  0  0  0  0  0  0
   17.5772   -9.0851    9.8563 C   0  0  0  0  0  0  0  0  0  0  0  0
   18.8836   -8.0563    9.6294 S   0  0  0  0  0  0  0  0  0  0  0  0
   18.8826   -8.1105    7.9376 C   0  0  0  0  0  0  0  0  0  0  0  0
   17.8458   -8.9557    7.5342 C   0  0  0  0  0  0  0  0  0  0  0  0
   17.1351   -9.4897    8.6130 C   0  0  0  0  0  0  0  0  0  0  0  0
   16.0983  -10.3542    8.4937 N   0  0  0  0  0  0  0  0  0  0  0  0
   15.4906  -10.8313    9.6161 C   0  0  0  0  0  0  0  0  0  0  0  0
   15.9188  -10.4429   10.8536 N   0  0  0  0  0  0  0  0  0  0  0  0
   16.8334  -10.8394   16.7426 C   0  0  0  0  0  0  0  0  0  0  0  0
   17.1183   -9.3498   16.5334 C   0  0  0  0  0  0  0  0  0  0  0  0
   15.9953   -8.5023   17.0601 C   0  0  0  0  0  0  0  0  0  0  0  0
   15.2094   -7.9156   16.2665 O   0  0  0  0  0  0  0  0  0  0  0  0
   15.8415   -8.3533   18.4756 N   0  0  0  0  0  0  0  0  0  0  0  0
   16.4844   -8.8174   19.0592 H   0  0  0  0  0  0  0  0  0  0  0  0
   14.8162   -7.5751   19.0977 C   0  0  0  0  0  0  0  0  0  0  0  0
   14.5314   -7.5915   20.4480 C   0  0  0  0  0  0  0  0  0  0  0  0
   13.4865   -6.6868   20.5126 C   0  0  0  0  0  0  0  0  0  0  0  0
   12.7677   -6.3010   21.7552 C   0  0  0  0  0  0  0  0  0  0  0  0
   13.1929   -6.1894   19.2967 N   0  0  0  0  0  0  0  0  0  0  0  0
   14.0178   -6.7496   18.4656 O   0  0  0  0  0  0  0  0  0  0  0  0
 16 17  1  0  0  0
 17  1  1  0  0  0
  1  2  1  0  0  0
  2  3  1  0  0  0
  3  4  1  0  0  0
  4  5  1  0  0  0
  5  6  1  0  0  0
  4  7  1  0  0  0
  7  8  2  0  0  0
  8  9  1  0  0  0
  9 10  1  0  0  0
 10 11  2  0  0  0
 11 12  1  0  0  0
 12 13  2  0  0  0
 13 14  1  0  0  0
 14 15  2  0  0  0
 17 18  1  0  0  0
 18 19  2  0  0  0
 18 20  1  0  0  0
 20 22  1  0  0  0
 22 23  2  0  0  0
 23 24  1  0  0  0
 24 25  1  0  0  0
 24 26  2  0  0  0
 26 27  1  0  0  0
  6  1  1  0  0  0
 15  7  1  0  0  0
 27 22  1  0  0  0
 12  8  1  0  0  0
 20 21  1  0  0  0
M  END
>  <minimizedAffinity>
-6.88480

>  <minimizedRMSD>
1.49366

$$$$
CSSS01065333826 Z1590661453


 27 30  0  0  0  0  0  0  0  0999 V2000
   17.8476  -10.5972   12.7081 N   0  0  0  0  0  0  0  0  0  0  0  0
   17.6404  -11.5256   12.9617 H   0  0  0  0  0  0  0  0  0  0  0  0
   19.9232   -7.6889    8.6982 C   0  0  0  0  0  0  0  0  0  0  0  0
   18.5793   -8.2208    8.5569 N   0  0  0  0  0  0  0  0  0  0  0  0
   17.8062   -8.0409    7.4918 N   0  0  0  0  0  0  0  0  0  0  0  0
   16.6178   -8.6735    7.6956 C   0  0  0  0  0  0  0  0  0  0  0  0
   16.6852   -9.2611    8.9470 C   0  0  0  0  0  0  0  0  0  0  0  0
   15.8049  -10.0257    9.6978 C   0  0  0  0  0  0  0  0  0  0  0  0
   14.6609  -10.3245    9.2657 O   0  0  0  0  0  0  0  0  0  0  0  0
   16.2176  -10.4488   10.9291 N   0  0  0  0  0  0  0  0  0  0  0  0
   17.4619  -10.1318   11.4152 C   0  0  0  0  0  0  0  0  0  0  0  0
   18.3238   -9.3756   10.6646 N   0  0  0  0  0  0  0  0  0  0  0  0
   17.9069   -8.9597    9.4443 C   0  0  0  0  0  0  0  0  0  0  0  0
   15.6096  -10.9929   11.4801 H   0  0  0  0  0  0  0  0  0  0  0  0
   18.5368   -9.7439   13.6631 C   0  0  0  0  0  0  0  0  0  0  0  0
   18.0316  -10.0151   15.0357 C   0  0  0  0  0  0  0  0  0  0  0  0
   18.4312  -11.1716   15.7127 C   0  0  0  0  0  0  0  0  0  0  0  0
   17.9389  -11.4373   16.9933 C   0  0  0  0  0  0  0  0  0  0  0  0
   17.0426  -10.5496   17.5958 C   0  0  0  0  0  0  0  0  0  0  0  0
   16.6315   -9.3913   16.9209 C   0  0  0  0  0  0  0  0  0  0  0  0
   17.1292   -9.1313   15.6363 C   0  0  0  0  0  0  0  0  0  0  0  0
   15.6846   -8.4584   17.5536 C   0  0  0  0  0  0  0  0  0  0  0  0
   14.6835   -7.8538   16.8863 N   0  0  0  0  0  0  0  0  0  0  0  0
   14.0671   -7.0992   17.8143 C   0  0  0  0  0  0  0  0  0  0  0  0
   14.7114   -7.2655   19.0239 C   0  0  0  0  0  0  0  0  0  0  0  0
   15.7333   -8.1247   18.8572 N   0  0  0  0  0  0  0  0  0  0  0  0
   16.3731   -8.4390   19.5362 H   0  0  0  0  0  0  0  0  0  0  0  0
  3  4  1  0  0  0
  4  5  1  0  0  0
  5  6  2  0  0  0
  6  7  1  0  0  0
  7  8  1  0  0  0
  8  9  2  0  0  0
  8 10  1  0  0  0
 10 11  1  0  0  0
 11  1  1  0  0  0
  1 15  1  0  0  0
 15 16  1  0  0  0
 16 17  2  0  0  0
 17 18  1  0  0  0
 18 19  2  0  0  0
 19 20  1  0  0  0
 20 21  2  0  0  0
 20 22  1  0  0  0
 22 23  2  0  0  0
 23 24  1  0  0  0
 24 25  2  0  0  0
 25 26  1  0  0  0
 11 12  2  0  0  0
 12 13  1  0  0  0
 13  4  1  0  0  0
 13  7  2  0  0  0
 21 16  1  0  0  0
 26 22  1  0  0  0
 10 14  1  0  0  0
  1  2  1  0  0  0
 26 27  1  0  0  0
M  END
>  <minimizedAffinity>
-6.87073

>  <minimizedRMSD>
1.12947

$$$$
CSSS14880525057 Z8679620686


 26 28  0  0  0  0  0  0  0  0999 V2000
   17.0739   -9.8989   16.8097 C   0  0  0  0  0  0  0  0  0  0  0  0
   17.2760  -11.2318   17.1846 C   0  0  0  0  0  0  0  0  0  0  0  0
   18.0008  -12.0974   16.3599 C   0  0  0  0  0  0  0  0  0  0  0  0
   18.5301  -11.6331   15.1528 C   0  0  0  0  0  0  0  0  0  0  0  0
   18.3383  -10.3013   14.7717 C   0  0  0  0  0  0  0  0  0  0  0  0
   17.6081   -9.4390   15.5964 C   0  0  0  0  0  0  0  0  0  0  0  0
   15.3754   -8.0368   17.2917 C   0  0  0  0  0  0  0  0  0  0  0  0
   15.1210   -7.8221   16.0773 O   0  0  0  0  0  0  0  0  0  0  0  0
   16.3223   -9.0433   17.6814 N   0  0  0  0  0  0  0  0  0  0  0  0
   16.4712   -9.1580   18.6478 H   0  0  0  0  0  0  0  0  0  0  0  0
   14.6710   -7.2225   18.3277 C   0  0  0  0  0  0  0  0  0  0  0  0
   14.0510   -7.6019   20.4112 C   0  0  0  0  0  0  0  0  0  0  0  0
   15.1795   -7.4850   19.6011 O   0  0  0  0  0  0  0  0  0  0  0  0
   18.8853   -9.8095   13.4774 C   0  0  0  0  0  0  0  0  0  0  0  0
   17.9554  -10.1888   12.3412 C   0  0  0  0  0  0  0  0  0  0  0  0
   17.9094   -9.1074   11.3724 N   0  0  0  0  0  0  0  0  0  0  0  0
   18.1741   -8.2023   11.6552 H   0  0  0  0  0  0  0  0  0  0  0  0
   17.4919   -9.3164   10.0218 C   0  0  0  0  0  0  0  0  0  0  0  0
   16.4774  -10.1835    9.7282 N   0  0  0  0  0  0  0  0  0  0  0  0
   16.0678  -10.3928    8.4406 C   0  0  0  0  0  0  0  0  0  0  0  0
   16.6689   -9.7339    7.4093 N   0  0  0  0  0  0  0  0  0  0  0  0
   17.6751   -8.8726    7.6907 C   0  0  0  0  0  0  0  0  0  0  0  0
   18.5612   -7.9544    6.6132 S   0  0  0  0  0  0  0  0  0  0  0  0
   19.5388   -7.2271    7.7949 C   0  0  0  0  0  0  0  0  0  0  0  0
   19.1599   -7.7155    9.0514 C   0  0  0  0  0  0  0  0  0  0  0  0
   18.1114   -8.6390    8.9729 C   0  0  0  0  0  0  0  0  0  0  0  0
 12 13  1  0  0  0
 13 11  1  0  0  0
 11  7  1  0  0  0
  7  8  2  0  0  0
  7  9  1  0  0  0
  9  1  1  0  0  0
  1  2  2  0  0  0
  2  3  1  0  0  0
  3  4  2  0  0  0
  4  5  1  0  0  0
  5 14  1  0  0  0
 14 15  1  0  0  0
 15 16  1  0  0  0
 16 18  1  0  0  0
 18 19  2  0  0  0
 19 20  1  0  0  0
 20 21  2  0  0  0
 21 22  1  0  0  0
 22 23  1  0  0  0
 23 24  1  0  0  0
 24 25  2  0  0  0
 25 26  1  0  0  0
  5  6  2  0  0  0
  6  1  1  0  0  0
 26 18  1  0  0  0
 26 22  2  0  0  0
  9 10  1  0  0  0
 16 17  1  0  0  0
M  END
>  <minimizedAffinity>
-6.87007

>  <minimizedRMSD>
0.70198

$$$$
CSSS02733016684 Z5164735274


 26 29  0  0  0  0  0  0  0  0999 V2000
   18.1027   -9.7818   11.8646 N   0  0  0  0  0  0  0  0  0  0  0  0
   17.1815  -10.0908   12.0231 H   0  0  0  0  0  0  0  0  0  0  0  0
   15.4755  -10.5258   10.2852 C   0  0  0  0  0  0  0  0  0  0  0  0
   16.2926   -9.7290    9.3296 C   0  0  0  0  0  0  0  0  0  0  0  0
   15.9120   -9.4313    8.0639 N   0  0  0  0  0  0  0  0  0  0  0  0
   16.8675   -8.7085    7.4825 N   0  0  0  0  0  0  0  0  0  0  0  0
   17.8458   -8.5565    8.3905 C   0  0  0  0  0  0  0  0  0  0  0  0
   17.5307   -9.1757    9.5558 C   0  0  0  0  0  0  0  0  0  0  0  0
   18.4127   -9.1377   10.6284 C   0  0  0  0  0  0  0  0  0  0  0  0
   19.5883   -8.4602   10.4558 N   0  0  0  0  0  0  0  0  0  0  0  0
   19.8874   -7.8409    9.2686 C   0  0  0  0  0  0  0  0  0  0  0  0
   19.0103   -7.8859    8.2202 N   0  0  0  0  0  0  0  0  0  0  0  0
   16.8586   -8.3540    6.5641 H   0  0  0  0  0  0  0  0  0  0  0  0
   19.1041   -9.9957   12.8964 C   0  0  0  0  0  0  0  0  0  0  0  0
   18.4383  -10.3964   14.1648 C   0  0  0  0  0  0  0  0  0  0  0  0
   17.6509   -9.4750   14.8630 C   0  0  0  0  0  0  0  0  0  0  0  0
   16.9999   -9.8526   16.0456 C   0  0  0  0  0  0  0  0  0  0  0  0
   17.1403  -11.1647   16.5193 C   0  0  0  0  0  0  0  0  0  0  0  0
   17.9207  -12.0885   15.8179 C   0  0  0  0  0  0  0  0  0  0  0  0
   18.5672  -11.7053   14.6396 C   0  0  0  0  0  0  0  0  0  0  0  0
   16.1747   -8.8816   16.7812 C   0  0  0  0  0  0  0  0  0  0  0  0
   15.2841   -8.0612   16.1981 N   0  0  0  0  0  0  0  0  0  0  0  0
   14.7448   -7.3459   17.1689 N   0  0  0  0  0  0  0  0  0  0  0  0
   15.3135   -7.7405   18.3246 C   0  0  0  0  0  0  0  0  0  0  0  0
   16.2246   -8.7125   18.1168 N   0  0  0  0  0  0  0  0  0  0  0  0
   16.7857   -9.1813   18.7761 H   0  0  0  0  0  0  0  0  0  0  0  0
  3  4  1  0  0  0
  4  5  2  0  0  0
  5  6  1  0  0  0
  6  7  1  0  0  0
  7  8  2  0  0  0
  8  9  1  0  0  0
  9  1  1  0  0  0
  1 14  1  0  0  0
 14 15  1  0  0  0
 15 16  2  0  0  0
 16 17  1  0  0  0
 17 21  1  0  0  0
 21 22  2  0  0  0
 22 23  1  0  0  0
 23 24  2  0  0  0
 24 25  1  0  0  0
 17 18  2  0  0  0
 18 19  1  0  0  0
 19 20  2  0  0  0
  9 10  2  0  0  0
 10 11  1  0  0  0
 11 12  2  0  0  0
  8  4  1  0  0  0
 20 15  1  0  0  0
 12  7  1  0  0  0
 25 21  1  0  0  0
  6 13  1  0  0  0
  1  2  1  0  0  0
 25 26  1  0  0  0
M  END
>  <minimizedAffinity>
-6.86994

>  <minimizedRMSD>
0.70454

$$$$
CSC026518948 CSSS00026518948 MCULE-5174199149 MolPort-027-895-453 PubChem-75370717 Z1177016527


 27 30  0  0  0  0  0  0  0  0999 V2000
   18.0815  -10.2598   12.1913 N   0  0  0  0  0  0  0  0  0  0  0  0
   17.1992  -10.1722   11.0712 C   0  0  0  0  0  0  0  0  0  0  0  0
   16.0332  -10.6466   11.1413 O   0  0  0  0  0  0  0  0  0  0  0  0
   18.9887   -9.8851   12.1144 H   0  0  0  0  0  0  0  0  0  0  0  0
   17.6524   -9.5259    9.8354 C   0  0  0  0  0  0  0  0  0  0  0  0
   17.2666   -9.9469    8.6012 N   0  0  0  0  0  0  0  0  0  0  0  0
   17.9034   -9.0898    7.7913 C   0  0  0  0  0  0  0  0  0  0  0  0
   17.8711   -9.0515    6.3995 C   0  0  0  0  0  0  0  0  0  0  0  0
   18.6284   -8.0504    5.7628 C   0  0  0  0  0  0  0  0  0  0  0  0
   19.3850   -7.1301    6.5227 C   0  0  0  0  0  0  0  0  0  0  0  0
   19.3931   -7.1997    7.9285 C   0  0  0  0  0  0  0  0  0  0  0  0
   18.6323   -8.2030    8.5234 C   0  0  0  0  0  0  0  0  0  0  0  0
   18.4919   -8.4562    9.8319 N   0  0  0  0  0  0  0  0  0  0  0  0
   18.8948   -7.9862   10.5974 H   0  0  0  0  0  0  0  0  0  0  0  0
   16.1679   -8.4604   15.6906 N   0  0  0  0  0  0  0  0  0  0  0  0
   15.1239   -8.6867   14.9048 N   0  0  0  0  0  0  0  0  0  0  0  0
   15.4754   -9.6039   13.9714 C   0  0  0  0  0  0  0  0  0  0  0  0
   16.7924   -9.9559   14.2084 C   0  0  0  0  0  0  0  0  0  0  0  0
   17.2040   -9.2018   15.2734 C   0  0  0  0  0  0  0  0  0  0  0  0
   18.5502   -9.3283   15.9179 C   0  0  0  0  0  0  0  0  0  0  0  0
   19.5388   -9.9838   14.9417 C   0  0  0  0  0  0  0  0  0  0  0  0
   18.9292  -11.2301   14.2743 C   0  0  0  0  0  0  0  0  0  0  0  0
   17.6808  -10.8855   13.4423 C   0  0  0  0  0  0  0  0  0  0  0  0
   16.1647   -7.5323   16.8125 C   0  0  0  0  0  0  0  0  0  0  0  0
   15.7369   -7.7009   19.1546 O   0  0  0  0  0  0  0  0  0  0  0  0
   15.2174   -8.0140   17.8982 C   0  0  0  0  0  0  0  0  0  0  0  0
   15.1276   -8.0109   19.8428 H   0  0  0  0  0  0  0  0  0  0  0  0
 25 26  1  0  0  0
 26 24  1  0  0  0
 24 15  1  0  0  0
 15 16  1  0  0  0
 16 17  2  0  0  0
 17 18  1  0  0  0
 18 19  2  0  0  0
 19 20  1  0  0  0
 19 15  1  0  0  0
 20 21  1  0  0  0
 21 22  1  0  0  0
 22 23  1  0  0  0
 23  1  1  0  0  0
 23 18  1  0  0  0
  1  2  1  0  0  0
  2  3  2  0  0  0
  2  5  1  0  0  0
  5  6  2  0  0  0
  6  7  1  0  0  0
  7  8  2  0  0  0
  8  9  1  0  0  0
  9 10  2  0  0  0
 10 11  1  0  0  0
 11 12  2  0  0  0
 12 13  1  0  0  0
 12  7  1  0  0  0
 13  5  1  0  0  0
 25 27  1  0  0  0
  1  4  1  0  0  0
 13 14  1  0  0  0
M  END
>  <minimizedAffinity>
-6.86708

>  <minimizedRMSD>
1.24809

$$$$
CSC028219473 CSSS00028219473 MCULE-4679160199 MolPort-009-162-107 PubChem-18150402 Z238833944


 28 31  0  0  0  0  0  0  0  0999 V2000
   16.7954  -10.5707   14.3195 N   0  0  0  0  0  0  0  0  0  0  0  0
   16.2982   -9.3539   13.6584 C   0  0  0  0  0  0  0  0  0  0  0  0
   16.2252   -9.5778   12.1512 C   0  0  0  0  0  0  0  0  0  0  0  0
   17.5365  -10.0048   11.6717 N   0  0  0  0  0  0  0  0  0  0  0  0
   18.1670  -11.1256   12.3645 C   0  0  0  0  0  0  0  0  0  0  0  0
   18.1609  -10.8509   13.8663 C   0  0  0  0  0  0  0  0  0  0  0  0
   18.1774   -9.2973   10.5929 C   0  0  0  0  0  0  0  0  0  0  0  0
   17.7311   -9.3573    9.2682 C   0  0  0  0  0  0  0  0  0  0  0  0
   16.6892  -10.0085    8.6253 C   0  0  0  0  0  0  0  0  0  0  0  0
   16.7580   -9.6801    7.3071 N   0  0  0  0  0  0  0  0  0  0  0  0
   17.7888   -8.8650    7.1221 N   0  0  0  0  0  0  0  0  0  0  0  0
   18.1705   -8.2991    5.8400 C   0  0  0  0  0  0  0  0  0  0  0  0
   18.3840   -8.6634    8.3014 C   0  0  0  0  0  0  0  0  0  0  0  0
   19.4703   -7.8955    8.5554 N   0  0  0  0  0  0  0  0  0  0  0  0
   19.9171   -7.8285    9.8442 C   0  0  0  0  0  0  0  0  0  0  0  0
   19.2772   -8.5196   10.8405 N   0  0  0  0  0  0  0  0  0  0  0  0
   18.0793  -10.9769   16.4426 C   0  0  0  0  0  0  0  0  0  0  0  0
   16.8156  -10.4182   15.7842 C   0  0  0  0  0  0  0  0  0  0  0  0
   16.5592   -9.0022   16.2145 C   0  0  0  0  0  0  0  0  0  0  0  0
   16.9232   -8.0350   15.4914 O   0  0  0  0  0  0  0  0  0  0  0  0
   15.8798   -8.7600   17.4496 N   0  0  0  0  0  0  0  0  0  0  0  0
   15.6228   -9.5319   18.0041 H   0  0  0  0  0  0  0  0  0  0  0  0
   15.5510   -7.4227   17.9237 C   0  0  0  0  0  0  0  0  0  0  0  0
   14.3239   -7.4580   18.7696 C   0  0  0  0  0  0  0  0  0  0  0  0
   14.2841   -7.7512   20.1223 C   0  0  0  0  0  0  0  0  0  0  0  0
   12.9793   -7.7340   20.6374 C   0  0  0  0  0  0  0  0  0  0  0  0
   11.9927   -7.4344   19.6992 C   0  0  0  0  0  0  0  0  0  0  0  0
   12.7643   -7.1914   18.2233 S   0  0  0  0  0  0  0  0  0  0  0  0
 18 17  1  0  0  0
 18  1  1  0  0  0
 18 19  1  0  0  0
  1  2  1  0  0  0
  2  3  1  0  0  0
  3  4  1  0  0  0
  4  5  1  0  0  0
  4  7  1  0  0  0
  5  6  1  0  0  0
  6  1  1  0  0  0
  7  8  2  0  0  0
  8  9  1  0  0  0
  9 10  2  0  0  0
 10 11  1  0  0  0
 11 12  1  0  0  0
 11 13  1  0  0  0
 13 14  2  0  0  0
 13  8  1  0  0  0
 14 15  1  0  0  0
 15 16  2  0  0  0
 16  7  1  0  0  0
 19 20  2  0  0  0
 19 21  1  0  0  0
 21 23  1  0  0  0
 23 24  1  0  0  0
 24 25  2  0  0  0
 25 26  1  0  0  0
 26 27  2  0  0  0
 27 28  1  0  0  0
 28 24  1  0  0  0
 21 22  1  0  0  0
M  END
>  <minimizedAffinity>
-6.84809

>  <minimizedRMSD>
1.77033

$$$$
CSSS00159885068 MCULE-4152598911 MolPort-035-377-085 PubChem-136282677


 26 28  0  0  0  0  0  0  0  0999 V2000
   15.5417   -9.6542   12.7789 N   0  0  0  0  0  0  0  0  0  0  0  0
   16.0092   -9.7670   14.1225 C   0  0  0  0  0  0  0  0  0  0  0  0
   16.7839  -10.7026   14.4567 O   0  0  0  0  0  0  0  0  0  0  0  0
   14.9424   -8.9097   12.5428 H   0  0  0  0  0  0  0  0  0  0  0  0
   15.9237  -10.6055   11.7486 C   0  0  0  0  0  0  0  0  0  0  0  0
   18.7688   -9.4583   12.0325 C   0  0  0  0  0  0  0  0  0  0  0  0
   17.9310   -9.3955   10.8445 N   0  0  0  0  0  0  0  0  0  0  0  0
   16.6842   -9.9013   10.6772 C   0  0  0  0  0  0  0  0  0  0  0  0
   16.1609   -9.6518    9.4476 N   0  0  0  0  0  0  0  0  0  0  0  0
   17.1484   -8.9703    8.8353 C   0  0  0  0  0  0  0  0  0  0  0  0
   17.1494   -8.4597    7.5397 C   0  0  0  0  0  0  0  0  0  0  0  0
   18.3008   -7.7691    7.1163 C   0  0  0  0  0  0  0  0  0  0  0  0
   19.4038   -7.6073    7.9854 C   0  0  0  0  0  0  0  0  0  0  0  0
   19.3708   -8.1339    9.2901 C   0  0  0  0  0  0  0  0  0  0  0  0
   18.2151   -8.8130    9.6733 C   0  0  0  0  0  0  0  0  0  0  0  0
   15.6069   -8.7490   15.1283 C   0  0  0  0  0  0  0  0  0  0  0  0
   16.8121   -8.7202   16.4865 S   0  0  0  0  0  0  0  0  0  0  0  0
   15.6073   -8.0814   17.6401 C   0  0  0  0  0  0  0  0  0  0  0  0
   14.3873   -7.6801   17.1950 N   0  0  0  0  0  0  0  0  0  0  0  0
   13.4587   -7.1899   18.0570 C   0  0  0  0  0  0  0  0  0  0  0  0
   12.1301   -6.7577   17.5507 C   0  0  0  0  0  0  0  0  0  0  0  0
   13.7524   -7.0920   19.4165 C   0  0  0  0  0  0  0  0  0  0  0  0
   15.0100   -7.5064   19.8533 C   0  0  0  0  0  0  0  0  0  0  0  0
   15.3086   -7.4310   21.0730 O   0  0  0  0  0  0  0  0  0  0  0  0
   15.9129   -7.9915   18.9616 N   0  0  0  0  0  0  0  0  0  0  0  0
   16.7995   -8.2815   19.2764 H   0  0  0  0  0  0  0  0  0  0  0  0
  6  7  1  0  0  0
  7  8  1  0  0  0
  8  5  1  0  0  0
  8  9  2  0  0  0
  5  1  1  0  0  0
  1  2  1  0  0  0
  2  3  2  0  0  0
  2 16  1  0  0  0
 16 17  1  0  0  0
 17 18  1  0  0  0
 18 19  2  0  0  0
 19 20  1  0  0  0
 20 21  1  0  0  0
 20 22  2  0  0  0
 22 23  1  0  0  0
 23 24  2  0  0  0
 23 25  1  0  0  0
 25 18  1  0  0  0
  9 10  1  0  0  0
 10 11  2  0  0  0
 11 12  1  0  0  0
 12 13  2  0  0  0
 13 14  1  0  0  0
 14 15  2  0  0  0
 15  7  1  0  0  0
 15 10  1  0  0  0
  1  4  1  0  0  0
 25 26  1  0  0  0
M  END
>  <minimizedAffinity>
-6.83428

>  <minimizedRMSD>
1.58500

$$$$
CSC026802196 12530519 CSSS00026802196 JNYQAXMDKJKTTL-UHFFFAOYSA-N MCULE-6738934721 MolPort-005-776-541 Z70903072 ZINC000012530519


 24 27  0  0  0  0  0  0  0  0999 V2000
   18.3569  -12.0910   13.4309 O   0  0  0  0  0  0  0  0  0  0  0  0
   17.7832  -10.9677   13.4020 C   0  0  0  0  0  0  0  0  0  0  0  0
   17.5625  -10.3109   12.1516 N   0  0  0  0  0  0  0  0  0  0  0  0
   17.1101   -9.4365   12.1458 H   0  0  0  0  0  0  0  0  0  0  0  0
   17.3418  -10.3327   14.6559 C   0  0  0  0  0  0  0  0  0  0  0  0
   16.4524   -9.2351   14.6189 C   0  0  0  0  0  0  0  0  0  0  0  0
   16.0733   -8.6790   15.8356 C   0  0  0  0  0  0  0  0  0  0  0  0
   16.5242   -9.1517   17.0241 C   0  0  0  0  0  0  0  0  0  0  0  0
   15.9873   -8.4170   18.0077 N   0  0  0  0  0  0  0  0  0  0  0  0
   15.2221   -7.5142   17.3954 N   0  0  0  0  0  0  0  0  0  0  0  0
   15.2522   -7.6464   16.0700 N   0  0  0  0  0  0  0  0  0  0  0  0
   17.3994  -10.2278   17.1155 C   0  0  0  0  0  0  0  0  0  0  0  0
   17.8087  -10.8208   15.9052 C   0  0  0  0  0  0  0  0  0  0  0  0
   16.1281   -8.5220   18.9764 H   0  0  0  0  0  0  0  0  0  0  0  0
   17.9848  -10.8931   10.8887 C   0  0  0  0  0  0  0  0  0  0  0  0
   17.4021  -10.1127    9.7609 C   0  0  0  0  0  0  0  0  0  0  0  0
   18.0070   -9.0914    9.1368 N   0  0  0  0  0  0  0  0  0  0  0  0
   17.0959   -8.6704    8.2515 C   0  0  0  0  0  0  0  0  0  0  0  0
   17.3576   -7.6006    7.4008 C   0  0  0  0  0  0  0  0  0  0  0  0
   18.6174   -6.9869    7.5159 C   0  0  0  0  0  0  0  0  0  0  0  0
   19.5592   -7.4480    8.4590 C   0  0  0  0  0  0  0  0  0  0  0  0
   19.2328   -8.5318    9.2886 C   0  0  0  0  0  0  0  0  0  0  0  0
   15.9611   -9.3904    8.3194 N   0  0  0  0  0  0  0  0  0  0  0  0
   16.1536  -10.2962    9.2756 N   0  0  0  0  0  0  0  0  0  0  0  0
  1  2  2  0  0  0
  2  5  1  0  0  0
  5  6  2  0  0  0
  6  7  1  0  0  0
  7  8  2  0  0  0
  8  9  1  0  0  0
  9 10  1  0  0  0
 10 11  2  0  0  0
  8 12  1  0  0  0
 12 13  2  0  0  0
  2  3  1  0  0  0
  3 15  1  0  0  0
 15 16  1  0  0  0
 16 17  1  0  0  0
 17 18  1  0  0  0
 18 19  1  0  0  0
 19 20  2  0  0  0
 20 21  1  0  0  0
 21 22  2  0  0  0
 18 23  2  0  0  0
 23 24  1  0  0  0
 13  5  1  0  0  0
 24 16  2  0  0  0
 11  7  1  0  0  0
 22 17  1  0  0  0
  9 14  1  0  0  0
  3  4  1  0  0  0
M  END
>  <minimizedAffinity>
-6.83374

>  <minimizedRMSD>
0.40099

$$$$
299790921 CSSS00160134870 MCULE-7869050339 MolPort-039-123-709 PubChem-118794379 ZINC000299790921


 26 28  0  0  0  0  0  0  0  0999 V2000
   15.7994  -10.5942   10.6164 C   0  0  0  0  0  0  0  0  0  0  0  0
   15.8189   -9.5979   11.7598 C   0  0  0  0  0  0  0  0  0  0  0  0
   16.5433   -9.5248   14.1726 C   0  0  0  0  0  0  0  0  0  0  0  0
   16.2438   -8.3023   14.2448 O   0  0  0  0  0  0  0  0  0  0  0  0
   16.3530  -10.2378   12.9494 N   0  0  0  0  0  0  0  0  0  0  0  0
   16.5913  -11.1923   12.9115 H   0  0  0  0  0  0  0  0  0  0  0  0
   18.4460  -12.1121   14.2687 C   0  0  0  0  0  0  0  0  0  0  0  0
   17.9056  -11.3173   15.4062 C   0  0  0  0  0  0  0  0  0  0  0  0
   18.1534  -11.5877   16.6983 N   0  0  0  0  0  0  0  0  0  0  0  0
   17.5081  -10.6714   17.4068 N   0  0  0  0  0  0  0  0  0  0  0  0
   16.8558   -9.8234   16.6236 N   0  0  0  0  0  0  0  0  0  0  0  0
   17.0892  -10.2076   15.3559 C   0  0  0  0  0  0  0  0  0  0  0  0
   17.5126  -10.6264   18.3903 H   0  0  0  0  0  0  0  0  0  0  0  0
   15.4430   -9.9008    9.3114 C   0  0  0  0  0  0  0  0  0  0  0  0
   16.6478   -9.2819    8.6833 C   0  0  0  0  0  0  0  0  0  0  0  0
   16.8196   -9.2309    7.3373 N   0  0  0  0  0  0  0  0  0  0  0  0
   17.9955   -8.5951    7.2177 C   0  0  0  0  0  0  0  0  0  0  0  0
   18.6776   -8.2630    6.0449 C   0  0  0  0  0  0  0  0  0  0  0  0
   18.1115   -8.6177    4.7087 C   0  0  0  0  0  0  0  0  0  0  0  0
   19.9128   -7.5844    6.1791 C   0  0  0  0  0  0  0  0  0  0  0  0
   20.7126   -7.1893    4.9845 C   0  0  0  0  0  0  0  0  0  0  0  0
   20.4113   -7.2679    7.4627 C   0  0  0  0  0  0  0  0  0  0  0  0
   19.6951   -7.6184    8.6211 C   0  0  0  0  0  0  0  0  0  0  0  0
   18.4857   -8.2849    8.4500 C   0  0  0  0  0  0  0  0  0  0  0  0
   17.6461   -8.7080    9.4050 N   0  0  0  0  0  0  0  0  0  0  0  0
   17.7311   -8.6243   10.3823 H   0  0  0  0  0  0  0  0  0  0  0  0
  7  8  1  0  0  0
  8  9  2  0  0  0
  9 10  1  0  0  0
 10 11  1  0  0  0
 11 12  2  0  0  0
 12  3  1  0  0  0
  3  4  2  0  0  0
  3  5  1  0  0  0
  5  2  1  0  0  0
  2  1  1  0  0  0
  1 14  1  0  0  0
 14 15  1  0  0  0
 15 16  2  0  0  0
 16 17  1  0  0  0
 17 18  2  0  0  0
 18 19  1  0  0  0
 18 20  1  0  0  0
 20 21  1  0  0  0
 20 22  2  0  0  0
 22 23  1  0  0  0
 23 24  2  0  0  0
 24 25  1  0  0  0
 12  8  1  0  0  0
 25 15  1  0  0  0
 24 17  1  0  0  0
 10 13  1  0  0  0
  5  6  1  0  0  0
 25 26  1  0  0  0
M  END
>  <minimizedAffinity>
-6.78297

>  <minimizedRMSD>
1.89366

$$$$
CSSS06882617859 Z6739578571


 30 32  0  0  0  0  0  0  0  0999 V2000
   16.3533   -8.3222   14.3238 C   0  0  0  0  0  0  0  0  0  0  0  0
   16.0338   -9.2227   13.2296 N   0  0  0  0  0  0  0  0  0  0  0  0
   17.0314  -10.0203   12.5928 C   0  0  0  0  0  0  0  0  0  0  0  0
   18.2348   -9.9582   12.9606 O   0  0  0  0  0  0  0  0  0  0  0  0
   15.1019   -9.2847   12.9183 H   0  0  0  0  0  0  0  0  0  0  0  0
   16.6526  -10.9055   11.4559 C   0  0  0  0  0  0  0  0  0  0  0  0
   16.6304  -10.1448   10.2152 N   0  0  0  0  0  0  0  0  0  0  0  0
   15.5949  -10.0396    9.3479 C   0  0  0  0  0  0  0  0  0  0  0  0
   15.8760   -9.2098    8.3064 N   0  0  0  0  0  0  0  0  0  0  0  0
   17.1300   -8.7936    8.5639 C   0  0  0  0  0  0  0  0  0  0  0  0
   17.9056   -7.9134    7.8138 C   0  0  0  0  0  0  0  0  0  0  0  0
   19.1954   -7.6170    8.2945 C   0  0  0  0  0  0  0  0  0  0  0  0
   19.6685   -8.1970    9.4940 C   0  0  0  0  0  0  0  0  0  0  0  0
   21.0324   -7.8691    9.9841 C   0  0  0  0  0  0  0  0  0  0  0  0
   18.8568   -9.0823   10.2276 C   0  0  0  0  0  0  0  0  0  0  0  0
   17.5877   -9.3527    9.7180 C   0  0  0  0  0  0  0  0  0  0  0  0
   16.4071   -8.9848   16.7191 C   0  0  0  0  0  0  0  0  0  0  0  0
   16.8852   -9.1095   15.4775 C   0  0  0  0  0  0  0  0  0  0  0  0
   15.2951   -8.0446   17.0685 C   0  0  0  0  0  0  0  0  0  0  0  0
   14.2439   -7.0455   19.1451 C   0  0  0  0  0  0  0  0  0  0  0  0
   13.3512   -6.4799   18.4574 O   0  0  0  0  0  0  0  0  0  0  0  0
   15.2556   -7.8311   18.5074 N   0  0  0  0  0  0  0  0  0  0  0  0
   15.9538   -8.2442   19.0651 H   0  0  0  0  0  0  0  0  0  0  0  0
   15.3838   -7.4612   23.9936 C   0  0  0  0  0  0  0  0  0  0  0  0
   14.7449   -7.0779   22.7075 C   0  0  0  0  0  0  0  0  0  0  0  0
   13.6735   -6.2235   22.5720 C   0  0  0  0  0  0  0  0  0  0  0  0
   13.3669   -6.1118   21.2663 N   0  0  0  0  0  0  0  0  0  0  0  0
   14.2450   -6.8927   20.6049 C   0  0  0  0  0  0  0  0  0  0  0  0
   15.1303   -7.5209   21.4617 C   0  0  0  0  0  0  0  0  0  0  0  0
   12.6461   -5.5687   20.8730 H   0  0  0  0  0  0  0  0  0  0  0  0
 24 25  1  0  0  0
 25 26  2  0  0  0
 26 27  1  0  0  0
 27 28  1  0  0  0
 28 29  2  0  0  0
 28 20  1  0  0  0
 20 21  2  0  0  0
 20 22  1  0  0  0
 22 19  1  0  0  0
 19 17  1  0  0  0
 17 18  2  0  0  0
 18  1  1  0  0  0
  1  2  1  0  0  0
  2  3  1  0  0  0
  3  4  2  0  0  0
  3  6  1  0  0  0
  6  7  1  0  0  0
  7  8  1  0  0  0
  8  9  2  0  0  0
  9 10  1  0  0  0
 10 11  2  0  0  0
 11 12  1  0  0  0
 12 13  2  0  0  0
 13 14  1  0  0  0
 13 15  1  0  0  0
 15 16  2  0  0  0
 29 25  1  0  0  0
 16  7  1  0  0  0
 16 10  1  0  0  0
 27 30  1  0  0  0
 22 23  1  0  0  0
  2  5  1  0  0  0
M  END
>  <minimizedAffinity>
-6.78024

>  <minimizedRMSD>
1.70205

$$$$
CSSS00138448505 MCULE-3434921151 MolPort-039-154-101 PubChem-128972814 Z1759887405


 27 30  0  0  0  0  0  0  0  0999 V2000
   17.6936   -9.6509   14.1022 C   0  0  0  0  0  0  0  0  0  0  0  0
   19.1044  -10.1812   14.2089 C   0  0  0  0  0  0  0  0  0  0  0  0
   19.2529  -11.0805   13.0124 C   0  0  0  0  0  0  0  0  0  0  0  0
   17.8450  -11.5401   12.6956 C   0  0  0  0  0  0  0  0  0  0  0  0
   16.9079  -10.6221   13.3439 N   0  0  0  0  0  0  0  0  0  0  0  0
   16.0621   -8.6792   17.0851 C   0  0  0  0  0  0  0  0  0  0  0  0
   16.6566   -9.8110   17.5114 N   0  0  0  0  0  0  0  0  0  0  0  0
   17.2951  -10.2602   16.4748 O   0  0  0  0  0  0  0  0  0  0  0  0
   17.1077   -9.4530   15.4594 C   0  0  0  0  0  0  0  0  0  0  0  0
   16.3211   -8.4113   15.7878 N   0  0  0  0  0  0  0  0  0  0  0  0
   15.5816   -7.6086   19.2986 N   0  0  0  0  0  0  0  0  0  0  0  0
   15.2247   -7.8307   17.9385 C   0  0  0  0  0  0  0  0  0  0  0  0
   14.1856   -7.2943   17.4723 O   0  0  0  0  0  0  0  0  0  0  0  0
   15.0171   -7.0382   19.8688 H   0  0  0  0  0  0  0  0  0  0  0  0
   16.3930   -8.0255   19.6689 H   0  0  0  0  0  0  0  0  0  0  0  0
   16.0734   -9.9428   12.3410 C   0  0  0  0  0  0  0  0  0  0  0  0
   16.8222   -9.4920   11.1160 C   0  0  0  0  0  0  0  0  0  0  0  0
   16.4863   -9.9090    9.8677 N   0  0  0  0  0  0  0  0  0  0  0  0
   17.3806   -9.2697    9.1001 C   0  0  0  0  0  0  0  0  0  0  0  0
   17.5141   -9.3250    7.7144 C   0  0  0  0  0  0  0  0  0  0  0  0
   16.6908  -10.0896    6.9567 F   0  0  0  0  0  0  0  0  0  0  0  0
   18.5357   -8.5590    7.1244 C   0  0  0  0  0  0  0  0  0  0  0  0
   19.3864   -7.7662    7.9272 C   0  0  0  0  0  0  0  0  0  0  0  0
   19.2241   -7.7321    9.3253 C   0  0  0  0  0  0  0  0  0  0  0  0
   18.2017   -8.5050    9.8712 C   0  0  0  0  0  0  0  0  0  0  0  0
   17.8668   -8.6232   11.1632 N   0  0  0  0  0  0  0  0  0  0  0  0
   18.2741   -8.1904   11.9481 H   0  0  0  0  0  0  0  0  0  0  0  0
 11 12  1  0  0  0
 12 13  2  0  0  0
 12  6  1  0  0  0
  6  7  2  0  0  0
  7  8  1  0  0  0
  8  9  1  0  0  0
  9 10  2  0  0  0
  9  1  1  0  0  0
  1  2  1  0  0  0
  2  3  1  0  0  0
  3  4  1  0  0  0
  4  5  1  0  0  0
  5 16  1  0  0  0
 16 17  1  0  0  0
 17 18  2  0  0  0
 18 19  1  0  0  0
 19 20  2  0  0  0
 20 21  1  0  0  0
 20 22  1  0  0  0
 22 23  2  0  0  0
 23 24  1  0  0  0
 24 25  2  0  0  0
 25 26  1  0  0  0
 10  6  1  0  0  0
  5  1  1  0  0  0
 26 17  1  0  0  0
 25 19  1  0  0  0
 11 14  1  0  0  0
 11 15  1  0  0  0
 26 27  1  0  0  0
M  END
>  <minimizedAffinity>
-6.77950

>  <minimizedRMSD>
1.46243

$$$$
CSC069845099 CSSS00069845099


 26 28  0  0  0  0  0  0  0  0999 V2000
   17.5526  -10.8455   13.0787 N   0  0  0  0  0  0  0  0  0  0  0  0
   18.1412   -9.9606   12.1178 C   0  0  0  0  0  0  0  0  0  0  0  0
   19.2538   -9.4237   12.3708 O   0  0  0  0  0  0  0  0  0  0  0  0
   16.6690  -11.2320   12.8810 H   0  0  0  0  0  0  0  0  0  0  0  0
   17.4293   -9.6835   10.8420 C   0  0  0  0  0  0  0  0  0  0  0  0
   17.9949   -8.9561    9.7637 C   0  0  0  0  0  0  0  0  0  0  0  0
   19.2956   -8.4282    9.8106 C   0  0  0  0  0  0  0  0  0  0  0  0
   19.8177   -7.7171    8.7274 C   0  0  0  0  0  0  0  0  0  0  0  0
   19.0462   -7.5233    7.5801 C   0  0  0  0  0  0  0  0  0  0  0  0
   17.7508   -8.0401    7.5131 C   0  0  0  0  0  0  0  0  0  0  0  0
   17.2211   -8.7528    8.5928 C   0  0  0  0  0  0  0  0  0  0  0  0
   15.9599   -9.2493    8.5112 N   0  0  0  0  0  0  0  0  0  0  0  0
   15.4021   -9.9478    9.5321 C   0  0  0  0  0  0  0  0  0  0  0  0
   14.1099  -10.4392    9.4103 O   0  0  0  0  0  0  0  0  0  0  0  0
   16.1235  -10.1733   10.7033 C   0  0  0  0  0  0  0  0  0  0  0  0
   13.6236  -10.2886    8.6236 H   0  0  0  0  0  0  0  0  0  0  0  0
   18.8923  -12.5464   14.1947 C   0  0  0  0  0  0  0  0  0  0  0  0
   18.1999  -11.1997   14.3335 C   0  0  0  0  0  0  0  0  0  0  0  0
   17.1524  -11.2676   15.4331 C   0  0  0  0  0  0  0  0  0  0  0  0
   16.6717   -9.9036   15.8005 C   0  0  0  0  0  0  0  0  0  0  0  0
   17.0933   -8.7733   15.2040 N   0  0  0  0  0  0  0  0  0  0  0  0
   16.4584   -7.7589   15.7642 N   0  0  0  0  0  0  0  0  0  0  0  0
   15.6395   -8.2563   16.7075 C   0  0  0  0  0  0  0  0  0  0  0  0
   14.7543   -7.4164   17.5563 C   0  0  0  0  0  0  0  0  0  0  0  0
   15.7313   -9.6327   16.7757 C   0  0  0  0  0  0  0  0  0  0  0  0
   16.5658   -6.8081   15.5322 H   0  0  0  0  0  0  0  0  0  0  0  0
 17 18  1  0  0  0
 18 19  1  0  0  0
 19 20  1  0  0  0
 20 21  2  0  0  0
 21 22  1  0  0  0
 22 23  1  0  0  0
 23 24  1  0  0  0
 23 25  2  0  0  0
 18  1  1  0  0  0
  1  2  1  0  0  0
  2  3  2  0  0  0
  2  5  1  0  0  0
  5  6  1  0  0  0
  6  7  2  0  0  0
  7  8  1  0  0  0
  8  9  2  0  0  0
  9 10  1  0  0  0
 10 11  2  0  0  0
 11 12  1  0  0  0
 12 13  2  0  0  0
 13 14  1  0  0  0
 13 15  1  0  0  0
 25 20  1  0  0  0
 15  5  2  0  0  0
 11  6  1  0  0  0
 22 26  1  0  0  0
  1  4  1  0  0  0
 14 16  1  0  0  0
M  END
>  <minimizedAffinity>
-6.77936

>  <minimizedRMSD>
1.67057

$$$$
CSC026684632 12580706 CSSS00026684632 MCULE-3725453316 MolPort-005-658-428 PubChem-17530826 Z102333162 ZINC000012580706 ZINC12580706


 36 40  0  0  0  0  0  0  0  0999 V2000
   17.5223   -9.9355   14.5313 C   0  0  0  0  0  0  0  0  0  0  0  0
   18.8336   -9.7280   14.9840 C   0  0  0  0  0  0  0  0  0  0  0  0
   19.0670   -9.0811   16.2008 C   0  0  0  0  0  0  0  0  0  0  0  0
   17.9911   -8.6373   16.9737 C   0  0  0  0  0  0  0  0  0  0  0  0
   16.6798   -8.8415   16.5328 C   0  0  0  0  0  0  0  0  0  0  0  0
   16.4487   -9.4864   15.3130 C   0  0  0  0  0  0  0  0  0  0  0  0
   16.4980   -9.9651   12.2340 N   0  0  0  0  0  0  0  0  0  0  0  0
   17.2743  -10.6133   13.2473 C   0  0  0  0  0  0  0  0  0  0  0  0
   17.7437  -11.7660   13.0410 O   0  0  0  0  0  0  0  0  0  0  0  0
   16.1014   -9.0867   12.4348 H   0  0  0  0  0  0  0  0  0  0  0  0
   16.2692  -10.5480   10.9196 C   0  0  0  0  0  0  0  0  0  0  0  0
   19.0290   -9.1950   11.1752 C   0  0  0  0  0  0  0  0  0  0  0  0
   18.1559   -9.1530   10.0121 N   0  0  0  0  0  0  0  0  0  0  0  0
   16.9333   -9.7214    9.8671 C   0  0  0  0  0  0  0  0  0  0  0  0
   16.3824   -9.5115    8.6422 N   0  0  0  0  0  0  0  0  0  0  0  0
   17.3171   -8.7700    8.0171 C   0  0  0  0  0  0  0  0  0  0  0  0
   17.2729   -8.2684    6.7188 C   0  0  0  0  0  0  0  0  0  0  0  0
   18.3796   -7.5198    6.2754 C   0  0  0  0  0  0  0  0  0  0  0  0
   19.4856   -7.2967    7.1268 C   0  0  0  0  0  0  0  0  0  0  0  0
   19.5003   -7.8188    8.4334 C   0  0  0  0  0  0  0  0  0  0  0  0
   18.3864   -8.5530    8.8380 C   0  0  0  0  0  0  0  0  0  0  0  0
   15.3295   -8.2744   17.4968 S   0  0  0  0  0  0  0  0  0  0  0  0
   14.3676   -9.4074   17.7257 O   0  0  0  0  0  0  0  0  0  0  0  0
   14.6323   -7.1600   16.7676 O   0  0  0  0  0  0  0  0  0  0  0  0
   15.9146   -7.7054   19.0238 N   0  0  0  0  0  0  0  0  0  0  0  0
   16.2371   -6.7417   18.9351 H   0  0  0  0  0  0  0  0  0  0  0  0
   14.8142   -7.7743   19.9722 C   0  0  0  0  0  0  0  0  0  0  0  0
   15.1941   -7.0978   21.2431 C   0  0  0  0  0  0  0  0  0  0  0  0
   16.5399   -6.7343   21.4820 C   0  0  0  0  0  0  0  0  0  0  0  0
   16.9038   -6.0854   22.6760 C   0  0  0  0  0  0  0  0  0  0  0  0
   15.8927   -5.8191   23.5958 C   0  0  0  0  0  0  0  0  0  0  0  0
   15.9922   -5.2000   24.8257 O   0  0  0  0  0  0  0  0  0  0  0  0
   14.6811   -5.1514   25.4062 C   0  0  0  0  0  0  0  0  0  0  0  0
   13.8236   -5.7770   24.4408 O   0  0  0  0  0  0  0  0  0  0  0  0
   14.5996   -6.1633   23.3664 C   0  0  0  0  0  0  0  0  0  0  0  0
   14.2012   -6.8061   22.1969 C   0  0  0  0  0  0  0  0  0  0  0  0
 12 13  1  0  0  0
 13 14  1  0  0  0
 14 11  1  0  0  0
 14 15  2  0  0  0
 11  7  1  0  0  0
  7  8  1  0  0  0
  8  9  2  0  0  0
  8  1  1  0  0  0
  1  2  2  0  0  0
  2  3  1  0  0  0
  3  4  2  0  0  0
  4  5  1  0  0  0
  5  6  2  0  0  0
  5 22  1  0  0  0
  6  1  1  0  0  0
 22 23  2  0  0  0
 22 24  2  0  0  0
 22 25  1  0  0  0
 25 27  1  0  0  0
 27 28  1  0  0  0
 28 29  2  0  0  0
 29 30  1  0  0  0
 30 31  2  0  0  0
 31 32  1  0  0  0
 32 33  1  0  0  0
 33 34  1  0  0  0
 34 35  1  0  0  0
 35 36  2  0  0  0
 35 31  1  0  0  0
 36 28  1  0  0  0
 15 16  1  0  0  0
 16 17  2  0  0  0
 17 18  1  0  0  0
 18 19  2  0  0  0
 19 20  1  0  0  0
 20 21  2  0  0  0
 21 13  1  0  0  0
 21 16  1  0  0  0
  7 10  1  0  0  0
 25 26  1  0  0  0
M  END
>  <minimizedAffinity>
-6.77435

>  <minimizedRMSD>
1.95833

$$$$
CSC072175363 CSSS00072175363


 28 30  0  0  0  0  0  0  0  0999 V2000
   17.6467   -9.5305   12.0249 N   0  0  0  0  0  0  0  0  0  0  0  0
   17.3805   -8.7623   12.5801 H   0  0  0  0  0  0  0  0  0  0  0  0
   17.2914   -9.4682   10.6298 C   0  0  0  0  0  0  0  0  0  0  0  0
   18.1133   -8.8740    9.6360 C   0  0  0  0  0  0  0  0  0  0  0  0
   19.3532   -8.2921    9.9360 C   0  0  0  0  0  0  0  0  0  0  0  0
   20.1368   -7.7163    8.9363 C   0  0  0  0  0  0  0  0  0  0  0  0
   19.6910   -7.7133    7.6156 C   0  0  0  0  0  0  0  0  0  0  0  0
   18.4556   -8.2868    7.2807 C   0  0  0  0  0  0  0  0  0  0  0  0
   17.6669   -8.8666    8.2886 C   0  0  0  0  0  0  0  0  0  0  0  0
   16.4692   -9.4230    7.9679 N   0  0  0  0  0  0  0  0  0  0  0  0
   15.6712   -9.9946    8.9032 C   0  0  0  0  0  0  0  0  0  0  0  0
   16.0620  -10.0285   10.2400 C   0  0  0  0  0  0  0  0  0  0  0  0
   15.1516  -10.6675   11.2333 C   0  0  0  0  0  0  0  0  0  0  0  0
   17.9954   -8.2908    5.9583 O   0  0  0  0  0  0  0  0  0  0  0  0
   18.8705   -8.3046    4.8386 C   0  0  0  0  0  0  0  0  0  0  0  0
   18.3562  -10.6052   12.7024 C   0  0  0  0  0  0  0  0  0  0  0  0
   16.6998   -9.7233   15.9906 C   0  0  0  0  0  0  0  0  0  0  0  0
   17.1129  -10.7890   16.7978 C   0  0  0  0  0  0  0  0  0  0  0  0
   17.9321  -11.7918   16.2706 C   0  0  0  0  0  0  0  0  0  0  0  0
   18.3429  -11.7291   14.9357 C   0  0  0  0  0  0  0  0  0  0  0  0
   17.9394  -10.6599   14.1289 C   0  0  0  0  0  0  0  0  0  0  0  0
   17.1137   -9.6612   14.6551 C   0  0  0  0  0  0  0  0  0  0  0  0
   15.6750   -8.4645   16.6605 S   0  0  0  0  0  0  0  0  0  0  0  0
   15.7836   -7.2181   15.8257 O   0  0  0  0  0  0  0  0  0  0  0  0
   14.2470   -8.9319   16.6447 O   0  0  0  0  0  0  0  0  0  0  0  0
   14.9747   -7.6306   18.9979 C   0  0  0  0  0  0  0  0  0  0  0  0
   16.1469   -8.1166   18.2899 N   0  0  0  0  0  0  0  0  0  0  0  0
   16.4966   -8.9635   18.7382 H   0  0  0  0  0  0  0  0  0  0  0  0
 26 27  1  0  0  0
 27 23  1  0  0  0
 23 24  2  0  0  0
 23 25  2  0  0  0
 23 17  1  0  0  0
 17 18  2  0  0  0
 18 19  1  0  0  0
 19 20  2  0  0  0
 20 21  1  0  0  0
 21 16  1  0  0  0
 16  1  1  0  0  0
  1  3  1  0  0  0
  3  4  1  0  0  0
  4  5  2  0  0  0
  5  6  1  0  0  0
  6  7  2  0  0  0
  7  8  1  0  0  0
  8 14  1  0  0  0
 14 15  1  0  0  0
  8  9  2  0  0  0
  9 10  1  0  0  0
 10 11  2  0  0  0
 11 12  1  0  0  0
 12 13  1  0  0  0
 21 22  2  0  0  0
 22 17  1  0  0  0
 12  3  2  0  0  0
  9  4  1  0  0  0
 27 28  1  0  0  0
  1  2  1  0  0  0
M  END
>  <minimizedAffinity>
-6.76584

>  <minimizedRMSD>
0.91448

$$$$
CSC028120418 95449324 CSSS00028120418 MCULE-1182722950 MolPort-028-904-333 PubChem-84594647 Z1546748913 ZINC000095449324 ZINC95449324


 28 31  0  0  0  0  0  0  0  0999 V2000
   17.5607  -10.2986   12.5371 N   0  0  0  0  0  0  0  0  0  0  0  0
   17.9757  -10.9645   11.9425 H   0  0  0  0  0  0  0  0  0  0  0  0
   17.5330  -10.5595   13.9417 C   0  0  0  0  0  0  0  0  0  0  0  0
   18.1616  -11.7055   14.4361 C   0  0  0  0  0  0  0  0  0  0  0  0
   18.1457  -11.9805   15.8056 C   0  0  0  0  0  0  0  0  0  0  0  0
   17.4999  -11.1089   16.6864 C   0  0  0  0  0  0  0  0  0  0  0  0
   16.8636   -9.9539   16.2074 C   0  0  0  0  0  0  0  0  0  0  0  0
   16.8861   -9.6881   14.8301 C   0  0  0  0  0  0  0  0  0  0  0  0
   16.2009   -9.0633   17.1227 N   0  0  0  0  0  0  0  0  0  0  0  0
   16.2626   -9.1636   18.5744 C   0  0  0  0  0  0  0  0  0  0  0  0
   15.4025   -8.0030   19.1135 C   0  0  0  0  0  0  0  0  0  0  0  0
   14.8867   -7.2900   17.9509 N   0  0  0  0  0  0  0  0  0  0  0  0
   15.3835   -7.9512   16.8101 C   0  0  0  0  0  0  0  0  0  0  0  0
   15.1182   -7.5780   15.6371 O   0  0  0  0  0  0  0  0  0  0  0  0
   14.3027   -6.4975   17.9611 H   0  0  0  0  0  0  0  0  0  0  0  0
   17.0020   -9.0910   11.9474 C   0  0  0  0  0  0  0  0  0  0  0  0
   16.4585   -9.9349    9.6338 C   0  0  0  0  0  0  0  0  0  0  0  0
   17.2200   -9.1039   10.4727 C   0  0  0  0  0  0  0  0  0  0  0  0
   18.2227   -8.3029    9.9205 C   0  0  0  0  0  0  0  0  0  0  0  0
   18.4498   -8.3245    8.5457 C   0  0  0  0  0  0  0  0  0  0  0  0
   19.4449   -7.5274    7.9741 C   0  0  0  0  0  0  0  0  0  0  0  0
   19.6572   -7.5639    6.5920 C   0  0  0  0  0  0  0  0  0  0  0  0
   18.8763   -8.3963    5.7823 C   0  0  0  0  0  0  0  0  0  0  0  0
   17.8794   -9.1966    6.3504 C   0  0  0  0  0  0  0  0  0  0  0  0
   17.6622   -9.1646    7.7308 C   0  0  0  0  0  0  0  0  0  0  0  0
   16.6974   -9.9412    8.2905 N   0  0  0  0  0  0  0  0  0  0  0  0
   14.2100  -10.2283   10.6003 C   0  0  0  0  0  0  0  0  0  0  0  0
   15.4623  -10.7487   10.1798 O   0  0  0  0  0  0  0  0  0  0  0  0
 27 28  1  0  0  0
 28 17  1  0  0  0
 17 18  2  0  0  0
 18 16  1  0  0  0
 18 19  1  0  0  0
 16  1  1  0  0  0
  1  3  1  0  0  0
  3  4  2  0  0  0
  4  5  1  0  0  0
  5  6  2  0  0  0
  6  7  1  0  0  0
  7  8  2  0  0  0
  7  9  1  0  0  0
  8  3  1  0  0  0
  9 10  1  0  0  0
 10 11  1  0  0  0
 11 12  1  0  0  0
 12 13  1  0  0  0
 13 14  2  0  0  0
 13  9  1  0  0  0
 19 20  2  0  0  0
 20 21  1  0  0  0
 21 22  2  0  0  0
 22 23  1  0  0  0
 23 24  2  0  0  0
 24 25  1  0  0  0
 25 26  2  0  0  0
 25 20  1  0  0  0
 26 17  1  0  0  0
  1  2  1  0  0  0
 12 15  1  0  0  0
M  END
>  <minimizedAffinity>
-6.76446

>  <minimizedRMSD>
0.51977

$$$$
CSSS01424824436 MolPort-047-840-767 PubChem-166327145 Z4917173989


 25 27  0  0  0  0  0  0  0  0999 V2000
   18.4526   -9.9344   11.9987 N   0  0  0  0  0  0  0  0  0  0  0  0
   19.3448   -9.5188   12.0224 H   0  0  0  0  0  0  0  0  0  0  0  0
   17.6056   -9.6922   10.8747 C   0  0  0  0  0  0  0  0  0  0  0  0
   16.3177  -10.1490   10.8464 N   0  0  0  0  0  0  0  0  0  0  0  0
   15.5044   -9.9168    9.7684 C   0  0  0  0  0  0  0  0  0  0  0  0
   13.8615  -10.5196    9.7730 Cl  0  0  0  0  0  0  0  0  0  0  0  0
   15.9684   -9.2175    8.6900 N   0  0  0  0  0  0  0  0  0  0  0  0
   17.2450   -8.7636    8.7160 C   0  0  0  0  0  0  0  0  0  0  0  0
   17.8501   -8.0661    7.7465 N   0  0  0  0  0  0  0  0  0  0  0  0
   19.1008   -7.8446    8.2263 C   0  0  0  0  0  0  0  0  0  0  0  0
   19.2819   -8.4024    9.4965 C   0  0  0  0  0  0  0  0  0  0  0  0
   18.0662   -8.9825    9.7728 C   0  0  0  0  0  0  0  0  0  0  0  0
   17.4741   -7.7794    6.8830 H   0  0  0  0  0  0  0  0  0  0  0  0
   18.0375  -10.7762   13.1093 C   0  0  0  0  0  0  0  0  0  0  0  0
   17.1976   -8.7759   16.2191 C   0  0  0  0  0  0  0  0  0  0  0  0
   18.4760   -8.5849   16.7633 C   0  0  0  0  0  0  0  0  0  0  0  0
   19.6029   -9.1085   16.1228 C   0  0  0  0  0  0  0  0  0  0  0  0
   19.4595   -9.8288   14.9342 C   0  0  0  0  0  0  0  0  0  0  0  0
   18.1885  -10.0308   14.3877 C   0  0  0  0  0  0  0  0  0  0  0  0
   17.0623   -9.5000   15.0252 C   0  0  0  0  0  0  0  0  0  0  0  0
   14.7860   -7.6745   19.0289 C   0  0  0  0  0  0  0  0  0  0  0  0
   15.9355   -8.2116   18.3205 N   0  0  0  0  0  0  0  0  0  0  0  0
   16.0105   -8.2202   16.8924 C   0  0  0  0  0  0  0  0  0  0  0  0
   15.0590   -7.7515   16.2091 O   0  0  0  0  0  0  0  0  0  0  0  0
   16.6860   -8.5809   18.8398 H   0  0  0  0  0  0  0  0  0  0  0  0
 21 22  1  0  0  0
 22 23  1  0  0  0
 23 24  2  0  0  0
 23 15  1  0  0  0
 15 16  2  0  0  0
 16 17  1  0  0  0
 17 18  2  0  0  0
 18 19  1  0  0  0
 19 14  1  0  0  0
 14  1  1  0  0  0
  1  3  1  0  0  0
  3  4  2  0  0  0
  4  5  1  0  0  0
  5  6  1  0  0  0
  5  7  2  0  0  0
  7  8  1  0  0  0
  8  9  1  0  0  0
  9 10  1  0  0  0
 10 11  2  0  0  0
 11 12  1  0  0  0
 19 20  2  0  0  0
 20 15  1  0  0  0
 12  3  1  0  0  0
 12  8  2  0  0  0
 22 25  1  0  0  0
  1  2  1  0  0  0
  9 13  1  0  0  0
M  END
>  <minimizedAffinity>
-6.76295

>  <minimizedRMSD>
1.42547

$$$$
CSSS14948283917


 33 37  0  0  0  0  0  0  0  0999 V2000
   16.4825   -8.4178   16.5582 C   0  0  0  0  0  0  0  0  0  0  0  0
   17.8823   -8.4546   17.1551 C   0  0  0  0  0  0  0  0  0  0  0  0
   18.8585   -8.9411   16.1033 C   0  0  0  0  0  0  0  0  0  0  0  0
   18.5266  -10.3828   15.7615 C   0  0  0  0  0  0  0  0  0  0  0  0
   17.0956  -10.5385   15.2284 C   0  0  0  0  0  0  0  0  0  0  0  0
   16.0176   -9.7881   16.0242 C   0  0  0  0  0  0  0  0  0  0  0  0
   14.9409   -9.5301   14.9782 C   0  0  0  0  0  0  0  0  0  0  0  0
   15.6738   -9.4344   13.6473 C   0  0  0  0  0  0  0  0  0  0  0  0
   16.9495  -10.0985   13.8509 N   0  0  0  0  0  0  0  0  0  0  0  0
   17.7288  -10.6355   12.7674 C   0  0  0  0  0  0  0  0  0  0  0  0
   18.3823  -11.6996   12.9467 O   0  0  0  0  0  0  0  0  0  0  0  0
   17.7982   -9.9642   11.4504 C   0  0  0  0  0  0  0  0  0  0  0  0
   18.8941   -9.1414   11.1087 C   0  0  0  0  0  0  0  0  0  0  0  0
   18.8922   -8.5664    9.8443 C   0  0  0  0  0  0  0  0  0  0  0  0
   17.8821   -8.7923    8.9721 C   0  0  0  0  0  0  0  0  0  0  0  0
   16.8206   -9.5833    9.2624 N   0  0  0  0  0  0  0  0  0  0  0  0
   16.7692  -10.1749   10.4944 C   0  0  0  0  0  0  0  0  0  0  0  0
   18.1234   -8.1314    7.8379 N   0  0  0  0  0  0  0  0  0  0  0  0
   17.3103   -8.0901    6.6358 C   0  0  0  0  0  0  0  0  0  0  0  0
   19.3047   -7.5017    8.0498 C   0  0  0  0  0  0  0  0  0  0  0  0
   19.8107   -7.7525    9.2911 N   0  0  0  0  0  0  0  0  0  0  0  0
   15.8596   -7.8744   18.9537 N   0  0  0  0  0  0  0  0  0  0  0  0
   15.5153   -7.8815   17.5624 C   0  0  0  0  0  0  0  0  0  0  0  0
   14.4047   -7.4370   17.1681 O   0  0  0  0  0  0  0  0  0  0  0  0
   16.7426   -8.2311   19.2033 H   0  0  0  0  0  0  0  0  0  0  0  0
   15.4348   -7.0682   21.2798 C   0  0  0  0  0  0  0  0  0  0  0  0
   15.0225   -7.3901   20.0097 C   0  0  0  0  0  0  0  0  0  0  0  0
   13.6600   -7.1413   19.9645 C   0  0  0  0  0  0  0  0  0  0  0  0
   13.2891   -6.6786   21.1801 N   0  0  0  0  0  0  0  0  0  0  0  0
   14.3595   -6.6347   21.9586 N   0  0  0  0  0  0  0  0  0  0  0  0
   14.3348   -6.1742   23.3364 C   0  0  0  0  0  0  0  0  0  0  0  0
   17.7222   -6.1962   20.9943 C   0  0  0  0  0  0  0  0  0  0  0  0
   16.8321   -7.1167   21.8057 C   0  0  0  0  0  0  0  0  0  0  0  0
 32 33  1  0  0  0
 33 26  1  0  0  0
 26 27  2  0  0  0
 27 22  1  0  0  0
 22 23  1  0  0  0
 23 24  2  0  0  0
 23  1  1  0  0  0
  1  2  1  0  0  0
  2  3  1  0  0  0
  3  4  1  0  0  0
  4  5  1  0  0  0
  5  6  1  0  0  0
  6  7  1  0  0  0
  7  8  1  0  0  0
  8  9  1  0  0  0
  9 10  1  0  0  0
 10 11  2  0  0  0
 10 12  1  0  0  0
 12 13  2  0  0  0
 13 14  1  0  0  0
 14 15  2  0  0  0
 15 16  1  0  0  0
 16 17  2  0  0  0
 15 18  1  0  0  0
 18 19  1  0  0  0
 18 20  1  0  0  0
 20 21  2  0  0  0
 27 28  1  0  0  0
 28 29  2  0  0  0
 29 30  1  0  0  0
 30 31  1  0  0  0
 30 26  1  0  0  0
  6  1  1  0  0  0
 17 12  1  0  0  0
  9  5  1  0  0  0
 21 14  1  0  0  0
 22 25  1  0  0  0
M  END
>  <minimizedAffinity>
-6.76047

>  <minimizedRMSD>
2.00642

$$$$
CSSS02495370902 MCULE-1939492187 MolPort-047-570-087 PubChem-154878397 Z4635150491


 29 31  0  0  0  0  0  0  0  0999 V2000
   17.9363  -10.7664   13.3067 C   0  0  0  0  0  0  0  0  0  0  0  0
   17.0788   -8.6817   16.3555 C   0  0  0  0  0  0  0  0  0  0  0  0
   18.3512   -8.4981   16.9161 C   0  0  0  0  0  0  0  0  0  0  0  0
   19.4797   -9.0543   16.3067 C   0  0  0  0  0  0  0  0  0  0  0  0
   19.3437   -9.8000   15.1327 C   0  0  0  0  0  0  0  0  0  0  0  0
   18.0785   -9.9947   14.5705 C   0  0  0  0  0  0  0  0  0  0  0  0
   16.9509   -9.4313   15.1768 C   0  0  0  0  0  0  0  0  0  0  0  0
   15.8070   -8.0203   18.4220 N   0  0  0  0  0  0  0  0  0  0  0  0
   15.8907   -8.0913   16.9960 C   0  0  0  0  0  0  0  0  0  0  0  0
   14.9461   -7.6473   16.2870 O   0  0  0  0  0  0  0  0  0  0  0  0
   16.5521   -8.3711   18.9614 H   0  0  0  0  0  0  0  0  0  0  0  0
   14.6566   -7.4467   19.0999 C   0  0  0  0  0  0  0  0  0  0  0  0
   13.3859   -8.0094   18.4905 C   0  0  0  0  0  0  0  0  0  0  0  0
   13.3867   -7.5208   21.2443 C   0  0  0  0  0  0  0  0  0  0  0  0
   14.7243   -7.7848   20.5787 C   0  0  0  0  0  0  0  0  0  0  0  0
   18.0045   -9.8623   12.1702 N   0  0  0  0  0  0  0  0  0  0  0  0
   18.7455   -9.2160   12.1191 H   0  0  0  0  0  0  0  0  0  0  0  0
   17.0311   -9.8819   11.1256 C   0  0  0  0  0  0  0  0  0  0  0  0
   17.3545   -9.4563    9.8437 C   0  0  0  0  0  0  0  0  0  0  0  0
   18.8009   -8.8685    9.2251 S   0  0  0  0  0  0  0  0  0  0  0  0
   18.1241   -8.6706    7.6775 C   0  0  0  0  0  0  0  0  0  0  0  0
   16.8197   -9.0446    7.6294 N   0  0  0  0  0  0  0  0  0  0  0  0
   16.4044   -9.4805    8.8445 C   0  0  0  0  0  0  0  0  0  0  0  0
   15.1458   -9.9183    9.0975 N   0  0  0  0  0  0  0  0  0  0  0  0
   14.8237  -10.3375   10.3562 C   0  0  0  0  0  0  0  0  0  0  0  0
   15.7580  -10.3178   11.3550 N   0  0  0  0  0  0  0  0  0  0  0  0
   18.8329   -8.1672    6.5381 N   0  0  0  0  0  0  0  0  0  0  0  0
   20.0073   -7.3263    6.6975 C   0  0  0  0  0  0  0  0  0  0  0  0
   18.3895   -8.4889    5.1925 C   0  0  0  0  0  0  0  0  0  0  0  0
 14 15  1  0  0  0
 15 12  1  0  0  0
 12 13  1  0  0  0
 12  8  1  0  0  0
  8  9  1  0  0  0
  9 10  2  0  0  0
  9  2  1  0  0  0
  2  3  2  0  0  0
  3  4  1  0  0  0
  4  5  2  0  0  0
  5  6  1  0  0  0
  6  1  1  0  0  0
  1 16  1  0  0  0
 16 18  1  0  0  0
 18 19  2  0  0  0
 19 20  1  0  0  0
 20 21  1  0  0  0
 21 22  2  0  0  0
 22 23  1  0  0  0
 23 24  2  0  0  0
 24 25  1  0  0  0
 25 26  2  0  0  0
 21 27  1  0  0  0
 27 28  1  0  0  0
 27 29  1  0  0  0
  6  7  2  0  0  0
  7  2  1  0  0  0
 26 18  1  0  0  0
 23 19  1  0  0  0
  8 11  1  0  0  0
 16 17  1  0  0  0
M  END
>  <minimizedAffinity>
-6.76047

>  <minimizedRMSD>
1.99090

$$$$
CSSS00159568225 MCULE-6277825315 MolPort-005-147-071 PubChem-45243858


 28 32  0  0  0  0  0  0  0  0999 V2000
   17.8192   -9.9505   12.2312 N   0  0  0  0  0  0  0  0  0  0  0  0
   16.9541   -8.9403   12.8420 C   0  0  0  0  0  0  0  0  0  0  0  0
   16.0323   -9.5878   13.8723 C   0  0  0  0  0  0  0  0  0  0  0  0
   16.8821  -10.3750   14.8702 C   0  0  0  0  0  0  0  0  0  0  0  0
   18.0121  -11.2294   14.3154 C   0  0  0  0  0  0  0  0  0  0  0  0
   18.7561  -10.4310   13.2480 C   0  0  0  0  0  0  0  0  0  0  0  0
   16.0687  -11.0684   15.9329 C   0  0  0  0  0  0  0  0  0  0  0  0
   17.0183   -9.9380   16.3273 C   0  0  0  0  0  0  0  0  0  0  0  0
   16.2508   -8.6923   16.6531 C   0  0  0  0  0  0  0  0  0  0  0  0
   16.1895   -7.7562   15.8112 O   0  0  0  0  0  0  0  0  0  0  0  0
   15.6312   -8.5534   17.9347 N   0  0  0  0  0  0  0  0  0  0  0  0
   15.6890   -9.3031   18.5701 H   0  0  0  0  0  0  0  0  0  0  0  0
   14.9186   -7.3502   18.3392 C   0  0  0  0  0  0  0  0  0  0  0  0
   14.4068   -7.4976   19.7311 C   0  0  0  0  0  0  0  0  0  0  0  0
   13.0792   -7.4595   20.0938 C   0  0  0  0  0  0  0  0  0  0  0  0
   13.0883   -7.6286   21.4675 C   0  0  0  0  0  0  0  0  0  0  0  0
   14.4160   -7.7553   21.8441 C   0  0  0  0  0  0  0  0  0  0  0  0
   15.1728   -7.6714   20.7773 O   0  0  0  0  0  0  0  0  0  0  0  0
   18.6067   -9.2677   11.2195 C   0  0  0  0  0  0  0  0  0  0  0  0
   17.2799   -8.7289    7.9452 C   0  0  0  0  0  0  0  0  0  0  0  0
   17.6110   -7.9501    6.5067 S   0  0  0  0  0  0  0  0  0  0  0  0
   19.0328   -7.2362    7.1575 C   0  0  0  0  0  0  0  0  0  0  0  0
   19.1863   -7.6535    8.4932 C   0  0  0  0  0  0  0  0  0  0  0  0
   18.1813   -8.4753    8.8685 N   0  0  0  0  0  0  0  0  0  0  0  0
   17.8252   -9.1707    9.9509 C   0  0  0  0  0  0  0  0  0  0  0  0
   16.6665   -9.8615    9.6003 C   0  0  0  0  0  0  0  0  0  0  0  0
   15.9223  -10.8079   10.4754 C   0  0  0  0  0  0  0  0  0  0  0  0
   16.3063   -9.5839    8.3154 N   0  0  0  0  0  0  0  0  0  0  0  0
 20 21  1  0  0  0
 21 22  1  0  0  0
 22 23  2  0  0  0
 23 24  1  0  0  0
 24 25  1  0  0  0
 25 26  2  0  0  0
 26 27  1  0  0  0
 26 28  1  0  0  0
 25 19  1  0  0  0
 19  1  1  0  0  0
  1  2  1  0  0  0
  2  3  1  0  0  0
  3  4  1  0  0  0
  4  5  1  0  0  0
  5  6  1  0  0  0
  4  7  1  0  0  0
  7  8  1  0  0  0
  8  9  1  0  0  0
  9 10  2  0  0  0
  9 11  1  0  0  0
 11 13  1  0  0  0
 13 14  1  0  0  0
 14 15  2  0  0  0
 15 16  1  0  0  0
 16 17  2  0  0  0
 17 18  1  0  0  0
 24 20  1  0  0  0
  6  1  1  0  0  0
 18 14  1  0  0  0
 28 20  2  0  0  0
  8  4  1  0  0  0
 11 12  1  0  0  0
M  END
>  <minimizedAffinity>
-6.75420

>  <minimizedRMSD>
1.71256

$$$$
CSC027078417 31497988 CSSS00027078417 MCULE-6106704911 MolPort-009-141-363 PubChem-38715434 Z146409726 ZINC000031497988


 28 31  0  0  0  0  0  0  0  0999 V2000
   18.7863   -9.8181   12.1389 N   0  0  0  0  0  0  0  0  0  0  0  0
   17.5480  -10.2830   12.6781 C   0  0  0  0  0  0  0  0  0  0  0  0
   16.5974  -10.5570   11.8994 O   0  0  0  0  0  0  0  0  0  0  0  0
   19.5175   -9.5916   12.7580 H   0  0  0  0  0  0  0  0  0  0  0  0
   17.3922  -10.4383   14.1432 C   0  0  0  0  0  0  0  0  0  0  0  0
   16.8164   -9.5659   15.0635 C   0  0  0  0  0  0  0  0  0  0  0  0
   16.9249  -10.1754   16.2833 C   0  0  0  0  0  0  0  0  0  0  0  0
   16.4632   -9.6072   17.4229 N   0  0  0  0  0  0  0  0  0  0  0  0
   15.8673   -8.3825   17.3450 C   0  0  0  0  0  0  0  0  0  0  0  0
   15.7404   -7.7482   16.1392 N   0  0  0  0  0  0  0  0  0  0  0  0
   16.2016   -8.3119   14.9856 C   0  0  0  0  0  0  0  0  0  0  0  0
   16.0638   -7.7029   13.8943 O   0  0  0  0  0  0  0  0  0  0  0  0
   17.5134  -11.3393   16.1909 O   0  0  0  0  0  0  0  0  0  0  0  0
   17.8071  -11.5291   14.9197 C   0  0  0  0  0  0  0  0  0  0  0  0
   18.4936  -12.7578   14.4301 C   0  0  0  0  0  0  0  0  0  0  0  0
   15.3067   -6.8651   16.1033 H   0  0  0  0  0  0  0  0  0  0  0  0
   19.0072   -9.6668   10.7095 C   0  0  0  0  0  0  0  0  0  0  0  0
   18.1539   -8.5298   10.1685 C   0  0  0  0  0  0  0  0  0  0  0  0
   15.7840  -10.1308    9.0209 C   0  0  0  0  0  0  0  0  0  0  0  0
   16.8371   -9.4497    8.2159 C   0  0  0  0  0  0  0  0  0  0  0  0
   17.8577   -8.7371    8.7551 N   0  0  0  0  0  0  0  0  0  0  0  0
   18.5625   -8.3143    7.6970 C   0  0  0  0  0  0  0  0  0  0  0  0
   17.9597   -8.7669    6.5586 C   0  0  0  0  0  0  0  0  0  0  0  0
   18.4715   -8.4867    5.2942 C   0  0  0  0  0  0  0  0  0  0  0  0
   19.6450   -7.7118    5.2272 C   0  0  0  0  0  0  0  0  0  0  0  0
   20.2681   -7.2455    6.4070 C   0  0  0  0  0  0  0  0  0  0  0  0
   19.7261   -7.5469    7.6701 C   0  0  0  0  0  0  0  0  0  0  0  0
   16.8633   -9.4899    6.8577 N   0  0  0  0  0  0  0  0  0  0  0  0
 19 20  1  0  0  0
 20 21  1  0  0  0
 21 18  1  0  0  0
 18 17  1  0  0  0
 17  1  1  0  0  0
  1  2  1  0  0  0
  2  5  1  0  0  0
  5  6  1  0  0  0
  6  7  2  0  0  0
  7  8  1  0  0  0
  8  9  2  0  0  0
  9 10  1  0  0  0
 10 11  1  0  0  0
 11 12  2  0  0  0
  7 13  1  0  0  0
 13 14  1  0  0  0
 14 15  1  0  0  0
  2  3  2  0  0  0
 21 22  1  0  0  0
 22 23  2  0  0  0
 23 24  1  0  0  0
 24 25  2  0  0  0
 25 26  1  0  0  0
 26 27  2  0  0  0
 23 28  1  0  0  0
 28 20  2  0  0  0
 14  5  2  0  0  0
 27 22  1  0  0  0
 11  6  1  0  0  0
  1  4  1  0  0  0
 10 16  1  0  0  0
M  END
>  <minimizedAffinity>
-6.75350

>  <minimizedRMSD>
2.15676

$$$$
1875290255 CSSS01766819826 MolPort-047-829-437 PubChem-166273441 Z3487826623


 29 32  0  0  0  0  0  0  0  0999 V2000
   16.6766   -9.6290   16.3960 C   0  0  0  0  0  0  0  0  0  0  0  0
   17.0836  -10.7206   17.0868 N   0  0  0  0  0  0  0  0  0  0  0  0
   17.7445  -11.5336   16.2666 N   0  0  0  0  0  0  0  0  0  0  0  0
   17.7549  -10.9549   15.0536 C   0  0  0  0  0  0  0  0  0  0  0  0
   18.3375  -11.4387   13.8864 C   0  0  0  0  0  0  0  0  0  0  0  0
   18.2191  -10.6465   12.7297 C   0  0  0  0  0  0  0  0  0  0  0  0
   17.5245   -9.4095   12.7608 C   0  0  0  0  0  0  0  0  0  0  0  0
   16.9611   -8.9495   13.9660 C   0  0  0  0  0  0  0  0  0  0  0  0
   17.0966   -9.7597   15.0909 C   0  0  0  0  0  0  0  0  0  0  0  0
   18.1505  -12.3985   16.5042 H   0  0  0  0  0  0  0  0  0  0  0  0
   15.9325   -8.3120   18.3932 N   0  0  0  0  0  0  0  0  0  0  0  0
   15.9166   -8.5173   16.9847 C   0  0  0  0  0  0  0  0  0  0  0  0
   15.2483   -7.7412   16.2524 O   0  0  0  0  0  0  0  0  0  0  0  0
   15.4235   -7.5674   18.7879 H   0  0  0  0  0  0  0  0  0  0  0  0
   16.4525   -8.9146   18.9726 H   0  0  0  0  0  0  0  0  0  0  0  0
   17.4254   -8.5874   11.5924 N   0  0  0  0  0  0  0  0  0  0  0  0
   17.5697   -7.6200   11.7042 H   0  0  0  0  0  0  0  0  0  0  0  0
   17.1317   -9.0654   10.2691 C   0  0  0  0  0  0  0  0  0  0  0  0
   15.9935   -9.8587   10.0065 C   0  0  0  0  0  0  0  0  0  0  0  0
   15.7413  -10.2872    8.7007 C   0  0  0  0  0  0  0  0  0  0  0  0
   16.5736   -9.9375    7.6856 N   0  0  0  0  0  0  0  0  0  0  0  0
   17.6622   -9.1549    7.8995 C   0  0  0  0  0  0  0  0  0  0  0  0
   18.4933   -8.7991    6.8359 C   0  0  0  0  0  0  0  0  0  0  0  0
   19.5806   -8.0117    7.0551 N   0  0  0  0  0  0  0  0  0  0  0  0
   19.8911   -7.5519    8.2973 C   0  0  0  0  0  0  0  0  0  0  0  0
   19.0885   -7.8840    9.3912 C   0  0  0  0  0  0  0  0  0  0  0  0
   17.9611   -8.6917    9.1977 C   0  0  0  0  0  0  0  0  0  0  0  0
   15.0397  -10.1913   11.0331 C   0  0  0  0  0  0  0  0  0  0  0  0
   14.2730  -10.4583   11.8579 N   0  0  0  0  0  0  0  0  0  0  0  0
 11 12  1  0  0  0
 12 13  2  0  0  0
 12  1  1  0  0  0
  1  2  2  0  0  0
  2  3  1  0  0  0
  3  4  1  0  0  0
  4  5  2  0  0  0
  5  6  1  0  0  0
  6  7  2  0  0  0
  7 16  1  0  0  0
 16 18  1  0  0  0
 18 19  2  0  0  0
 19 28  1  0  0  0
 28 29  3  0  0  0
 19 20  1  0  0  0
 20 21  2  0  0  0
 21 22  1  0  0  0
 22 23  2  0  0  0
 23 24  1  0  0  0
 24 25  2  0  0  0
 25 26  1  0  0  0
 26 27  2  0  0  0
  7  8  1  0  0  0
  8  9  2  0  0  0
  9  1  1  0  0  0
  9  4  1  0  0  0
 27 18  1  0  0  0
 27 22  1  0  0  0
 11 14  1  0  0  0
 11 15  1  0  0  0
  3 10  1  0  0  0
 16 17  1  0  0  0
M  END
>  <minimizedAffinity>
-6.74101

>  <minimizedRMSD>
0.65532

$$$$
CSSS00236888702 Z2830404224


 25 28  0  0  0  0  0  0  0  0999 V2000
   16.6192   -9.3079   17.1658 C   0  0  0  0  0  0  0  0  0  0  0  0
   16.7842  -10.6559   17.5018 C   0  0  0  0  0  0  0  0  0  0  0  0
   17.3521  -11.5503   16.5900 C   0  0  0  0  0  0  0  0  0  0  0  0
   17.7653  -11.1025   15.3327 C   0  0  0  0  0  0  0  0  0  0  0  0
   18.3421  -12.0825   14.3531 C   0  0  0  0  0  0  0  0  0  0  0  0
   19.0470  -11.3575   13.2082 C   0  0  0  0  0  0  0  0  0  0  0  0
   18.1638  -10.3293   12.6645 N   0  0  0  0  0  0  0  0  0  0  0  0
   18.0496   -9.2435   13.6429 C   0  0  0  0  0  0  0  0  0  0  0  0
   17.5843   -9.7513   14.9792 C   0  0  0  0  0  0  0  0  0  0  0  0
   17.0261   -8.8606   15.8997 C   0  0  0  0  0  0  0  0  0  0  0  0
   14.3830   -6.7836   19.0928 C   0  0  0  0  0  0  0  0  0  0  0  0
   14.8378   -7.6536   17.9776 C   0  0  0  0  0  0  0  0  0  0  0  0
   14.1616   -7.7006   16.9163 O   0  0  0  0  0  0  0  0  0  0  0  0
   16.0373   -8.4224   18.1324 N   0  0  0  0  0  0  0  0  0  0  0  0
   16.5109   -8.3336   18.9909 H   0  0  0  0  0  0  0  0  0  0  0  0
   18.8300   -9.7794   11.4940 C   0  0  0  0  0  0  0  0  0  0  0  0
   17.8684   -9.5941   10.3597 C   0  0  0  0  0  0  0  0  0  0  0  0
   16.5978  -10.1503   10.2063 C   0  0  0  0  0  0  0  0  0  0  0  0
   16.0733   -9.7195    9.0321 N   0  0  0  0  0  0  0  0  0  0  0  0
   16.9664   -8.9275    8.4650 N   0  0  0  0  0  0  0  0  0  0  0  0
   16.8331   -8.2887    7.2761 C   0  0  0  0  0  0  0  0  0  0  0  0
   17.8957   -7.4855    6.8354 C   0  0  0  0  0  0  0  0  0  0  0  0
   19.0525   -7.3687    7.6301 C   0  0  0  0  0  0  0  0  0  0  0  0
   19.1479   -8.0484    8.8551 C   0  0  0  0  0  0  0  0  0  0  0  0
   18.0579   -8.8292    9.2347 C   0  0  0  0  0  0  0  0  0  0  0  0
 11 12  1  0  0  0
 12 13  2  0  0  0
 12 14  1  0  0  0
 14  1  1  0  0  0
  1  2  2  0  0  0
  2  3  1  0  0  0
  3  4  2  0  0  0
  4  5  1  0  0  0
  5  6  1  0  0  0
  6  7  1  0  0  0
  7 16  1  0  0  0
 16 17  1  0  0  0
 17 18  1  0  0  0
 18 19  2  0  0  0
 19 20  1  0  0  0
 20 21  1  0  0  0
 21 22  2  0  0  0
 22 23  1  0  0  0
 23 24  2  0  0  0
 24 25  1  0  0  0
  7  8  1  0  0  0
  8  9  1  0  0  0
  9 10  2  0  0  0
 10  1  1  0  0  0
  9  4  1  0  0  0
 25 17  2  0  0  0
 25 20  1  0  0  0
 14 15  1  0  0  0
M  END
>  <minimizedAffinity>
-6.71395

>  <minimizedRMSD>
0.66742

$$$$
902152228 CSSS00293034573 MolPort-047-827-705 Z2992633748


 26 29  0  0  0  0  0  0  0  0999 V2000
   16.1497   -8.9192   16.5727 C   0  0  0  0  0  0  0  0  0  0  0  0
   17.0482   -9.8928   17.0231 C   0  0  0  0  0  0  0  0  0  0  0  0
   17.8287  -10.5889   16.0980 C   0  0  0  0  0  0  0  0  0  0  0  0
   17.7138  -10.3199   14.7700 N   0  0  0  0  0  0  0  0  0  0  0  0
   16.8472   -9.3774   14.3040 C   0  0  0  0  0  0  0  0  0  0  0  0
   16.0507   -8.6616   15.2006 C   0  0  0  0  0  0  0  0  0  0  0  0
   12.5804   -6.1873   18.5625 C   0  0  0  0  0  0  0  0  0  0  0  0
   13.8026   -7.0135   18.3787 C   0  0  0  0  0  0  0  0  0  0  0  0
   14.1868   -7.5211   17.1926 N   0  0  0  0  0  0  0  0  0  0  0  0
   15.3179   -8.1740   17.5307 C   0  0  0  0  0  0  0  0  0  0  0  0
   15.6004   -8.0672   18.8436 N   0  0  0  0  0  0  0  0  0  0  0  0
   14.6413   -7.3329   19.3794 N   0  0  0  0  0  0  0  0  0  0  0  0
   14.5576   -7.0715   20.3248 H   0  0  0  0  0  0  0  0  0  0  0  0
   16.7433   -9.1114   12.9058 N   0  0  0  0  0  0  0  0  0  0  0  0
   16.0134   -8.5346   12.5836 H   0  0  0  0  0  0  0  0  0  0  0  0
   17.6802   -9.6644   11.9417 C   0  0  0  0  0  0  0  0  0  0  0  0
   17.0652   -9.6519   10.5842 C   0  0  0  0  0  0  0  0  0  0  0  0
   15.7768  -10.0375   10.2074 C   0  0  0  0  0  0  0  0  0  0  0  0
   14.7531  -10.6323   11.1096 C   0  0  0  0  0  0  0  0  0  0  0  0
   15.5492   -9.7659    8.8876 N   0  0  0  0  0  0  0  0  0  0  0  0
   16.7257   -9.2215    8.5204 C   0  0  0  0  0  0  0  0  0  0  0  0
   17.2780   -8.5421    7.0913 S   0  0  0  0  0  0  0  0  0  0  0  0
   18.7529   -8.1609    7.8958 C   0  0  0  0  0  0  0  0  0  0  0  0
   19.8959   -7.4642    7.2505 C   0  0  0  0  0  0  0  0  0  0  0  0
   18.7627   -8.5484    9.2013 N   0  0  0  0  0  0  0  0  0  0  0  0
   17.6120   -9.1389    9.4839 N   0  0  0  0  0  0  0  0  0  0  0  0
  7  8  1  0  0  0
  8  9  2  0  0  0
  9 10  1  0  0  0
 10 11  2  0  0  0
 11 12  1  0  0  0
 10  1  1  0  0  0
  1  2  2  0  0  0
  2  3  1  0  0  0
  3  4  2  0  0  0
  4  5  1  0  0  0
  5 14  1  0  0  0
 14 16  1  0  0  0
 16 17  1  0  0  0
 17 18  2  0  0  0
 18 19  1  0  0  0
 18 20  1  0  0  0
 20 21  2  0  0  0
 21 22  1  0  0  0
 22 23  1  0  0  0
 23 24  1  0  0  0
 23 25  2  0  0  0
 25 26  1  0  0  0
  5  6  2  0  0  0
 12  8  1  0  0  0
  6  1  1  0  0  0
 26 17  1  0  0  0
 26 21  1  0  0  0
 12 13  1  0  0  0
 14 15  1  0  0  0
M  END
>  <minimizedAffinity>
-6.71220

>  <minimizedRMSD>
1.21386

$$$$
CSSS00133130343 MCULE-8044733570 MolPort-044-859-437 PubChem-132357034 Z148383966


 29 32  0  0  0  0  0  0  0  0999 V2000
   16.8852   -8.5752   12.5608 O   0  0  0  0  0  0  0  0  0  0  0  0
   16.3804   -8.4011   13.8505 C   0  0  0  0  0  0  0  0  0  0  0  0
   15.5738   -7.4594   14.0854 O   0  0  0  0  0  0  0  0  0  0  0  0
   16.7796   -9.3046   14.9568 C   0  0  0  0  0  0  0  0  0  0  0  0
   16.4902   -8.9177   16.2297 N   0  0  0  0  0  0  0  0  0  0  0  0
   16.8079   -9.6586   17.2916 N   0  0  0  0  0  0  0  0  0  0  0  0
   17.4418  -10.8504   17.1661 C   0  0  0  0  0  0  0  0  0  0  0  0
   17.7227  -11.5167   18.1985 O   0  0  0  0  0  0  0  0  0  0  0  0
   17.7730  -11.3217   15.8911 C   0  0  0  0  0  0  0  0  0  0  0  0
   18.4263  -12.5523   15.7241 C   0  0  0  0  0  0  0  0  0  0  0  0
   18.7480  -13.0125   14.4460 C   0  0  0  0  0  0  0  0  0  0  0  0
   18.4195  -12.2479   13.3261 C   0  0  0  0  0  0  0  0  0  0  0  0
   17.7697  -11.0218   13.4828 C   0  0  0  0  0  0  0  0  0  0  0  0
   17.4387  -10.5404   14.7602 C   0  0  0  0  0  0  0  0  0  0  0  0
   16.5760   -9.3316   18.1908 H   0  0  0  0  0  0  0  0  0  0  0  0
   16.4991   -9.6653   11.7372 C   0  0  0  0  0  0  0  0  0  0  0  0
   19.1341   -7.9209    6.0705 C   0  0  0  0  0  0  0  0  0  0  0  0
   19.9553   -7.4890    7.1193 C   0  0  0  0  0  0  0  0  0  0  0  0
   19.6009   -7.7396    8.4486 C   0  0  0  0  0  0  0  0  0  0  0  0
   18.4189   -8.4255    8.7355 C   0  0  0  0  0  0  0  0  0  0  0  0
   18.0488   -8.6858   10.0537 C   0  0  0  0  0  0  0  0  0  0  0  0
   16.8602   -9.3689   10.3215 C   0  0  0  0  0  0  0  0  0  0  0  0
   16.0580   -9.8002    9.2491 C   0  0  0  0  0  0  0  0  0  0  0  0
   14.5641  -10.6835    9.5236 Cl  0  0  0  0  0  0  0  0  0  0  0  0
   16.4377   -9.5364    7.9688 N   0  0  0  0  0  0  0  0  0  0  0  0
   17.5854   -8.8653    7.6869 C   0  0  0  0  0  0  0  0  0  0  0  0
   17.9453   -8.6119    6.3610 C   0  0  0  0  0  0  0  0  0  0  0  0
   18.8140   -8.1523    3.6288 C   0  0  0  0  0  0  0  0  0  0  0  0
   19.5215   -7.6518    4.7550 O   0  0  0  0  0  0  0  0  0  0  0  0
 28 29  1  0  0  0
 29 17  1  0  0  0
 17 18  2  0  0  0
 18 19  1  0  0  0
 19 20  2  0  0  0
 20 21  1  0  0  0
 21 22  2  0  0  0
 22 16  1  0  0  0
 16  1  1  0  0  0
  1  2  1  0  0  0
  2  3  2  0  0  0
  2  4  1  0  0  0
  4  5  2  0  0  0
  5  6  1  0  0  0
  6  7  1  0  0  0
  7  8  2  0  0  0
  7  9  1  0  0  0
  9 10  2  0  0  0
 10 11  1  0  0  0
 11 12  2  0  0  0
 12 13  1  0  0  0
 13 14  2  0  0  0
 22 23  1  0  0  0
 23 24  1  0  0  0
 23 25  2  0  0  0
 25 26  1  0  0  0
 26 27  2  0  0  0
 27 17  1  0  0  0
 26 20  1  0  0  0
 14  4  1  0  0  0
 14  9  1  0  0  0
  6 15  1  0  0  0
M  END
>  <minimizedAffinity>
-6.70680

>  <minimizedRMSD>
1.69419

$$$$
95475265 CSSS00132618751 MCULE-4242943944 MolPort-027-849-538 ZINC000095475265


 28 31  0  0  0  0  0  0  0  0999 V2000
   14.8690   -8.0318   17.5210 C   0  0  0  0  0  0  0  0  0  0  0  0
   16.0798   -8.3339   18.0614 N   0  0  0  0  0  0  0  0  0  0  0  0
   16.7213   -8.9051   17.0327 C   0  0  0  0  0  0  0  0  0  0  0  0
   15.9225   -8.9242   15.9320 C   0  0  0  0  0  0  0  0  0  0  0  0
   16.3476   -9.4561   14.7180 C   0  0  0  0  0  0  0  0  0  0  0  0
   17.6534   -9.9887   14.6546 C   0  0  0  0  0  0  0  0  0  0  0  0
   18.4788   -9.9641   15.8069 C   0  0  0  0  0  0  0  0  0  0  0  0
   18.0155   -9.4158   17.0169 C   0  0  0  0  0  0  0  0  0  0  0  0
   14.7363   -8.3660   16.2096 N   0  0  0  0  0  0  0  0  0  0  0  0
   16.4035   -8.1734   18.9772 H   0  0  0  0  0  0  0  0  0  0  0  0
   13.8030   -7.3113   18.2819 C   0  0  0  0  0  0  0  0  0  0  0  0
   13.0876   -8.2067   19.0560 F   0  0  0  0  0  0  0  0  0  0  0  0
   14.3863   -6.3643   19.1021 F   0  0  0  0  0  0  0  0  0  0  0  0
   12.9380   -6.6837   17.4040 F   0  0  0  0  0  0  0  0  0  0  0  0
   18.1557  -10.5654   13.3956 C   0  0  0  0  0  0  0  0  0  0  0  0
   18.7049  -11.7014   13.3962 O   0  0  0  0  0  0  0  0  0  0  0  0
   18.0219   -9.8378   12.1723 N   0  0  0  0  0  0  0  0  0  0  0  0
   17.5872   -8.9546   12.1882 H   0  0  0  0  0  0  0  0  0  0  0  0
   18.5071  -10.3607   10.9061 C   0  0  0  0  0  0  0  0  0  0  0  0
   17.6767   -9.8199    9.7931 C   0  0  0  0  0  0  0  0  0  0  0  0
   16.3827  -10.1496    9.5817 N   0  0  0  0  0  0  0  0  0  0  0  0
   15.9546   -9.4354    8.5430 N   0  0  0  0  0  0  0  0  0  0  0  0
   16.9977   -8.6804    8.1522 C   0  0  0  0  0  0  0  0  0  0  0  0
   17.0202   -7.7630    7.1060 C   0  0  0  0  0  0  0  0  0  0  0  0
   18.2262   -7.0741    6.8869 C   0  0  0  0  0  0  0  0  0  0  0  0
   19.3510   -7.3145    7.7030 C   0  0  0  0  0  0  0  0  0  0  0  0
   19.2627   -8.2527    8.7429 C   0  0  0  0  0  0  0  0  0  0  0  0
   18.0792   -8.8930    8.9114 N   0  0  0  0  0  0  0  0  0  0  0  0
  1 11  1  0  0  0
 11 12  1  0  0  0
 11 13  1  0  0  0
 11 14  1  0  0  0
  1  2  1  0  0  0
  2  3  1  0  0  0
  3  4  2  0  0  0
  4  5  1  0  0  0
  5  6  2  0  0  0
  6  7  1  0  0  0
  7  8  2  0  0  0
  6 15  1  0  0  0
 15 16  2  0  0  0
 15 17  1  0  0  0
 17 19  1  0  0  0
 19 20  1  0  0  0
 20 21  2  0  0  0
 21 22  1  0  0  0
 22 23  2  0  0  0
 23 24  1  0  0  0
 24 25  2  0  0  0
 25 26  1  0  0  0
 26 27  2  0  0  0
 27 28  1  0  0  0
  4  9  1  0  0  0
  9  1  2  0  0  0
  8  3  1  0  0  0
 28 20  1  0  0  0
 28 23  1  0  0  0
  2 10  1  0  0  0
 17 18  1  0  0  0
M  END
>  <minimizedAffinity>
-6.68799

>  <minimizedRMSD>
0.97414

$$$$
CSC027106937 65592749 CSSS00027106937 MCULE-4430028783 MolPort-019-684-796 PubChem-53549492 Z1127124629 ZINC000065592749 ZINC65592749


 27 29  0  0  0  0  0  0  0  0999 V2000
   17.0075   -9.9671   11.3976 C   0  0  0  0  0  0  0  0  0  0  0  0
   16.0223   -9.7919   10.4087 C   0  0  0  0  0  0  0  0  0  0  0  0
   16.3895   -9.1282    9.2194 C   0  0  0  0  0  0  0  0  0  0  0  0
   15.5375   -8.9733    8.2994 O   0  0  0  0  0  0  0  0  0  0  0  0
   17.6683   -8.6674    9.0524 N   0  0  0  0  0  0  0  0  0  0  0  0
   18.0167   -8.0245    7.8969 C   0  0  0  0  0  0  0  0  0  0  0  0
   19.3147   -7.5482    7.7044 C   0  0  0  0  0  0  0  0  0  0  0  0
   20.2645   -7.7335    8.7063 C   0  0  0  0  0  0  0  0  0  0  0  0
   19.9094   -8.3893    9.8832 C   0  0  0  0  0  0  0  0  0  0  0  0
   18.6019   -8.8540   10.0441 C   0  0  0  0  0  0  0  0  0  0  0  0
   18.2626   -9.4909   11.1899 N   0  0  0  0  0  0  0  0  0  0  0  0
   14.6788  -10.2805   10.6042 N   0  0  0  0  0  0  0  0  0  0  0  0
   13.8964  -10.6350    9.5290 O   0  0  0  0  0  0  0  0  0  0  0  0
   14.2021  -10.3926   11.7525 O   0  0  0  0  0  0  0  0  0  0  0  0
   16.6875  -10.5914   12.6106 O   0  0  0  0  0  0  0  0  0  0  0  0
   19.3631  -11.4180   13.5252 C   0  0  0  0  0  0  0  0  0  0  0  0
   18.4635  -10.5305   14.3151 C   0  0  0  0  0  0  0  0  0  0  0  0
   18.8953  -10.0946   15.5708 C   0  0  0  0  0  0  0  0  0  0  0  0
   18.0563   -9.3221   16.3767 C   0  0  0  0  0  0  0  0  0  0  0  0
   16.7686   -8.9866   15.9409 C   0  0  0  0  0  0  0  0  0  0  0  0
   16.3356   -9.4251   14.6822 C   0  0  0  0  0  0  0  0  0  0  0  0
   17.1754  -10.1802   13.8569 C   0  0  0  0  0  0  0  0  0  0  0  0
   15.8790   -8.1813   16.7960 C   0  0  0  0  0  0  0  0  0  0  0  0
   16.0738   -8.1435   18.2069 N   0  0  0  0  0  0  0  0  0  0  0  0
   14.9366   -7.5177   16.2872 O   0  0  0  0  0  0  0  0  0  0  0  0
   16.8066   -8.6576   18.6166 H   0  0  0  0  0  0  0  0  0  0  0  0
   15.4755   -7.6032   18.7721 H   0  0  0  0  0  0  0  0  0  0  0  0
 16 17  1  0  0  0
 17 18  2  0  0  0
 18 19  1  0  0  0
 19 20  2  0  0  0
 20 21  1  0  0  0
 20 23  1  0  0  0
 21 22  2  0  0  0
 22 15  1  0  0  0
 22 17  1  0  0  0
 15  1  1  0  0  0
  1  2  2  0  0  0
  2  3  1  0  0  0
  2 12  1  0  0  0
  3  4  2  0  0  0
  3  5  1  0  0  0
  5  6  1  0  0  0
  6  7  2  0  0  0
  7  8  1  0  0  0
  8  9  2  0  0  0
  9 10  1  0  0  0
 10 11  2  0  0  0
 10  5  1  0  0  0
 11  1  1  0  0  0
 12 13  1  0  0  0
 12 14  2  0  0  0
 23 24  1  0  0  0
 23 25  2  0  0  0
 24 26  1  0  0  0
 24 27  1  0  0  0
M  CHG 1  12   1
M  CHG 1  13  -1
M  END
>  <minimizedAffinity>
-6.67802

>  <minimizedRMSD>
0.89748

$$$$
CSC028167706 CSSS00028167706 MCULE-3453471159 MolPort-009-133-398 PubChem-135937936 Z105623726


 31 33  0  0  0  0  0  0  0  0999 V2000
   17.6739   -9.9509   10.7927 C   0  0  0  0  0  0  0  0  0  0  0  0
   17.3468   -9.4098   13.2329 N   0  0  0  0  0  0  0  0  0  0  0  0
   17.6704  -10.3727   12.2221 C   0  0  0  0  0  0  0  0  0  0  0  0
   17.9235  -11.5711   12.5157 O   0  0  0  0  0  0  0  0  0  0  0  0
   17.1588   -8.4940   12.9245 H   0  0  0  0  0  0  0  0  0  0  0  0
   16.3360   -8.9961   16.8019 C   0  0  0  0  0  0  0  0  0  0  0  0
   17.0607  -10.0280   17.4141 C   0  0  0  0  0  0  0  0  0  0  0  0
   17.8833  -10.8611   16.6521 C   0  0  0  0  0  0  0  0  0  0  0  0
   17.9867  -10.6677   15.2725 C   0  0  0  0  0  0  0  0  0  0  0  0
   17.2680   -9.6394   14.6456 C   0  0  0  0  0  0  0  0  0  0  0  0
   16.4467   -8.8100   15.4162 C   0  0  0  0  0  0  0  0  0  0  0  0
   14.8168   -7.1796   19.8542 C   0  0  0  0  0  0  0  0  0  0  0  0
   15.6480   -8.0320   19.0212 N   0  0  0  0  0  0  0  0  0  0  0  0
   15.4679   -8.1170   17.6049 C   0  0  0  0  0  0  0  0  0  0  0  0
   14.5646   -7.4383   17.0432 O   0  0  0  0  0  0  0  0  0  0  0  0
   16.3570   -8.5678   19.4448 H   0  0  0  0  0  0  0  0  0  0  0  0
   16.3292   -9.5658   10.3707 N   0  0  0  0  0  0  0  0  0  0  0  0
   15.3845  -10.4984   10.9654 C   0  0  0  0  0  0  0  0  0  0  0  0
   16.1905   -9.5950    8.9051 C   0  0  0  0  0  0  0  0  0  0  0  0
   17.3464   -8.9883    8.1574 C   0  0  0  0  0  0  0  0  0  0  0  0
   17.3729   -9.0016    6.7979 N   0  0  0  0  0  0  0  0  0  0  0  0
   18.4086   -8.4505    6.1153 C   0  0  0  0  0  0  0  0  0  0  0  0
   18.4220   -8.4782    4.7179 C   0  0  0  0  0  0  0  0  0  0  0  0
   19.4911   -7.9105    4.0177 C   0  0  0  0  0  0  0  0  0  0  0  0
   20.5486   -7.3138    4.7119 C   0  0  0  0  0  0  0  0  0  0  0  0
   20.5417   -7.2819    6.1099 C   0  0  0  0  0  0  0  0  0  0  0  0
   19.4732   -7.8493    6.8182 C   0  0  0  0  0  0  0  0  0  0  0  0
   19.4195   -7.8406    8.2182 C   0  0  0  0  0  0  0  0  0  0  0  0
   20.3417   -7.3146    8.8973 O   0  0  0  0  0  0  0  0  0  0  0  0
   18.3595   -8.4059    8.8527 N   0  0  0  0  0  0  0  0  0  0  0  0
   18.3241   -8.3936    9.8365 H   0  0  0  0  0  0  0  0  0  0  0  0
 12 13  1  0  0  0
 13 14  1  0  0  0
 14 15  2  0  0  0
 14  6  1  0  0  0
  6  7  2  0  0  0
  7  8  1  0  0  0
  8  9  2  0  0  0
  9 10  1  0  0  0
 10  2  1  0  0  0
 10 11  2  0  0  0
  2  3  1  0  0  0
  3  4  2  0  0  0
  3  1  1  0  0  0
  1 17  1  0  0  0
 17 18  1  0  0  0
 17 19  1  0  0  0
 19 20  1  0  0  0
 20 21  2  0  0  0
 21 22  1  0  0  0
 22 23  2  0  0  0
 23 24  1  0  0  0
 24 25  2  0  0  0
 25 26  1  0  0  0
 26 27  2  0  0  0
 27 28  1  0  0  0
 27 22  1  0  0  0
 28 29  2  0  0  0
 28 30  1  0  0  0
 30 20  1  0  0  0
 11  6  1  0  0  0
 13 16  1  0  0  0
  2  5  1  0  0  0
 30 31  1  0  0  0
M  END
>  <minimizedAffinity>
-6.67785

>  <minimizedRMSD>
2.33745

$$$$
CSSS06835389036 Z7664533260


 24 26  0  0  0  0  0  0  0  0999 V2000
   18.2348   -9.6746   11.7101 N   0  0  0  0  0  0  0  0  0  0  0  0
   18.9984   -9.0745   11.8716 H   0  0  0  0  0  0  0  0  0  0  0  0
   20.2423   -8.0097   10.2707 C   0  0  0  0  0  0  0  0  0  0  0  0
   19.2006   -8.1861    9.2730 N   0  0  0  0  0  0  0  0  0  0  0  0
   19.2236   -7.6787    8.0177 C   0  0  0  0  0  0  0  0  0  0  0  0
   18.0632   -8.0379    7.3200 C   0  0  0  0  0  0  0  0  0  0  0  0
   17.3496   -8.7875    8.2321 C   0  0  0  0  0  0  0  0  0  0  0  0
   16.1437   -9.3842    8.0745 N   0  0  0  0  0  0  0  0  0  0  0  0
   15.6231  -10.0833    9.1267 C   0  0  0  0  0  0  0  0  0  0  0  0
   16.3095  -10.1743   10.3092 N   0  0  0  0  0  0  0  0  0  0  0  0
   17.5268   -9.5741   10.4739 C   0  0  0  0  0  0  0  0  0  0  0  0
   18.0486   -8.8633    9.3934 C   0  0  0  0  0  0  0  0  0  0  0  0
   17.8648  -10.6340   12.7378 C   0  0  0  0  0  0  0  0  0  0  0  0
   18.0535  -10.0256   14.0820 C   0  0  0  0  0  0  0  0  0  0  0  0
   19.3254   -9.9756   14.6553 C   0  0  0  0  0  0  0  0  0  0  0  0
   19.4857   -9.3778   15.9066 C   0  0  0  0  0  0  0  0  0  0  0  0
   18.4120   -8.8470   16.5518 N   0  0  0  0  0  0  0  0  0  0  0  0
   17.1617   -8.8760   16.0110 C   0  0  0  0  0  0  0  0  0  0  0  0
   16.9652   -9.4681   14.7567 C   0  0  0  0  0  0  0  0  0  0  0  0
   16.0312   -8.2854   16.7436 C   0  0  0  0  0  0  0  0  0  0  0  0
   15.0882   -7.7270   16.1222 O   0  0  0  0  0  0  0  0  0  0  0  0
   15.9940   -8.3404   18.1661 N   0  0  0  0  0  0  0  0  0  0  0  0
   16.7259   -8.7745   18.6612 H   0  0  0  0  0  0  0  0  0  0  0  0
   15.2364   -7.9444   18.6544 H   0  0  0  0  0  0  0  0  0  0  0  0
  3  4  1  0  0  0
  4  5  1  0  0  0
  5  6  2  0  0  0
  6  7  1  0  0  0
  7  8  2  0  0  0
  8  9  1  0  0  0
  9 10  2  0  0  0
 10 11  1  0  0  0
 11  1  1  0  0  0
  1 13  1  0  0  0
 13 14  1  0  0  0
 14 15  2  0  0  0
 15 16  1  0  0  0
 16 17  2  0  0  0
 17 18  1  0  0  0
 18 19  2  0  0  0
 18 20  1  0  0  0
 20 21  2  0  0  0
 20 22  1  0  0  0
 11 12  2  0  0  0
 12  4  1  0  0  0
 12  7  1  0  0  0
 19 14  1  0  0  0
  1  2  1  0  0  0
 22 23  1  0  0  0
 22 24  1  0  0  0
M  END
>  <minimizedAffinity>
-6.66820

>  <minimizedRMSD>
1.15338

$$$$
CSC087742115 CSSS00087742115 MCULE-4596754142 MolPort-046-439-053 PubChem-137978326 Z2091448500


 22 24  0  0  0  0  0  0  0  0999 V2000
   15.8388   -8.5652   17.4614 N   0  0  0  0  0  0  0  0  0  0  0  0
   16.2121   -8.3900   16.0974 C   0  0  0  0  0  0  0  0  0  0  0  0
   16.0727   -7.2584   15.5613 O   0  0  0  0  0  0  0  0  0  0  0  0
   16.7482   -9.4861   15.3452 N   0  0  0  0  0  0  0  0  0  0  0  0
   16.8091  -10.8235   15.9305 C   0  0  0  0  0  0  0  0  0  0  0  0
   18.1506  -11.4718   15.6027 C   0  0  0  0  0  0  0  0  0  0  0  0
   18.3886  -11.4520   14.0962 C   0  0  0  0  0  0  0  0  0  0  0  0
   18.3583  -10.0137   13.5775 C   0  0  0  0  0  0  0  0  0  0  0  0
   17.0320   -9.3340   13.9200 C   0  0  0  0  0  0  0  0  0  0  0  0
   15.4712   -7.8082   17.9722 H   0  0  0  0  0  0  0  0  0  0  0  0
   15.9485   -9.4433   17.8928 H   0  0  0  0  0  0  0  0  0  0  0  0
   18.6057   -9.9738   12.1395 N   0  0  0  0  0  0  0  0  0  0  0  0
   19.5422   -9.9911   11.8364 H   0  0  0  0  0  0  0  0  0  0  0  0
   17.5831   -9.9111   11.1371 C   0  0  0  0  0  0  0  0  0  0  0  0
   17.8008   -9.2362    9.9425 C   0  0  0  0  0  0  0  0  0  0  0  0
   19.1448   -8.4053    9.3918 S   0  0  0  0  0  0  0  0  0  0  0  0
   18.4678   -7.9593    7.9012 C   0  0  0  0  0  0  0  0  0  0  0  0
   17.1666   -8.4707    7.8351 C   0  0  0  0  0  0  0  0  0  0  0  0
   16.8147   -9.1803    8.9856 C   0  0  0  0  0  0  0  0  0  0  0  0
   15.6167   -9.7821    9.1929 N   0  0  0  0  0  0  0  0  0  0  0  0
   15.3953  -10.4473   10.3644 C   0  0  0  0  0  0  0  0  0  0  0  0
   16.3697  -10.5085   11.3221 N   0  0  0  0  0  0  0  0  0  0  0  0
  1  2  1  0  0  0
  2  3  2  0  0  0
  2  4  1  0  0  0
  4  5  1  0  0  0
  5  6  1  0  0  0
  6  7  1  0  0  0
  7  8  1  0  0  0
  8  9  1  0  0  0
  8 12  1  0  0  0
 12 14  1  0  0  0
 14 15  2  0  0  0
 15 16  1  0  0  0
 16 17  1  0  0  0
 17 18  2  0  0  0
 18 19  1  0  0  0
 19 20  2  0  0  0
 20 21  1  0  0  0
 21 22  2  0  0  0
  9  4  1  0  0  0
 22 14  1  0  0  0
 19 15  1  0  0  0
  1 10  1  0  0  0
  1 11  1  0  0  0
 12 13  1  0  0  0
M  END
>  <minimizedAffinity>
-6.66100

>  <minimizedRMSD>
0.80565

$$$$
40267561 CSSS00160788378 MCULE-6061956617 MolPort-008-332-885 PubChem-49653872 ZINC000040267561


 30 33  0  0  0  0  0  0  0  0999 V2000
   17.1967  -10.3075   12.0404 N   0  0  0  0  0  0  0  0  0  0  0  0
   16.9945   -9.4041   13.1733 C   0  0  0  0  0  0  0  0  0  0  0  0
   18.1183   -9.5916   14.1866 C   0  0  0  0  0  0  0  0  0  0  0  0
   18.2671  -11.0147   14.4795 N   0  0  0  0  0  0  0  0  0  0  0  0
   18.4810  -11.9230   13.3568 C   0  0  0  0  0  0  0  0  0  0  0  0
   17.3657  -11.7316   12.3322 C   0  0  0  0  0  0  0  0  0  0  0  0
   18.1701  -11.5141   15.8214 C   0  0  0  0  0  0  0  0  0  0  0  0
   18.3011  -12.7464   16.0502 O   0  0  0  0  0  0  0  0  0  0  0  0
   17.0157   -9.8803   10.6760 C   0  0  0  0  0  0  0  0  0  0  0  0
   17.9547   -9.1030    9.9416 C   0  0  0  0  0  0  0  0  0  0  0  0
   19.1975   -8.6238   10.3718 C   0  0  0  0  0  0  0  0  0  0  0  0
   19.9826   -7.8681    9.4846 C   0  0  0  0  0  0  0  0  0  0  0  0
   19.5281   -7.5987    8.1795 C   0  0  0  0  0  0  0  0  0  0  0  0
   18.2852   -8.0842    7.7451 C   0  0  0  0  0  0  0  0  0  0  0  0
   17.5345   -8.8274    8.6501 C   0  0  0  0  0  0  0  0  0  0  0  0
   16.0524   -9.5501    8.4652 S   0  0  0  0  0  0  0  0  0  0  0  0
   15.8902  -10.2206    9.9823 N   0  0  0  0  0  0  0  0  0  0  0  0
   17.8778  -10.5956   16.9617 C   0  0  0  0  0  0  0  0  0  0  0  0
   16.6043   -9.8237   16.6830 C   0  0  0  0  0  0  0  0  0  0  0  0
   16.5781   -8.5680   17.5323 C   0  0  0  0  0  0  0  0  0  0  0  0
   15.2192   -7.9587   17.5100 C   0  0  0  0  0  0  0  0  0  0  0  0
   14.7186   -7.5893   16.4142 O   0  0  0  0  0  0  0  0  0  0  0  0
   14.5126   -7.7869   18.7449 N   0  0  0  0  0  0  0  0  0  0  0  0
   14.9792   -8.0722   19.5635 H   0  0  0  0  0  0  0  0  0  0  0  0
   13.1964   -7.2428   18.9118 C   0  0  0  0  0  0  0  0  0  0  0  0
   12.0544   -7.8963   18.4284 C   0  0  0  0  0  0  0  0  0  0  0  0
   10.7969   -7.3201   18.6209 C   0  0  0  0  0  0  0  0  0  0  0  0
   10.6849   -6.1330   19.2747 N   0  0  0  0  0  0  0  0  0  0  0  0
   11.7770   -5.4806   19.7557 C   0  0  0  0  0  0  0  0  0  0  0  0
   13.0515   -6.0255   19.5816 C   0  0  0  0  0  0  0  0  0  0  0  0
  9  1  1  0  0  0
  1  2  1  0  0  0
  2  3  1  0  0  0
  3  4  1  0  0  0
  4  5  1  0  0  0
  5  6  1  0  0  0
  4  7  1  0  0  0
  7 18  1  0  0  0
 18 19  1  0  0  0
 19 20  1  0  0  0
 20 21  1  0  0  0
 21 22  2  0  0  0
 21 23  1  0  0  0
 23 25  1  0  0  0
 25 26  2  0  0  0
 26 27  1  0  0  0
 27 28  2  0  0  0
 28 29  1  0  0  0
 29 30  2  0  0  0
  7  8  2  0  0  0
  9 10  1  0  0  0
 10 11  2  0  0  0
 11 12  1  0  0  0
 12 13  2  0  0  0
 13 14  1  0  0  0
 14 15  2  0  0  0
 15 16  1  0  0  0
 16 17  1  0  0  0
 17  9  2  0  0  0
  6  1  1  0  0  0
 30 25  1  0  0  0
 15 10  1  0  0  0
 23 24  1  0  0  0
M  END
>  <minimizedAffinity>
-6.65610

>  <minimizedRMSD>
1.84654

$$$$
CHEMBL4948161 CSSS00159506050 MCULE-3687945980 MolPort-019-889-937


 28 30  0  0  0  0  0  0  0  0999 V2000
   14.8417   -9.9267   10.9642 N   0  0  0  0  0  0  0  0  0  0  0  0
   15.7025  -10.0513   12.0983 C   0  0  0  0  0  0  0  0  0  0  0  0
   16.8150  -10.6347   12.0003 O   0  0  0  0  0  0  0  0  0  0  0  0
   13.9608   -9.5040   11.0848 H   0  0  0  0  0  0  0  0  0  0  0  0
   15.2131  -10.3987    9.6379 C   0  0  0  0  0  0  0  0  0  0  0  0
   16.6424   -9.4737    7.8083 N   0  0  0  0  0  0  0  0  0  0  0  0
   17.7921   -8.7823    7.8162 C   0  0  0  0  0  0  0  0  0  0  0  0
   18.5327   -8.3309    6.7226 C   0  0  0  0  0  0  0  0  0  0  0  0
   18.0936   -8.5804    5.3223 C   0  0  0  0  0  0  0  0  0  0  0  0
   19.7210   -7.6258    6.9856 C   0  0  0  0  0  0  0  0  0  0  0  0
   20.1348   -7.3939    8.3163 C   0  0  0  0  0  0  0  0  0  0  0  0
   19.3655   -7.8642    9.3971 C   0  0  0  0  0  0  0  0  0  0  0  0
   18.1945   -8.5568    9.0981 C   0  0  0  0  0  0  0  0  0  0  0  0
   17.3208   -9.0941    9.9609 N   0  0  0  0  0  0  0  0  0  0  0  0
   16.3896   -9.6352    9.1330 C   0  0  0  0  0  0  0  0  0  0  0  0
   17.3472   -9.0960   10.9450 H   0  0  0  0  0  0  0  0  0  0  0  0
   15.2951   -9.4569   13.3985 C   0  0  0  0  0  0  0  0  0  0  0  0
   16.4803   -8.7471   14.0302 C   0  0  0  0  0  0  0  0  0  0  0  0
   17.0009   -9.5295   15.2008 C   0  0  0  0  0  0  0  0  0  0  0  0
   18.0543  -10.4453   15.0375 C   0  0  0  0  0  0  0  0  0  0  0  0
   18.6757  -10.6848   13.7024 C   0  0  0  0  0  0  0  0  0  0  0  0
   18.5207  -11.1371   16.1092 N   0  0  0  0  0  0  0  0  0  0  0  0
   17.9923  -10.9567   17.3461 C   0  0  0  0  0  0  0  0  0  0  0  0
   16.9823  -10.0695   17.5315 N   0  0  0  0  0  0  0  0  0  0  0  0
   16.4768   -9.3523   16.4949 C   0  0  0  0  0  0  0  0  0  0  0  0
   15.3800   -8.3777   16.7655 C   0  0  0  0  0  0  0  0  0  0  0  0
   18.4875  -11.6784   18.4234 O   0  0  0  0  0  0  0  0  0  0  0  0
   19.1849  -12.2911   18.2960 H   0  0  0  0  0  0  0  0  0  0  0  0
  6  7  1  0  0  0
  7  8  2  0  0  0
  8  9  1  0  0  0
  8 10  1  0  0  0
 10 11  2  0  0  0
 11 12  1  0  0  0
 12 13  2  0  0  0
 13 14  1  0  0  0
 14 15  1  0  0  0
 15  5  1  0  0  0
  5  1  1  0  0  0
  1  2  1  0  0  0
  2 17  1  0  0  0
 17 18  1  0  0  0
 18 19  1  0  0  0
 19 20  2  0  0  0
 20 21  1  0  0  0
 20 22  1  0  0  0
 22 23  2  0  0  0
 23 24  1  0  0  0
 24 25  2  0  0  0
 25 26  1  0  0  0
 23 27  1  0  0  0
  2  3  2  0  0  0
 15  6  2  0  0  0
 25 19  1  0  0  0
 13  7  1  0  0  0
 14 16  1  0  0  0
  1  4  1  0  0  0
 27 28  1  0  0  0
M  END
>  <minimizedAffinity>
-6.64283

>  <minimizedRMSD>
2.27755

$$$$
CSC027207521 CSSS00027207521 MolPort-039-273-826 Z184603790


 27 28  0  0  0  0  0  0  0  0999 V2000
   17.5417   -8.8835   11.3094 C   0  0  0  0  0  0  0  0  0  0  0  0
   17.6932   -8.8785    9.8540 N   0  0  0  0  0  0  0  0  0  0  0  0
   16.7761   -9.5324    9.0722 C   0  0  0  0  0  0  0  0  0  0  0  0
   15.3939  -10.4262    9.7922 S   0  0  0  0  0  0  0  0  0  0  0  0
   16.9000   -9.5238    7.7197 N   0  0  0  0  0  0  0  0  0  0  0  0
   17.9174   -8.8707    7.1092 C   0  0  0  0  0  0  0  0  0  0  0  0
   18.0200   -8.8797    5.7150 C   0  0  0  0  0  0  0  0  0  0  0  0
   19.0690   -8.2016    5.0868 C   0  0  0  0  0  0  0  0  0  0  0  0
   20.0166   -7.5131    5.8506 C   0  0  0  0  0  0  0  0  0  0  0  0
   19.9182   -7.5009    7.2452 C   0  0  0  0  0  0  0  0  0  0  0  0
   18.8686   -8.1802    7.8816 C   0  0  0  0  0  0  0  0  0  0  0  0
   18.7311   -8.1940    9.2760 C   0  0  0  0  0  0  0  0  0  0  0  0
   19.5632   -7.5719    9.9954 O   0  0  0  0  0  0  0  0  0  0  0  0
   15.4412  -10.3190   11.1471 H   0  0  0  0  0  0  0  0  0  0  0  0
   18.2128  -10.1070   11.9078 C   0  0  0  0  0  0  0  0  0  0  0  0
   17.4854  -10.5119   13.1751 C   0  0  0  0  0  0  0  0  0  0  0  0
   18.4694  -10.6723   14.3245 C   0  0  0  0  0  0  0  0  0  0  0  0
   18.6261   -9.3774   15.1119 C   0  0  0  0  0  0  0  0  0  0  0  0
   16.7803   -8.9455   16.7781 N   0  0  0  0  0  0  0  0  0  0  0  0
   17.2960   -8.7985   15.4548 C   0  0  0  0  0  0  0  0  0  0  0  0
   16.6283   -8.2013   14.5686 O   0  0  0  0  0  0  0  0  0  0  0  0
   17.3196   -9.4198   17.4514 H   0  0  0  0  0  0  0  0  0  0  0  0
   15.4809   -8.4145   17.1598 C   0  0  0  0  0  0  0  0  0  0  0  0
   15.5304   -7.8868   18.5856 C   0  0  0  0  0  0  0  0  0  0  0  0
   14.1496   -7.4679   19.0673 C   0  0  0  0  0  0  0  0  0  0  0  0
   12.8431   -6.8268   21.0683 C   0  0  0  0  0  0  0  0  0  0  0  0
   14.0527   -7.5924   20.5761 C   0  0  0  0  0  0  0  0  0  0  0  0
 26 27  1  0  0  0
 27 25  1  0  0  0
 25 24  1  0  0  0
 24 23  1  0  0  0
 23 19  1  0  0  0
 19 20  1  0  0  0
 20 21  2  0  0  0
 20 18  1  0  0  0
 18 17  1  0  0  0
 17 16  1  0  0  0
 16 15  1  0  0  0
 15  1  1  0  0  0
  1  2  1  0  0  0
  2  3  1  0  0  0
  3  4  1  0  0  0
  3  5  2  0  0  0
  5  6  1  0  0  0
  6  7  2  0  0  0
  7  8  1  0  0  0
  8  9  2  0  0  0
  9 10  1  0  0  0
 10 11  2  0  0  0
 11 12  1  0  0  0
 12 13  2  0  0  0
 12  2  1  0  0  0
 11  6  1  0  0  0
 19 22  1  0  0  0
  4 14  1  0  0  0
M  END
>  <minimizedAffinity>
-6.64275

>  <minimizedRMSD>
2.40143

$$$$
CSC027628334 215657290 CSSS00027628334 MCULE-2254896250 MolPort-035-392-504 PubChem-86819041 Z1828768249 ZINC000215657290


 26 28  0  0  0  0  0  0  0  0999 V2000
   17.9700  -10.7067   12.8420 C   0  0  0  0  0  0  0  0  0  0  0  0
   17.0472   -9.0092   16.0981 C   0  0  0  0  0  0  0  0  0  0  0  0
   18.3057   -8.8524   16.6894 C   0  0  0  0  0  0  0  0  0  0  0  0
   19.4526   -9.3014   16.0277 C   0  0  0  0  0  0  0  0  0  0  0  0
   19.3427   -9.9118   14.7747 C   0  0  0  0  0  0  0  0  0  0  0  0
   18.0851  -10.0794   14.1857 C   0  0  0  0  0  0  0  0  0  0  0  0
   16.9390   -9.6233   14.8453 C   0  0  0  0  0  0  0  0  0  0  0  0
   15.6091   -8.4502   16.9317 S   0  0  0  0  0  0  0  0  0  0  0  0
   15.0286   -7.2749   16.1946 O   0  0  0  0  0  0  0  0  0  0  0  0
   14.5996   -9.5631   16.9798 O   0  0  0  0  0  0  0  0  0  0  0  0
   14.8059   -7.5841   19.2225 C   0  0  0  0  0  0  0  0  0  0  0  0
   16.0309   -7.9639   18.5398 N   0  0  0  0  0  0  0  0  0  0  0  0
   16.4766   -8.7386   19.0313 H   0  0  0  0  0  0  0  0  0  0  0  0
   18.3046   -9.7312   11.8152 N   0  0  0  0  0  0  0  0  0  0  0  0
   19.0530   -9.1134   11.9811 H   0  0  0  0  0  0  0  0  0  0  0  0
   17.5961   -9.6275   10.5742 C   0  0  0  0  0  0  0  0  0  0  0  0
   18.1416   -8.8956    9.5064 C   0  0  0  0  0  0  0  0  0  0  0  0
   19.3817   -8.2520    9.6221 C   0  0  0  0  0  0  0  0  0  0  0  0
   19.9027   -7.5300    8.5453 C   0  0  0  0  0  0  0  0  0  0  0  0
   19.1897   -7.4454    7.3464 C   0  0  0  0  0  0  0  0  0  0  0  0
   17.9520   -8.0818    7.2163 C   0  0  0  0  0  0  0  0  0  0  0  0
   17.2734   -7.9897    6.0457 F   0  0  0  0  0  0  0  0  0  0  0  0
   17.4216   -8.8083    8.2912 C   0  0  0  0  0  0  0  0  0  0  0  0
   16.2174   -9.4297    8.1703 N   0  0  0  0  0  0  0  0  0  0  0  0
   15.6757  -10.1416    9.1934 C   0  0  0  0  0  0  0  0  0  0  0  0
   16.3530  -10.2525   10.4087 C   0  0  0  0  0  0  0  0  0  0  0  0
 11 12  1  0  0  0
 12  8  1  0  0  0
  8  9  2  0  0  0
  8 10  2  0  0  0
  8  2  1  0  0  0
  2  3  2  0  0  0
  3  4  1  0  0  0
  4  5  2  0  0  0
  5  6  1  0  0  0
  6  1  1  0  0  0
  6  7  2  0  0  0
  1 14  1  0  0  0
 14 16  1  0  0  0
 16 17  1  0  0  0
 17 18  2  0  0  0
 18 19  1  0  0  0
 19 20  2  0  0  0
 20 21  1  0  0  0
 21 22  1  0  0  0
 21 23  2  0  0  0
 23 24  1  0  0  0
 23 17  1  0  0  0
 24 25  2  0  0  0
 25 26  1  0  0  0
 26 16  2  0  0  0
  7  2  1  0  0  0
 12 13  1  0  0  0
 14 15  1  0  0  0
M  END
>  <minimizedAffinity>
-6.64182

>  <minimizedRMSD>
1.25430

$$$$
CSSS00159890571 MCULE-1756886969 MolPort-035-759-882


 24 27  0  0  0  0  0  0  0  0999 V2000
   18.6736  -11.7367   13.2792 O   0  0  0  0  0  0  0  0  0  0  0  0
   18.1359  -10.5964   13.3276 C   0  0  0  0  0  0  0  0  0  0  0  0
   18.0859   -9.7805   12.1548 N   0  0  0  0  0  0  0  0  0  0  0  0
   17.6596   -8.8947   12.2081 H   0  0  0  0  0  0  0  0  0  0  0  0
   17.5606  -10.1055   14.5918 C   0  0  0  0  0  0  0  0  0  0  0  0
   17.8887  -10.7408   15.8188 C   0  0  0  0  0  0  0  0  0  0  0  0
   17.3500  -10.2868   17.0385 C   0  0  0  0  0  0  0  0  0  0  0  0
   16.4899   -9.1965   16.9790 C   0  0  0  0  0  0  0  0  0  0  0  0
   15.8491   -8.5739   17.9776 N   0  0  0  0  0  0  0  0  0  0  0  0
   15.1549   -7.5967   17.3957 N   0  0  0  0  0  0  0  0  0  0  0  0
   15.3291   -7.5749   16.0749 N   0  0  0  0  0  0  0  0  0  0  0  0
   16.1710   -8.5837   15.8119 C   0  0  0  0  0  0  0  0  0  0  0  0
   16.6804   -8.9999   14.5869 C   0  0  0  0  0  0  0  0  0  0  0  0
   15.8837   -8.7922   18.9370 H   0  0  0  0  0  0  0  0  0  0  0  0
   18.6446  -10.2173   10.8861 C   0  0  0  0  0  0  0  0  0  0  0  0
   17.7560   -9.7795    9.7724 C   0  0  0  0  0  0  0  0  0  0  0  0
   16.4385  -10.1677    9.5754 C   0  0  0  0  0  0  0  0  0  0  0  0
   15.9499   -9.5113    8.4910 N   0  0  0  0  0  0  0  0  0  0  0  0
   16.9790   -8.7460    8.0776 C   0  0  0  0  0  0  0  0  0  0  0  0
   16.9763   -7.8716    6.9961 C   0  0  0  0  0  0  0  0  0  0  0  0
   18.1209   -7.1715    6.7429 N   0  0  0  0  0  0  0  0  0  0  0  0
   19.2401   -7.3125    7.5183 C   0  0  0  0  0  0  0  0  0  0  0  0
   19.2252   -8.1984    8.6057 C   0  0  0  0  0  0  0  0  0  0  0  0
   18.0761   -8.8821    8.8313 N   0  0  0  0  0  0  0  0  0  0  0  0
  1  2  2  0  0  0
  2  3  1  0  0  0
  2  5  1  0  0  0
  3 15  1  0  0  0
 15 16  1  0  0  0
 16 17  2  0  0  0
 17 18  1  0  0  0
 18 19  2  0  0  0
 19 20  1  0  0  0
 20 21  2  0  0  0
 21 22  1  0  0  0
 22 23  2  0  0  0
 23 24  1  0  0  0
 24 16  1  0  0  0
 24 19  1  0  0  0
  5  6  2  0  0  0
  6  7  1  0  0  0
  7  8  2  0  0  0
  8  9  1  0  0  0
  9 10  1  0  0  0
 10 11  2  0  0  0
 11 12  1  0  0  0
 12 13  2  0  0  0
 12  8  1  0  0  0
 13  5  1  0  0  0
  3  4  1  0  0  0
  9 14  1  0  0  0
M  END
>  <minimizedAffinity>
-6.62956

>  <minimizedRMSD>
0.72309

$$$$
CSC027497077 CSSS00027497077 MCULE-9977472168 MolPort-028-944-268 PubChem-75476132 Z1638257491


 30 33  0  0  0  0  0  0  0  0999 V2000
   15.0864   -9.8895   12.9873 O   0  0  0  0  0  0  0  0  0  0  0  0
   16.3052   -9.5905   13.1012 C   0  0  0  0  0  0  0  0  0  0  0  0
   17.0100   -9.8860   14.3160 N   0  0  0  0  0  0  0  0  0  0  0  0
   18.4375   -9.6066   14.4488 C   0  0  0  0  0  0  0  0  0  0  0  0
   18.6859   -8.8188   15.7298 C   0  0  0  0  0  0  0  0  0  0  0  0
   18.0915   -9.5576   16.9290 C   0  0  0  0  0  0  0  0  0  0  0  0
   16.5977   -9.8468   16.7390 C   0  0  0  0  0  0  0  0  0  0  0  0
   16.3338  -10.5700   15.4162 C   0  0  0  0  0  0  0  0  0  0  0  0
   15.6030   -8.3639   16.8897 S   0  0  0  0  0  0  0  0  0  0  0  0
   14.1553   -8.7132   16.6834 O   0  0  0  0  0  0  0  0  0  0  0  0
   16.0148   -7.3580   15.8516 O   0  0  0  0  0  0  0  0  0  0  0  0
   15.8140   -7.6666   18.4620 N   0  0  0  0  0  0  0  0  0  0  0  0
   16.0318   -6.6740   18.3741 H   0  0  0  0  0  0  0  0  0  0  0  0
   14.5722   -7.8359   19.1990 C   0  0  0  0  0  0  0  0  0  0  0  0
   13.6572   -6.6500   18.9614 C   0  0  0  0  0  0  0  0  0  0  0  0
   13.0596   -6.2813   20.3082 C   0  0  0  0  0  0  0  0  0  0  0  0
   13.6162   -7.2639   21.3190 C   0  0  0  0  0  0  0  0  0  0  0  0
   14.8537   -7.8505   20.6826 C   0  0  0  0  0  0  0  0  0  0  0  0
   17.0007   -8.9491   11.9470 C   0  0  0  0  0  0  0  0  0  0  0  0
   17.6742  -10.0136   11.0960 C   0  0  0  0  0  0  0  0  0  0  0  0
   17.7952   -9.5611    9.7153 N   0  0  0  0  0  0  0  0  0  0  0  0
   16.8869  -10.0317    8.8054 C   0  0  0  0  0  0  0  0  0  0  0  0
   16.9559   -9.6617    7.4951 N   0  0  0  0  0  0  0  0  0  0  0  0
   17.9434   -8.8210    7.1102 C   0  0  0  0  0  0  0  0  0  0  0  0
   18.8794   -8.3319    7.9874 C   0  0  0  0  0  0  0  0  0  0  0  0
   19.8180   -7.4813    7.3918 C   0  0  0  0  0  0  0  0  0  0  0  0
   19.5951   -7.3139    6.0196 C   0  0  0  0  0  0  0  0  0  0  0  0
   18.2349   -8.2273    5.5766 S   0  0  0  0  0  0  0  0  0  0  0  0
   18.8061   -8.7168    9.3254 C   0  0  0  0  0  0  0  0  0  0  0  0
   19.6569   -8.2967   10.1572 O   0  0  0  0  0  0  0  0  0  0  0  0
  1  2  2  0  0  0
  2 19  1  0  0  0
  2  3  1  0  0  0
 19 20  1  0  0  0
 20 21  1  0  0  0
 21 22  1  0  0  0
 22 23  2  0  0  0
 23 24  1  0  0  0
 24 25  2  0  0  0
 25 26  1  0  0  0
 25 29  1  0  0  0
 26 27  2  0  0  0
 27 28  1  0  0  0
 28 24  1  0  0  0
 29 30  2  0  0  0
 29 21  1  0  0  0
  3  4  1  0  0  0
  4  5  1  0  0  0
  5  6  1  0  0  0
  6  7  1  0  0  0
  7  8  1  0  0  0
  7  9  1  0  0  0
  8  3  1  0  0  0
  9 10  2  0  0  0
  9 11  2  0  0  0
  9 12  1  0  0  0
 12 14  1  0  0  0
 14 15  1  0  0  0
 15 16  1  0  0  0
 16 17  1  0  0  0
 17 18  1  0  0  0
 18 14  1  0  0  0
 12 13  1  0  0  0
M  END
>  <minimizedAffinity>
-6.62503

>  <minimizedRMSD>
1.69462

$$$$
CSSS09880961061 MCULE-2128486272 MolPort-051-474-084


 26 29  0  0  0  0  0  0  0  0999 V2000
   17.7474   -9.6482   11.2797 C   0  0  0  0  0  0  0  0  0  0  0  0
   18.9175   -9.4678   11.7070 O   0  0  0  0  0  0  0  0  0  0  0  0
   16.6917   -9.9864   12.1851 N   0  0  0  0  0  0  0  0  0  0  0  0
   15.8663  -10.3575   11.7973 H   0  0  0  0  0  0  0  0  0  0  0  0
   20.0590   -7.5538    9.7104 C   0  0  0  0  0  0  0  0  0  0  0  0
   19.1466   -8.0567    8.7002 N   0  0  0  0  0  0  0  0  0  0  0  0
   19.1626   -7.7576    7.3686 C   0  0  0  0  0  0  0  0  0  0  0  0
   18.1046   -8.4306    6.7201 C   0  0  0  0  0  0  0  0  0  0  0  0
   17.5054   -9.1069    7.7083 N   0  0  0  0  0  0  0  0  0  0  0  0
   16.4647   -9.9048    7.8226 N   0  0  0  0  0  0  0  0  0  0  0  0
   16.4115  -10.2176    9.1514 C   0  0  0  0  0  0  0  0  0  0  0  0
   17.4626   -9.5737    9.8397 C   0  0  0  0  0  0  0  0  0  0  0  0
   18.1053   -8.8875    8.8341 C   0  0  0  0  0  0  0  0  0  0  0  0
   16.7355   -9.8300   13.6092 C   0  0  0  0  0  0  0  0  0  0  0  0
   16.1085   -8.8818   14.3983 C   0  0  0  0  0  0  0  0  0  0  0  0
   15.1994   -7.7929   13.9310 C   0  0  0  0  0  0  0  0  0  0  0  0
   16.3404   -9.2007   15.6935 N   0  0  0  0  0  0  0  0  0  0  0  0
   17.0667  -10.3088   15.7580 N   0  0  0  0  0  0  0  0  0  0  0  0
   17.3089  -10.7140   14.4967 C   0  0  0  0  0  0  0  0  0  0  0  0
   18.0699  -11.9445   14.1490 C   0  0  0  0  0  0  0  0  0  0  0  0
   15.8743   -8.5101   16.8610 C   0  0  0  0  0  0  0  0  0  0  0  0
   14.8226   -7.6725   16.8860 N   0  0  0  0  0  0  0  0  0  0  0  0
   14.7583   -7.2639   18.1427 N   0  0  0  0  0  0  0  0  0  0  0  0
   15.7273   -7.8262   18.8488 N   0  0  0  0  0  0  0  0  0  0  0  0
   16.4494   -8.6167   18.0714 N   0  0  0  0  0  0  0  0  0  0  0  0
   17.2311   -9.1599   18.3226 H   0  0  0  0  0  0  0  0  0  0  0  0
  5  6  1  0  0  0
  6  7  1  0  0  0
  7  8  2  0  0  0
  8  9  1  0  0  0
  9 10  1  0  0  0
 10 11  2  0  0  0
 11 12  1  0  0  0
 12  1  1  0  0  0
  1  2  2  0  0  0
  1  3  1  0  0  0
  3 14  1  0  0  0
 14 15  2  0  0  0
 15 16  1  0  0  0
 15 17  1  0  0  0
 17 18  1  0  0  0
 18 19  2  0  0  0
 19 20  1  0  0  0
 17 21  1  0  0  0
 21 22  2  0  0  0
 22 23  1  0  0  0
 23 24  2  0  0  0
 24 25  1  0  0  0
 12 13  2  0  0  0
 13  6  1  0  0  0
 13  9  1  0  0  0
 19 14  1  0  0  0
 25 21  1  0  0  0
  3  4  1  0  0  0
 25 26  1  0  0  0
M  END
>  <minimizedAffinity>
-6.62017

>  <minimizedRMSD>
0.81048

$$$$
10595833 CSSS01399957459 MolPort-047-812-290 PubChem-166194613 Z194150466


 35 39  0  0  0  0  0  0  0  0999 V2000
   14.6141   -7.7258   15.1852 C   0  0  0  0  0  0  0  0  0  0  0  0
   15.3130   -8.0223   16.4719 C   0  0  0  0  0  0  0  0  0  0  0  0
   16.6065   -8.5653   16.5553 C   0  0  0  0  0  0  0  0  0  0  0  0
   17.0316   -8.7498   18.1867 S   0  0  0  0  0  0  0  0  0  0  0  0
   15.5868   -8.1444   18.7772 C   0  0  0  0  0  0  0  0  0  0  0  0
   14.7476   -7.7897   17.7398 C   0  0  0  0  0  0  0  0  0  0  0  0
   13.4881   -7.2685   18.0623 C   0  0  0  0  0  0  0  0  0  0  0  0
   12.6703   -6.9273   17.1676 O   0  0  0  0  0  0  0  0  0  0  0  0
   13.1496   -7.1344   19.3759 N   0  0  0  0  0  0  0  0  0  0  0  0
   14.0103   -7.4898   20.3761 C   0  0  0  0  0  0  0  0  0  0  0  0
   15.2360   -8.0052   20.0773 N   0  0  0  0  0  0  0  0  0  0  0  0
   12.2641   -6.7730   19.6097 H   0  0  0  0  0  0  0  0  0  0  0  0
   17.4875   -8.9319   15.4327 C   0  0  0  0  0  0  0  0  0  0  0  0
   18.7261   -9.0647   15.6317 O   0  0  0  0  0  0  0  0  0  0  0  0
   16.9562   -9.1306   14.1577 O   0  0  0  0  0  0  0  0  0  0  0  0
   17.2394  -10.2949   13.3962 C   0  0  0  0  0  0  0  0  0  0  0  0
   17.2817   -9.9436   11.9523 C   0  0  0  0  0  0  0  0  0  0  0  0
   16.2228  -10.2933   11.1197 C   0  0  0  0  0  0  0  0  0  0  0  0
   16.2729   -9.9219    9.7770 C   0  0  0  0  0  0  0  0  0  0  0  0
   15.3160  -10.2415    9.0192 O   0  0  0  0  0  0  0  0  0  0  0  0
   17.3459   -9.2188    9.2978 N   0  0  0  0  0  0  0  0  0  0  0  0
   17.3931   -8.8541    7.9817 C   0  0  0  0  0  0  0  0  0  0  0  0
   18.4785   -8.1348    7.4789 C   0  0  0  0  0  0  0  0  0  0  0  0
   18.5185   -7.7442    6.0459 C   0  0  0  0  0  0  0  0  0  0  0  0
   19.5234   -7.7858    8.3319 C   0  0  0  0  0  0  0  0  0  0  0  0
   19.4744   -8.1580    9.6742 C   0  0  0  0  0  0  0  0  0  0  0  0
   18.3752   -8.8785   10.1479 C   0  0  0  0  0  0  0  0  0  0  0  0
   18.3296   -9.2391   11.4564 N   0  0  0  0  0  0  0  0  0  0  0  0
   13.5885   -7.3558   21.7994 C   0  0  0  0  0  0  0  0  0  0  0  0
   12.6861   -6.1809   21.9670 C   0  0  0  0  0  0  0  0  0  0  0  0
   12.7737   -5.3874   23.1168 C   0  0  0  0  0  0  0  0  0  0  0  0
   11.9416   -4.2731   23.2635 C   0  0  0  0  0  0  0  0  0  0  0  0
   11.0242   -3.9485   22.2593 C   0  0  0  0  0  0  0  0  0  0  0  0
   10.9394   -4.7370   21.1076 C   0  0  0  0  0  0  0  0  0  0  0  0
   11.7711   -5.8513   20.9603 C   0  0  0  0  0  0  0  0  0  0  0  0
  1  2  1  0  0  0
  2  3  2  0  0  0
  3  4  1  0  0  0
  4  5  1  0  0  0
  5  6  2  0  0  0
  6  7  1  0  0  0
  7  8  2  0  0  0
  7  9  1  0  0  0
  9 10  1  0  0  0
 10 29  1  0  0  0
 29 30  1  0  0  0
 30 31  2  0  0  0
 31 32  1  0  0  0
 32 33  2  0  0  0
 33 34  1  0  0  0
 34 35  2  0  0  0
 10 11  2  0  0  0
  3 13  1  0  0  0
 13 14  2  0  0  0
 13 15  1  0  0  0
 15 16  1  0  0  0
 16 17  1  0  0  0
 17 18  2  0  0  0
 18 19  1  0  0  0
 19 20  2  0  0  0
 19 21  1  0  0  0
 21 22  1  0  0  0
 22 23  2  0  0  0
 23 24  1  0  0  0
 23 25  1  0  0  0
 25 26  2  0  0  0
 26 27  1  0  0  0
 27 28  2  0  0  0
  6  2  1  0  0  0
 35 30  1  0  0  0
 28 17  1  0  0  0
 11  5  1  0  0  0
 27 21  1  0  0  0
  9 12  1  0  0  0
M  END
>  <minimizedAffinity>
-6.61416

>  <minimizedRMSD>
3.38540

$$$$
46586060 CSSS00105988595 MCULE-6482781676 MolPort-007-337-928 PubChem-46574751 Z148407712 ZINC000046586060


 27 30  0  0  0  0  0  0  0  0999 V2000
   16.3785   -8.4093   13.8406 C   0  0  0  0  0  0  0  0  0  0  0  0
   15.5605   -7.4758   14.0684 O   0  0  0  0  0  0  0  0  0  0  0  0
   16.7784   -9.3077   14.9508 C   0  0  0  0  0  0  0  0  0  0  0  0
   16.4915   -8.9139   16.2223 N   0  0  0  0  0  0  0  0  0  0  0  0
   16.8100   -9.6498   17.2873 N   0  0  0  0  0  0  0  0  0  0  0  0
   17.4423  -10.8430   17.1668 C   0  0  0  0  0  0  0  0  0  0  0  0
   17.7241  -11.5045   18.2022 O   0  0  0  0  0  0  0  0  0  0  0  0
   17.7709  -11.3212   15.8938 C   0  0  0  0  0  0  0  0  0  0  0  0
   18.4224  -12.5535   15.7320 C   0  0  0  0  0  0  0  0  0  0  0  0
   18.7415  -13.0205   14.4558 C   0  0  0  0  0  0  0  0  0  0  0  0
   18.4121  -12.2613   13.3324 C   0  0  0  0  0  0  0  0  0  0  0  0
   17.7641  -11.0336   13.4840 C   0  0  0  0  0  0  0  0  0  0  0  0
   17.4358  -10.5452   14.7594 C   0  0  0  0  0  0  0  0  0  0  0  0
   16.5800   -9.3180   18.1852 H   0  0  0  0  0  0  0  0  0  0  0  0
   16.8951   -8.5793   12.5550 O   0  0  0  0  0  0  0  0  0  0  0  0
   16.5335   -9.6789   11.7329 C   0  0  0  0  0  0  0  0  0  0  0  0
   14.5781  -10.6790    9.5291 Cl  0  0  0  0  0  0  0  0  0  0  0  0
   16.0716   -9.7972    9.2476 C   0  0  0  0  0  0  0  0  0  0  0  0
   16.8836   -9.3745   10.3161 C   0  0  0  0  0  0  0  0  0  0  0  0
   18.0714   -8.6921   10.0429 C   0  0  0  0  0  0  0  0  0  0  0  0
   18.4313   -8.4239    8.7235 C   0  0  0  0  0  0  0  0  0  0  0  0
   19.6131   -7.7381    8.4313 C   0  0  0  0  0  0  0  0  0  0  0  0
   19.9565   -7.4797    7.1003 C   0  0  0  0  0  0  0  0  0  0  0  0
   19.1204   -7.9064    6.0625 C   0  0  0  0  0  0  0  0  0  0  0  0
   17.9366   -8.5941    6.3505 C   0  0  0  0  0  0  0  0  0  0  0  0
   17.5875   -8.8554    7.6784 C   0  0  0  0  0  0  0  0  0  0  0  0
   16.4409   -9.5260    7.9659 N   0  0  0  0  0  0  0  0  0  0  0  0
 17 18  1  0  0  0
 18 19  2  0  0  0
 19 16  1  0  0  0
 16 15  1  0  0  0
 15  1  1  0  0  0
  1  2  2  0  0  0
  1  3  1  0  0  0
  3  4  2  0  0  0
  4  5  1  0  0  0
  5  6  1  0  0  0
  6  7  2  0  0  0
  6  8  1  0  0  0
  8  9  2  0  0  0
  9 10  1  0  0  0
 10 11  2  0  0  0
 11 12  1  0  0  0
 12 13  2  0  0  0
 19 20  1  0  0  0
 20 21  2  0  0  0
 21 22  1  0  0  0
 22 23  2  0  0  0
 23 24  1  0  0  0
 24 25  2  0  0  0
 25 26  1  0  0  0
 26 27  2  0  0  0
 27 18  1  0  0  0
 13  3  1  0  0  0
 26 21  1  0  0  0
 13  8  1  0  0  0
  5 14  1  0  0  0
M  END
>  <minimizedAffinity>
-6.60882

>  <minimizedRMSD>
1.54141

$$$$
CSSS09120794407


 25 27  0  0  0  0  0  0  0  0999 V2000
   19.1072  -11.6238   13.6471 C   0  0  0  0  0  0  0  0  0  0  0  0
   18.1700  -10.8010   14.4652 C   0  0  0  0  0  0  0  0  0  0  0  0
   18.4832  -10.5591   15.8065 C   0  0  0  0  0  0  0  0  0  0  0  0
   17.6300   -9.7898   16.6017 C   0  0  0  0  0  0  0  0  0  0  0  0
   16.4587   -9.2539   16.0586 C   0  0  0  0  0  0  0  0  0  0  0  0
   16.1394   -9.4962   14.7188 C   0  0  0  0  0  0  0  0  0  0  0  0
   16.9853  -10.2714   13.9182 C   0  0  0  0  0  0  0  0  0  0  0  0
   15.3849   -8.2939   17.0592 S   0  0  0  0  0  0  0  0  0  0  0  0
   16.1357   -7.9782   18.5829 N   0  0  0  0  0  0  0  0  0  0  0  0
   15.0956   -6.9844   16.3808 O   0  0  0  0  0  0  0  0  0  0  0  0
   14.0996   -9.0403   17.2780 O   0  0  0  0  0  0  0  0  0  0  0  0
   17.0082   -7.4714   18.4335 H   0  0  0  0  0  0  0  0  0  0  0  0
   16.3317   -8.8610   19.0547 H   0  0  0  0  0  0  0  0  0  0  0  0
   16.6227  -10.4847   12.4859 C   0  0  0  0  0  0  0  0  0  0  0  0
   17.3241   -9.5211   11.6541 N   0  0  0  0  0  0  0  0  0  0  0  0
   17.9194   -8.8636   12.0813 H   0  0  0  0  0  0  0  0  0  0  0  0
   17.1733   -9.5019   10.2349 C   0  0  0  0  0  0  0  0  0  0  0  0
   17.9647   -8.8253    9.3251 C   0  0  0  0  0  0  0  0  0  0  0  0
   19.0675   -8.0267    9.6293 C   0  0  0  0  0  0  0  0  0  0  0  0
   19.7618   -7.4111    8.5785 C   0  0  0  0  0  0  0  0  0  0  0  0
   19.3537   -7.5960    7.2462 C   0  0  0  0  0  0  0  0  0  0  0  0
   18.2447   -8.3996    6.9435 C   0  0  0  0  0  0  0  0  0  0  0  0
   17.5509   -9.0140    7.9857 C   0  0  0  0  0  0  0  0  0  0  0  0
   16.4668   -9.8097    7.7880 N   0  0  0  0  0  0  0  0  0  0  0  0
   16.0158  -10.2882    9.3211 S   0  0  0  0  0  0  0  0  0  0  0  0
  1  2  1  0  0  0
  2  3  2  0  0  0
  3  4  1  0  0  0
  4  5  2  0  0  0
  5  6  1  0  0  0
  6  7  2  0  0  0
  7 14  1  0  0  0
 14 15  1  0  0  0
 15 17  1  0  0  0
 17 18  2  0  0  0
 18 19  1  0  0  0
 19 20  2  0  0  0
 20 21  1  0  0  0
 21 22  2  0  0  0
 22 23  1  0  0  0
 23 24  2  0  0  0
 24 25  1  0  0  0
  5  8  1  0  0  0
  8  9  1  0  0  0
  8 10  2  0  0  0
  8 11  2  0  0  0
  7  2  1  0  0  0
 25 17  1  0  0  0
 23 18  1  0  0  0
 15 16  1  0  0  0
  9 12  1  0  0  0
  9 13  1  0  0  0
M  END
>  <minimizedAffinity>
-6.60620

>  <minimizedRMSD>
0.57884

$$$$
CSSS03166117727


 25 28  0  0  0  0  0  0  0  0999 V2000
   16.8539  -10.6978   11.9000 O   0  0  0  0  0  0  0  0  0  0  0  0
   17.8328   -9.9112   12.0158 C   0  0  0  0  0  0  0  0  0  0  0  0
   18.3394   -9.2016   10.8811 N   0  0  0  0  0  0  0  0  0  0  0  0
   18.4519   -9.7187   13.2882 N   0  0  0  0  0  0  0  0  0  0  0  0
   19.1072   -8.6028   11.0265 H   0  0  0  0  0  0  0  0  0  0  0  0
   19.2227   -9.1097   13.3527 H   0  0  0  0  0  0  0  0  0  0  0  0
   17.9859  -10.3892   14.4939 C   0  0  0  0  0  0  0  0  0  0  0  0
   16.4865  -10.1674   14.6661 C   0  0  0  0  0  0  0  0  0  0  0  0
   16.7763   -9.2937   15.8645 C   0  0  0  0  0  0  0  0  0  0  0  0
   16.1972   -9.8024   17.1767 C   0  0  0  0  0  0  0  0  0  0  0  0
   15.4079   -8.6262   17.7798 C   0  0  0  0  0  0  0  0  0  0  0  0
   15.5307   -7.5051   16.8590 N   0  0  0  0  0  0  0  0  0  0  0  0
   16.3203   -7.8977   15.7585 C   0  0  0  0  0  0  0  0  0  0  0  0
   16.5916   -7.1235   14.8027 O   0  0  0  0  0  0  0  0  0  0  0  0
   18.2640   -9.5086   15.7056 C   0  0  0  0  0  0  0  0  0  0  0  0
   15.1274   -6.6158   16.9845 H   0  0  0  0  0  0  0  0  0  0  0  0
   17.8175   -9.2937    9.5506 C   0  0  0  0  0  0  0  0  0  0  0  0
   18.3392   -8.6968    8.4329 C   0  0  0  0  0  0  0  0  0  0  0  0
   19.4587   -7.8815    8.2867 C   0  0  0  0  0  0  0  0  0  0  0  0
   19.7433   -7.4147    6.9931 C   0  0  0  0  0  0  0  0  0  0  0  0
   18.9189   -7.7684    5.9069 C   0  0  0  0  0  0  0  0  0  0  0  0
   17.8054   -8.5944    6.1245 C   0  0  0  0  0  0  0  0  0  0  0  0
   17.5664   -9.0231    7.3889 N   0  0  0  0  0  0  0  0  0  0  0  0
   16.5700   -9.8020    7.7773 N   0  0  0  0  0  0  0  0  0  0  0  0
   16.6932   -9.9919    9.1155 C   0  0  0  0  0  0  0  0  0  0  0  0
  1  2  2  0  0  0
  2  3  1  0  0  0
  3 17  1  0  0  0
 17 18  2  0  0  0
 18 19  1  0  0  0
 19 20  2  0  0  0
 20 21  1  0  0  0
 21 22  2  0  0  0
 22 23  1  0  0  0
 23 24  1  0  0  0
 24 25  2  0  0  0
  2  4  1  0  0  0
  4  7  1  0  0  0
  7  8  1  0  0  0
  8  9  1  0  0  0
  9 10  1  0  0  0
 10 11  1  0  0  0
 11 12  1  0  0  0
 12 13  1  0  0  0
 13 14  2  0  0  0
  9 15  1  0  0  0
 25 17  1  0  0  0
 15  7  1  0  0  0
 23 18  1  0  0  0
 13  9  1  0  0  0
  3  5  1  0  0  0
  4  6  1  0  0  0
 12 16  1  0  0  0
M  END
>  <minimizedAffinity>
-6.60497

>  <minimizedRMSD>
1.08191

$$$$
CSSS00159986108 MCULE-7624135735 MolPort-046-747-701


 25 28  0  0  0  0  0  0  0  0999 V2000
   18.3365  -12.0790   13.4550 O   0  0  0  0  0  0  0  0  0  0  0  0
   17.7717  -10.9512   13.4296 C   0  0  0  0  0  0  0  0  0  0  0  0
   17.5600  -10.2870   12.1815 N   0  0  0  0  0  0  0  0  0  0  0  0
   17.1149   -9.4089   12.1784 H   0  0  0  0  0  0  0  0  0  0  0  0
   17.3312  -10.3187   14.6850 C   0  0  0  0  0  0  0  0  0  0  0  0
   17.8095  -10.8006   15.9324 C   0  0  0  0  0  0  0  0  0  0  0  0
   17.4012  -10.2097   17.1441 C   0  0  0  0  0  0  0  0  0  0  0  0
   16.5155   -9.1419   17.0559 C   0  0  0  0  0  0  0  0  0  0  0  0
   15.9771   -8.4109   18.0414 N   0  0  0  0  0  0  0  0  0  0  0  0
   15.2002   -7.5162   17.4323 N   0  0  0  0  0  0  0  0  0  0  0  0
   15.2243   -7.6499   16.1068 N   0  0  0  0  0  0  0  0  0  0  0  0
   16.0538   -8.6751   15.8693 C   0  0  0  0  0  0  0  0  0  0  0  0
   16.4315   -9.2294   14.6514 C   0  0  0  0  0  0  0  0  0  0  0  0
   16.1242   -8.5132   19.0095 H   0  0  0  0  0  0  0  0  0  0  0  0
   17.9811  -10.8671   10.9171 C   0  0  0  0  0  0  0  0  0  0  0  0
   17.4198  -10.0704    9.7915 C   0  0  0  0  0  0  0  0  0  0  0  0
   16.1576  -10.2002    9.3158 N   0  0  0  0  0  0  0  0  0  0  0  0
   15.9620   -9.3011    8.3530 N   0  0  0  0  0  0  0  0  0  0  0  0
   17.1042   -8.6037    8.2359 C   0  0  0  0  0  0  0  0  0  0  0  0
   17.3420   -7.5771    7.3828 N   0  0  0  0  0  0  0  0  0  0  0  0
   18.5675   -6.9692    7.4142 C   0  0  0  0  0  0  0  0  0  0  0  0
   19.5642   -7.4016    8.3211 C   0  0  0  0  0  0  0  0  0  0  0  0
   19.3002   -8.4672    9.2015 C   0  0  0  0  0  0  0  0  0  0  0  0
   18.0391   -9.0464    9.1190 C   0  0  0  0  0  0  0  0  0  0  0  0
   15.1390   -9.1723    7.8283 H   0  0  0  0  0  0  0  0  0  0  0  0
  1  2  2  0  0  0
  2  3  1  0  0  0
  3 15  1  0  0  0
 15 16  1  0  0  0
 16 17  2  0  0  0
 17 18  1  0  0  0
 18 19  1  0  0  0
 19 20  2  0  0  0
 20 21  1  0  0  0
 21 22  2  0  0  0
 22 23  1  0  0  0
 23 24  2  0  0  0
  2  5  1  0  0  0
  5  6  2  0  0  0
  6  7  1  0  0  0
  7  8  2  0  0  0
  8  9  1  0  0  0
  9 10  1  0  0  0
 10 11  2  0  0  0
 11 12  1  0  0  0
 12 13  2  0  0  0
 24 16  1  0  0  0
 13  5  1  0  0  0
 24 19  1  0  0  0
 12  8  1  0  0  0
  3  4  1  0  0  0
 18 25  1  0  0  0
  9 14  1  0  0  0
M  END
>  <minimizedAffinity>
-6.60312

>  <minimizedRMSD>
0.59034

$$$$
215602944 CSSS00160099894 MCULE-7428392051 MolPort-035-375-443 PubChem-77086643 ZINC000215602944


 24 25  0  0  0  0  0  0  0  0999 V2000
   16.7379  -10.2035   14.3165 N   0  0  0  0  0  0  0  0  0  0  0  0
   17.4099  -10.0099   13.0683 C   0  0  0  0  0  0  0  0  0  0  0  0
   18.6686   -9.9360   13.0485 O   0  0  0  0  0  0  0  0  0  0  0  0
   15.7555  -10.2662   14.3234 H   0  0  0  0  0  0  0  0  0  0  0  0
   16.6156   -9.8965   11.8162 C   0  0  0  0  0  0  0  0  0  0  0  0
   17.1587   -9.4922   10.5699 C   0  0  0  0  0  0  0  0  0  0  0  0
   18.5142   -9.1611   10.4106 C   0  0  0  0  0  0  0  0  0  0  0  0
   19.0118   -8.7672    9.1660 C   0  0  0  0  0  0  0  0  0  0  0  0
   18.1606   -8.6987    8.0618 C   0  0  0  0  0  0  0  0  0  0  0  0
   18.7870   -8.2050    6.5042 Cl  0  0  0  0  0  0  0  0  0  0  0  0
   16.8098   -9.0239    8.1988 C   0  0  0  0  0  0  0  0  0  0  0  0
   16.3041   -9.4189    9.4406 C   0  0  0  0  0  0  0  0  0  0  0  0
   14.9880   -9.7321    9.5569 N   0  0  0  0  0  0  0  0  0  0  0  0
   14.4504  -10.1209   10.7407 C   0  0  0  0  0  0  0  0  0  0  0  0
   13.0050  -10.4547   10.8246 C   0  0  0  0  0  0  0  0  0  0  0  0
   15.2504  -10.2081   11.8787 C   0  0  0  0  0  0  0  0  0  0  0  0
   17.4584  -10.3109   15.5760 C   0  0  0  0  0  0  0  0  0  0  0  0
   17.2012   -9.0815   16.4279 C   0  0  0  0  0  0  0  0  0  0  0  0
   15.8598   -8.4654   16.0725 C   0  0  0  0  0  0  0  0  0  0  0  0
   15.2529   -7.5976   19.7951 C   0  0  0  0  0  0  0  0  0  0  0  0
   15.8437   -8.1003   18.5664 N   0  0  0  0  0  0  0  0  0  0  0  0
   15.2017   -7.9448   17.3008 C   0  0  0  0  0  0  0  0  0  0  0  0
   14.0959   -7.3474   17.2107 O   0  0  0  0  0  0  0  0  0  0  0  0
   16.7124   -8.5617   18.6079 H   0  0  0  0  0  0  0  0  0  0  0  0
 20 21  1  0  0  0
 21 22  1  0  0  0
 22 23  2  0  0  0
 22 19  1  0  0  0
 19 18  1  0  0  0
 18 17  1  0  0  0
 17  1  1  0  0  0
  1  2  1  0  0  0
  2  3  2  0  0  0
  2  5  1  0  0  0
  5  6  2  0  0  0
  6  7  1  0  0  0
  7  8  2  0  0  0
  8  9  1  0  0  0
  9 10  1  0  0  0
  9 11  2  0  0  0
 11 12  1  0  0  0
 12 13  2  0  0  0
 13 14  1  0  0  0
 14 15  1  0  0  0
 14 16  2  0  0  0
 16  5  1  0  0  0
 12  6  1  0  0  0
 21 24  1  0  0  0
  1  4  1  0  0  0
M  END
>  <minimizedAffinity>
-6.59632

>  <minimizedRMSD>
1.52637

$$$$
CSC027608286 252507563 CSSS00027608286 MCULE-6836567266 MolPort-039-000-956 PubChem-119045646 Z1823638207 ZINC000252507563


 26 28  0  0  0  0  0  0  0  0999 V2000
   17.9305  -10.6888   12.8099 C   0  0  0  0  0  0  0  0  0  0  0  0
   17.0369   -9.0266   16.0924 C   0  0  0  0  0  0  0  0  0  0  0  0
   18.3003   -8.8814   16.6767 C   0  0  0  0  0  0  0  0  0  0  0  0
   19.4401   -9.3321   16.0042 C   0  0  0  0  0  0  0  0  0  0  0  0
   19.3191   -9.9286   14.7456 C   0  0  0  0  0  0  0  0  0  0  0  0
   18.0571  -10.0791   14.1607 C   0  0  0  0  0  0  0  0  0  0  0  0
   16.9181   -9.6207   14.8311 C   0  0  0  0  0  0  0  0  0  0  0  0
   16.0274   -7.9656   18.5344 N   0  0  0  0  0  0  0  0  0  0  0  0
   15.6087   -8.4463   16.9284 S   0  0  0  0  0  0  0  0  0  0  0  0
   14.5847   -9.5436   17.0024 O   0  0  0  0  0  0  0  0  0  0  0  0
   15.0344   -7.2721   16.1876 O   0  0  0  0  0  0  0  0  0  0  0  0
   15.1940   -7.6289   19.0167 H   0  0  0  0  0  0  0  0  0  0  0  0
   16.7225   -7.2201   18.4959 H   0  0  0  0  0  0  0  0  0  0  0  0
   18.2920   -9.7116   11.7953 N   0  0  0  0  0  0  0  0  0  0  0  0
   19.0401   -9.0968   11.9726 H   0  0  0  0  0  0  0  0  0  0  0  0
   17.5976   -9.6134   10.5485 C   0  0  0  0  0  0  0  0  0  0  0  0
   18.1459   -8.8816    9.4864 C   0  0  0  0  0  0  0  0  0  0  0  0
   19.3790   -8.2252    9.5990 C   0  0  0  0  0  0  0  0  0  0  0  0
   19.8905   -7.5057    8.5154 C   0  0  0  0  0  0  0  0  0  0  0  0
   19.1743   -7.4387    7.3165 C   0  0  0  0  0  0  0  0  0  0  0  0
   17.9430   -8.0900    7.1936 C   0  0  0  0  0  0  0  0  0  0  0  0
   17.2606   -8.0152    6.0240 F   0  0  0  0  0  0  0  0  0  0  0  0
   17.4236   -8.8134    8.2760 C   0  0  0  0  0  0  0  0  0  0  0  0
   16.2281   -9.4501    8.1679 N   0  0  0  0  0  0  0  0  0  0  0  0
   15.7154  -10.1538    9.2103 C   0  0  0  0  0  0  0  0  0  0  0  0
   16.3958  -10.2313   10.3840 N   0  0  0  0  0  0  0  0  0  0  0  0
  8  9  1  0  0  0
  9 10  2  0  0  0
  9 11  2  0  0  0
  9  2  1  0  0  0
  2  3  2  0  0  0
  3  4  1  0  0  0
  4  5  2  0  0  0
  5  6  1  0  0  0
  6  1  1  0  0  0
  1 14  1  0  0  0
 14 16  1  0  0  0
 16 17  1  0  0  0
 17 18  2  0  0  0
 18 19  1  0  0  0
 19 20  2  0  0  0
 20 21  1  0  0  0
 21 22  1  0  0  0
 21 23  2  0  0  0
 23 24  1  0  0  0
 24 25  2  0  0  0
 25 26  1  0  0  0
  6  7  2  0  0  0
  7  2  1  0  0  0
 26 16  2  0  0  0
 23 17  1  0  0  0
  8 12  1  0  0  0
  8 13  1  0  0  0
 14 15  1  0  0  0
M  END
>  <minimizedAffinity>
-6.56789

>  <minimizedRMSD>
1.12212

$$$$
CSSS08601252243


 28 29  0  0  0  0  0  0  0  0999 V2000
   17.3290   -9.6643   14.1189 N   0  0  0  0  0  0  0  0  0  0  0  0
   17.7290   -9.7808   12.7483 C   0  0  0  0  0  0  0  0  0  0  0  0
   18.6705  -10.5546   12.4250 O   0  0  0  0  0  0  0  0  0  0  0  0
   17.0420   -9.0046   11.7588 N   0  0  0  0  0  0  0  0  0  0  0  0
   16.5881   -9.0494   14.3244 H   0  0  0  0  0  0  0  0  0  0  0  0
   16.3166   -8.4233   12.0829 H   0  0  0  0  0  0  0  0  0  0  0  0
   17.2973   -8.9826   10.3444 C   0  0  0  0  0  0  0  0  0  0  0  0
   18.3522   -8.2321    9.8077 C   0  0  0  0  0  0  0  0  0  0  0  0
   18.5828   -8.2240    8.4349 C   0  0  0  0  0  0  0  0  0  0  0  0
   19.6321   -7.4783    7.8914 C   0  0  0  0  0  0  0  0  0  0  0  0
   19.8462   -7.4842    6.5090 C   0  0  0  0  0  0  0  0  0  0  0  0
   19.0125   -8.2341    5.6718 C   0  0  0  0  0  0  0  0  0  0  0  0
   17.9611   -8.9816    6.2131 C   0  0  0  0  0  0  0  0  0  0  0  0
   17.7428   -8.9792    7.5937 C   0  0  0  0  0  0  0  0  0  0  0  0
   16.7243   -9.7020    8.1271 N   0  0  0  0  0  0  0  0  0  0  0  0
   16.4773   -9.7269    9.4681 C   0  0  0  0  0  0  0  0  0  0  0  0
   15.3304  -10.5508    9.9876 C   0  0  0  0  0  0  0  0  0  0  0  0
   15.7147  -11.8754   10.0894 F   0  0  0  0  0  0  0  0  0  0  0  0
   14.2453  -10.4679    9.1322 F   0  0  0  0  0  0  0  0  0  0  0  0
   14.9489  -10.0878   11.2339 F   0  0  0  0  0  0  0  0  0  0  0  0
   18.2157  -11.8237   14.8224 C   0  0  0  0  0  0  0  0  0  0  0  0
   17.9348  -10.3870   15.2371 C   0  0  0  0  0  0  0  0  0  0  0  0
   19.2458   -9.7189   15.6562 C   0  0  0  0  0  0  0  0  0  0  0  0
   19.0007   -8.5316   16.3503 O   0  0  0  0  0  0  0  0  0  0  0  0
   18.5166   -7.9163   15.7777 H   0  0  0  0  0  0  0  0  0  0  0  0
   16.9449  -10.3899   16.4006 C   0  0  0  0  0  0  0  0  0  0  0  0
   16.1953   -9.2105   16.4319 O   0  0  0  0  0  0  0  0  0  0  0  0
   16.7895   -8.4527   16.5484 H   0  0  0  0  0  0  0  0  0  0  0  0
 21 22  1  0  0  0
 22 23  1  0  0  0
 23 24  1  0  0  0
 22 26  1  0  0  0
 26 27  1  0  0  0
 22  1  1  0  0  0
  1  2  1  0  0  0
  2  3  2  0  0  0
  2  4  1  0  0  0
  4  7  1  0  0  0
  7  8  2  0  0  0
  8  9  1  0  0  0
  9 10  2  0  0  0
 10 11  1  0  0  0
 11 12  2  0  0  0
 12 13  1  0  0  0
 13 14  2  0  0  0
 14 15  1  0  0  0
 15 16  2  0  0  0
 16 17  1  0  0  0
 17 18  1  0  0  0
 17 19  1  0  0  0
 17 20  1  0  0  0
 16  7  1  0  0  0
 14  9  1  0  0  0
 24 25  1  0  0  0
 27 28  1  0  0  0
  1  5  1  0  0  0
  4  6  1  0  0  0
M  END
>  <minimizedAffinity>
-6.56380

>  <minimizedRMSD>
1.77933

$$$$
CSC102902404 CSSS00102902404 MCULE-4418106240 MolPort-046-501-007 PubChem-138033743 Z2614367397


 26 28  0  0  0  0  0  0  0  0999 V2000
   18.5088   -8.2571    8.2558 N   0  0  0  0  0  0  0  0  0  0  0  0
   19.5703   -7.9026    8.9781 N   0  0  0  0  0  0  0  0  0  0  0  0
   19.4402   -8.3843   10.2438 C   0  0  0  0  0  0  0  0  0  0  0  0
   18.2393   -9.0651   10.2910 C   0  0  0  0  0  0  0  0  0  0  0  0
   17.5722   -9.7582   11.2907 C   0  0  0  0  0  0  0  0  0  0  0  0
   16.3672  -10.3237   10.9747 N   0  0  0  0  0  0  0  0  0  0  0  0
   15.8347  -10.2111    9.7153 C   0  0  0  0  0  0  0  0  0  0  0  0
   16.5013   -9.5255    8.7379 N   0  0  0  0  0  0  0  0  0  0  0  0
   17.6951   -8.9666    9.0550 C   0  0  0  0  0  0  0  0  0  0  0  0
   18.3507   -9.1724    5.9905 C   0  0  0  0  0  0  0  0  0  0  0  0
   18.2979   -7.9163    6.8413 C   0  0  0  0  0  0  0  0  0  0  0  0
   19.3687   -6.9585    6.3431 C   0  0  0  0  0  0  0  0  0  0  0  0
   16.9450   -7.2507    6.6632 C   0  0  0  0  0  0  0  0  0  0  0  0
   18.1270   -9.8749   12.6014 N   0  0  0  0  0  0  0  0  0  0  0  0
   18.7152   -9.1599   12.9360 H   0  0  0  0  0  0  0  0  0  0  0  0
   17.8498  -11.0168   13.4563 C   0  0  0  0  0  0  0  0  0  0  0  0
   17.4069  -10.5408   14.7939 C   0  0  0  0  0  0  0  0  0  0  0  0
   16.6627   -9.4346   14.9774 N   0  0  0  0  0  0  0  0  0  0  0  0
   16.5317   -9.3898   16.3169 C   0  0  0  0  0  0  0  0  0  0  0  0
   17.1932  -10.4509   16.9040 C   0  0  0  0  0  0  0  0  0  0  0  0
   17.7234  -11.1370   15.9194 O   0  0  0  0  0  0  0  0  0  0  0  0
   15.7874   -8.3464   17.0308 C   0  0  0  0  0  0  0  0  0  0  0  0
   15.9103   -8.2135   18.4431 N   0  0  0  0  0  0  0  0  0  0  0  0
   15.0347   -7.5619   16.3961 O   0  0  0  0  0  0  0  0  0  0  0  0
   16.4971   -8.8236   18.9458 H   0  0  0  0  0  0  0  0  0  0  0  0
   15.4084   -7.5115   18.9170 H   0  0  0  0  0  0  0  0  0  0  0  0
 10 11  1  0  0  0
 11 12  1  0  0  0
 11 13  1  0  0  0
 11  1  1  0  0  0
  1  2  1  0  0  0
  2  3  2  0  0  0
  3  4  1  0  0  0
  4  5  2  0  0  0
  5 14  1  0  0  0
 14 16  1  0  0  0
 16 17  1  0  0  0
 17 18  2  0  0  0
 18 19  1  0  0  0
 19 20  2  0  0  0
 20 21  1  0  0  0
 19 22  1  0  0  0
 22 23  1  0  0  0
 22 24  2  0  0  0
  5  6  1  0  0  0
  6  7  2  0  0  0
  7  8  1  0  0  0
  8  9  2  0  0  0
  9  1  1  0  0  0
  9  4  1  0  0  0
 21 17  1  0  0  0
 14 15  1  0  0  0
 23 25  1  0  0  0
 23 26  1  0  0  0
M  END
>  <minimizedAffinity>
-6.54970

>  <minimizedRMSD>
1.18148

$$$$
2100534587 CSSS06359893350 MCULE-6113717463 MolPort-047-958-955 PubChem-157017009


 28 30  0  0  0  0  0  0  0  0999 V2000
   16.8497   -9.9555   13.6195 C   0  0  0  0  0  0  0  0  0  0  0  0
   17.5383  -11.0911   14.0884 C   0  0  0  0  0  0  0  0  0  0  0  0
   18.0442  -12.1121   13.1112 C   0  0  0  0  0  0  0  0  0  0  0  0
   17.6895  -11.2942   15.4341 N   0  0  0  0  0  0  0  0  0  0  0  0
   18.4213  -12.4661   15.9129 C   0  0  0  0  0  0  0  0  0  0  0  0
   17.1667  -10.4222   16.3497 C   0  0  0  0  0  0  0  0  0  0  0  0
   17.3537  -10.6260   17.5826 O   0  0  0  0  0  0  0  0  0  0  0  0
   16.4319   -9.2929   15.9291 C   0  0  0  0  0  0  0  0  0  0  0  0
   16.2701   -9.0741   14.5436 C   0  0  0  0  0  0  0  0  0  0  0  0
   15.4634   -7.9203   14.0288 C   0  0  0  0  0  0  0  0  0  0  0  0
   15.8503   -8.3588   16.9331 C   0  0  0  0  0  0  0  0  0  0  0  0
   16.3870   -8.2841   18.2508 N   0  0  0  0  0  0  0  0  0  0  0  0
   14.8786   -7.6168   16.6307 O   0  0  0  0  0  0  0  0  0  0  0  0
   17.1466   -8.8561   18.5062 H   0  0  0  0  0  0  0  0  0  0  0  0
   15.9983   -7.6605   18.9061 H   0  0  0  0  0  0  0  0  0  0  0  0
   17.7387   -9.5591   11.2729 C   0  0  0  0  0  0  0  0  0  0  0  0
   18.9246   -9.4317   11.6772 O   0  0  0  0  0  0  0  0  0  0  0  0
   16.6705   -9.7147   12.2139 N   0  0  0  0  0  0  0  0  0  0  0  0
   15.7486   -9.6523   11.8741 H   0  0  0  0  0  0  0  0  0  0  0  0
   20.0518   -7.5290    9.6234 C   0  0  0  0  0  0  0  0  0  0  0  0
   19.1103   -8.0321    8.6403 N   0  0  0  0  0  0  0  0  0  0  0  0
   19.1216   -7.7788    7.2992 C   0  0  0  0  0  0  0  0  0  0  0  0
   18.0507   -8.4591    6.6804 C   0  0  0  0  0  0  0  0  0  0  0  0
   17.4464   -9.0899    7.6954 N   0  0  0  0  0  0  0  0  0  0  0  0
   16.4172   -9.8981    7.8379 N   0  0  0  0  0  0  0  0  0  0  0  0
   16.3803  -10.1805    9.1741 C   0  0  0  0  0  0  0  0  0  0  0  0
   17.4319   -9.5110    9.8366 C   0  0  0  0  0  0  0  0  0  0  0  0
   18.0572   -8.8415    8.8091 C   0  0  0  0  0  0  0  0  0  0  0  0
 20 21  1  0  0  0
 21 22  1  0  0  0
 22 23  2  0  0  0
 23 24  1  0  0  0
 24 25  1  0  0  0
 25 26  2  0  0  0
 26 27  1  0  0  0
 27 16  1  0  0  0
 16 17  2  0  0  0
 16 18  1  0  0  0
 18  1  1  0  0  0
  1  2  2  0  0  0
  2  3  1  0  0  0
  2  4  1  0  0  0
  4  5  1  0  0  0
  4  6  1  0  0  0
  6  7  2  0  0  0
  6  8  1  0  0  0
  8 11  1  0  0  0
 11 12  1  0  0  0
 11 13  2  0  0  0
  8  9  2  0  0  0
  9 10  1  0  0  0
 27 28  2  0  0  0
 28 21  1  0  0  0
 28 24  1  0  0  0
  9  1  1  0  0  0
 18 19  1  0  0  0
 12 14  1  0  0  0
 12 15  1  0  0  0
M  END
>  <minimizedAffinity>
-6.54310

>  <minimizedRMSD>
0.73382

$$$$
CSC027145017 70020387 CSSS00027145017 MCULE-6175255068 MolPort-020-163-137 PubChem-53625543 Z1132642004 ZINC000070020387


 25 27  0  0  0  0  0  0  0  0999 V2000
   16.7572  -10.4898   14.8227 C   0  0  0  0  0  0  0  0  0  0  0  0
   15.5134  -10.0537   14.0360 C   0  0  0  0  0  0  0  0  0  0  0  0
   15.8327   -8.9458   13.0338 C   0  0  0  0  0  0  0  0  0  0  0  0
   16.9845   -9.3295   12.2213 N   0  0  0  0  0  0  0  0  0  0  0  0
   18.2185   -9.6606   12.9269 C   0  0  0  0  0  0  0  0  0  0  0  0
   17.9586  -10.7934   13.9172 C   0  0  0  0  0  0  0  0  0  0  0  0
   16.8763   -9.5811   10.8068 C   0  0  0  0  0  0  0  0  0  0  0  0
   17.7145   -8.9540    9.8579 C   0  0  0  0  0  0  0  0  0  0  0  0
   17.5228   -9.2612    8.4916 C   0  0  0  0  0  0  0  0  0  0  0  0
   18.3323   -8.6690    7.5177 C   0  0  0  0  0  0  0  0  0  0  0  0
   19.3423   -7.7794    7.8921 C   0  0  0  0  0  0  0  0  0  0  0  0
   19.5490   -7.4824    9.2415 C   0  0  0  0  0  0  0  0  0  0  0  0
   18.7416   -8.0692   10.2196 C   0  0  0  0  0  0  0  0  0  0  0  0
   16.5615  -10.1437    8.1219 N   0  0  0  0  0  0  0  0  0  0  0  0
   15.7771  -10.7471    9.0495 C   0  0  0  0  0  0  0  0  0  0  0  0
   15.9403  -10.4683   10.3681 N   0  0  0  0  0  0  0  0  0  0  0  0
   18.4700   -9.1602   16.1532 C   0  0  0  0  0  0  0  0  0  0  0  0
   17.0902   -9.5637   15.9087 N   0  0  0  0  0  0  0  0  0  0  0  0
   16.0445   -9.0487   16.7454 C   0  0  0  0  0  0  0  0  0  0  0  0
   16.3561   -8.1452   17.8092 N   0  0  0  0  0  0  0  0  0  0  0  0
   14.8472   -9.3925   16.5439 O   0  0  0  0  0  0  0  0  0  0  0  0
   17.2944   -7.8848   17.9543 H   0  0  0  0  0  0  0  0  0  0  0  0
   15.3299   -7.5989   18.6836 C   0  0  0  0  0  0  0  0  0  0  0  0
   15.8993   -7.3367   20.0380 C   0  0  0  0  0  0  0  0  0  0  0  0
   15.1096   -7.2796   21.1075 C   0  0  0  0  0  0  0  0  0  0  0  0
 17 18  1  0  0  0
 18 19  1  0  0  0
 19 20  1  0  0  0
 20 23  1  0  0  0
 23 24  1  0  0  0
 24 25  2  0  0  0
 19 21  2  0  0  0
 18  1  1  0  0  0
  1  2  1  0  0  0
  2  3  1  0  0  0
  3  4  1  0  0  0
  4  7  1  0  0  0
  7  8  1  0  0  0
  8  9  1  0  0  0
  9 10  2  0  0  0
 10 11  1  0  0  0
 11 12  2  0  0  0
 12 13  1  0  0  0
  9 14  1  0  0  0
 14 15  2  0  0  0
 15 16  1  0  0  0
  4  5  1  0  0  0
  5  6  1  0  0  0
  6  1  1  0  0  0
 16  7  2  0  0  0
 13  8  2  0  0  0
 20 22  1  0  0  0
M  END
>  <minimizedAffinity>
-6.54004

>  <minimizedRMSD>
1.69531

$$$$
CSSS00116267715 MCULE-9887241291 PCCVKPUEVQTROD-UHFFFAOYSA-N PubChem-9502523 Z30931898


 27 29  0  0  0  0  0  0  0  0999 V2000
   17.4796  -10.2421   13.9228 C   0  0  0  0  0  0  0  0  0  0  0  0
   17.5764  -11.4356   14.3169 O   0  0  0  0  0  0  0  0  0  0  0  0
   17.4552   -9.1689   14.8684 N   0  0  0  0  0  0  0  0  0  0  0  0
   17.4250   -8.2446   14.5307 H   0  0  0  0  0  0  0  0  0  0  0  0
   19.6922   -7.8729    9.4405 C   0  0  0  0  0  0  0  0  0  0  0  0
   18.4053   -8.6238    9.3901 C   0  0  0  0  0  0  0  0  0  0  0  0
   17.7101   -8.7492    8.1793 C   0  0  0  0  0  0  0  0  0  0  0  0
   16.4966   -9.4611    8.1488 C   0  0  0  0  0  0  0  0  0  0  0  0
   15.9816  -10.0429    9.3177 C   0  0  0  0  0  0  0  0  0  0  0  0
   16.7160   -9.8856   10.4910 C   0  0  0  0  0  0  0  0  0  0  0  0
   16.3770  -10.3718   11.6980 N   0  0  0  0  0  0  0  0  0  0  0  0
   17.3966   -9.9545   12.4868 C   0  0  0  0  0  0  0  0  0  0  0  0
   18.3335   -9.2276   11.7621 C   0  0  0  0  0  0  0  0  0  0  0  0
   17.8728   -9.2023   10.5005 N   0  0  0  0  0  0  0  0  0  0  0  0
   17.4732   -9.3837   16.3090 C   0  0  0  0  0  0  0  0  0  0  0  0
   16.3012   -8.7192   16.9484 C   0  0  0  0  0  0  0  0  0  0  0  0
   15.2195   -8.3042   16.1646 C   0  0  0  0  0  0  0  0  0  0  0  0
   14.1269   -7.6676   16.7604 C   0  0  0  0  0  0  0  0  0  0  0  0
   14.1123   -7.4440   18.1417 C   0  0  0  0  0  0  0  0  0  0  0  0
   15.1978   -7.8535   18.9242 C   0  0  0  0  0  0  0  0  0  0  0  0
   16.2907   -8.4900   18.3288 C   0  0  0  0  0  0  0  0  0  0  0  0
   12.7465   -6.6346   18.8871 S   0  0  0  0  0  0  0  0  0  0  0  0
   13.2396   -5.5146   19.7585 O   0  0  0  0  0  0  0  0  0  0  0  0
   11.8425   -6.0819   17.8215 O   0  0  0  0  0  0  0  0  0  0  0  0
   11.8535   -7.7606   19.8462 N   0  0  0  0  0  0  0  0  0  0  0  0
   12.4582   -8.1424   20.5735 H   0  0  0  0  0  0  0  0  0  0  0  0
   11.5144   -8.5183   19.2535 H   0  0  0  0  0  0  0  0  0  0  0  0
  5  6  1  0  0  0
  6  7  2  0  0  0
  7  8  1  0  0  0
  8  9  2  0  0  0
  9 10  1  0  0  0
 10 11  2  0  0  0
 11 12  1  0  0  0
 12 13  2  0  0  0
 13 14  1  0  0  0
 12  1  1  0  0  0
  1  2  2  0  0  0
  1  3  1  0  0  0
  3 15  1  0  0  0
 15 16  1  0  0  0
 16 17  2  0  0  0
 17 18  1  0  0  0
 18 19  2  0  0  0
 19 20  1  0  0  0
 20 21  2  0  0  0
 19 22  1  0  0  0
 22 23  2  0  0  0
 22 24  2  0  0  0
 22 25  1  0  0  0
 14  6  1  0  0  0
 14 10  1  0  0  0
 21 16  1  0  0  0
  3  4  1  0  0  0
 25 26  1  0  0  0
 25 27  1  0  0  0
M  END
>  <minimizedAffinity>
-6.53416

>  <minimizedRMSD>
3.42652

$$$$
CSC026842631 9778998 CSSS00026842631 MCULE-9427937980 MolPort-004-187-939 PubChem-16328373 Z74626778 ZINC000009778998 ZINC09778998


 31 34  0  0  0  0  0  0  0  0999 V2000
   17.2906  -10.7694   15.1415 C   0  0  0  0  0  0  0  0  0  0  0  0
   17.9719  -11.7232   15.6101 O   0  0  0  0  0  0  0  0  0  0  0  0
   16.6373   -9.8139   16.0503 C   0  0  0  0  0  0  0  0  0  0  0  0
   16.8902   -9.8528   17.4285 C   0  0  0  0  0  0  0  0  0  0  0  0
   16.2662   -8.9429   18.2867 C   0  0  0  0  0  0  0  0  0  0  0  0
   15.3827   -7.9839   17.7809 C   0  0  0  0  0  0  0  0  0  0  0  0
   15.1301   -7.9443   16.4016 C   0  0  0  0  0  0  0  0  0  0  0  0
   15.7534   -8.8532   15.5425 C   0  0  0  0  0  0  0  0  0  0  0  0
   14.7634   -7.0674   18.6934 N   0  0  0  0  0  0  0  0  0  0  0  0
   13.3840   -7.0456   19.0870 C   0  0  0  0  0  0  0  0  0  0  0  0
   12.5675   -7.8905   18.6307 O   0  0  0  0  0  0  0  0  0  0  0  0
   15.3461   -6.3811   19.0917 H   0  0  0  0  0  0  0  0  0  0  0  0
   12.9178   -6.0256   20.0334 C   0  0  0  0  0  0  0  0  0  0  0  0
   12.3992   -4.7847   19.6960 C   0  0  0  0  0  0  0  0  0  0  0  0
   12.0390   -4.0237   20.8177 C   0  0  0  0  0  0  0  0  0  0  0  0
   12.2687   -4.6530   22.0393 C   0  0  0  0  0  0  0  0  0  0  0  0
   12.9247   -6.1655   21.7044 S   0  0  0  0  0  0  0  0  0  0  0  0
   17.1523  -10.6157   13.7602 O   0  0  0  0  0  0  0  0  0  0  0  0
   18.2763  -10.4858   12.9024 C   0  0  0  0  0  0  0  0  0  0  0  0
   20.4884   -7.7254    9.2413 C   0  0  0  0  0  0  0  0  0  0  0  0
   19.1226   -8.0874    8.7653 C   0  0  0  0  0  0  0  0  0  0  0  0
   18.7040   -7.6486    7.5107 C   0  0  0  0  0  0  0  0  0  0  0  0
   17.4322   -7.9742    7.0473 C   0  0  0  0  0  0  0  0  0  0  0  0
   16.5877   -8.7404    7.8505 C   0  0  0  0  0  0  0  0  0  0  0  0
   16.9923   -9.1743    9.0813 N   0  0  0  0  0  0  0  0  0  0  0  0
   16.1443   -9.9244    9.8522 C   0  0  0  0  0  0  0  0  0  0  0  0
   14.9881  -10.2218    9.4437 O   0  0  0  0  0  0  0  0  0  0  0  0
   16.5496  -10.3712   11.1082 C   0  0  0  0  0  0  0  0  0  0  0  0
   17.8261  -10.0476   11.5550 C   0  0  0  0  0  0  0  0  0  0  0  0
   18.6451   -9.2966   10.7776 N   0  0  0  0  0  0  0  0  0  0  0  0
   18.2498   -8.8595    9.5510 C   0  0  0  0  0  0  0  0  0  0  0  0
 20 21  1  0  0  0
 21 22  2  0  0  0
 22 23  1  0  0  0
 23 24  2  0  0  0
 24 25  1  0  0  0
 25 26  1  0  0  0
 26 27  2  0  0  0
 26 28  1  0  0  0
 28 29  2  0  0  0
 29 19  1  0  0  0
 29 30  1  0  0  0
 19 18  1  0  0  0
 18  1  1  0  0  0
  1  2  2  0  0  0
  1  3  1  0  0  0
  3  4  2  0  0  0
  4  5  1  0  0  0
  5  6  2  0  0  0
  6  9  1  0  0  0
  6  7  1  0  0  0
  9 10  1  0  0  0
 10 11  2  0  0  0
 10 13  1  0  0  0
 13 14  2  0  0  0
 14 15  1  0  0  0
 15 16  2  0  0  0
 16 17  1  0  0  0
 17 13  1  0  0  0
  7  8  2  0  0  0
  8  3  1  0  0  0
 30 31  2  0  0  0
 31 21  1  0  0  0
 31 25  1  0  0  0
  9 12  1  0  0  0
M  END
>  <minimizedAffinity>
-6.52813

>  <minimizedRMSD>
1.95303

$$$$
23141421 CSSS03437024644 MCULE-3623707386 MolPort-009-735-540 PubChem-30864844 ZINC000023141421 ZINC23141421


 29 32  0  0  0  0  0  0  0  0999 V2000
   16.3810   -8.0095   13.7533 C   0  0  0  0  0  0  0  0  0  0  0  0
   17.1751   -9.2204   13.6167 N   0  0  0  0  0  0  0  0  0  0  0  0
   17.8032   -9.8924   14.5968 C   0  0  0  0  0  0  0  0  0  0  0  0
   18.3242  -11.0490   14.1478 N   0  0  0  0  0  0  0  0  0  0  0  0
   18.0208  -11.1312   12.8600 N   0  0  0  0  0  0  0  0  0  0  0  0
   17.3265  -10.0199   12.5417 C   0  0  0  0  0  0  0  0  0  0  0  0
   16.7893   -9.7636   11.1895 C   0  0  0  0  0  0  0  0  0  0  0  0
   15.5155  -10.0761   10.7063 C   0  0  0  0  0  0  0  0  0  0  0  0
   14.4006  -10.6665   11.4976 C   0  0  0  0  0  0  0  0  0  0  0  0
   15.4094   -9.7769    9.3824 N   0  0  0  0  0  0  0  0  0  0  0  0
   16.6369   -9.2922    9.1183 C   0  0  0  0  0  0  0  0  0  0  0  0
   17.3638   -8.7979    7.6997 S   0  0  0  0  0  0  0  0  0  0  0  0
   18.8680   -8.5565    8.4903 C   0  0  0  0  0  0  0  0  0  0  0  0
   18.7288   -8.8914    9.8495 C   0  0  0  0  0  0  0  0  0  0  0  0
   17.4656   -9.2777   10.1405 N   0  0  0  0  0  0  0  0  0  0  0  0
   17.9174   -9.3482   16.2990 S   0  0  0  0  0  0  0  0  0  0  0  0
   16.1280   -9.5321   16.5555 C   0  0  0  0  0  0  0  0  0  0  0  0
   15.5874   -8.3398   17.2622 C   0  0  0  0  0  0  0  0  0  0  0  0
   15.0645   -7.4077   16.5955 O   0  0  0  0  0  0  0  0  0  0  0  0
   15.6568   -8.2654   18.6883 N   0  0  0  0  0  0  0  0  0  0  0  0
   16.0990   -8.9967   19.1772 H   0  0  0  0  0  0  0  0  0  0  0  0
   15.1016   -7.1543   19.4489 C   0  0  0  0  0  0  0  0  0  0  0  0
   13.6193   -7.1074   19.2946 C   0  0  0  0  0  0  0  0  0  0  0  0
   12.9873   -5.9027   18.9676 C   0  0  0  0  0  0  0  0  0  0  0  0
   11.5985   -5.8605   18.8107 C   0  0  0  0  0  0  0  0  0  0  0  0
   10.8401   -7.0232   18.9787 C   0  0  0  0  0  0  0  0  0  0  0  0
    9.4949   -6.9821   18.8266 F   0  0  0  0  0  0  0  0  0  0  0  0
   11.4704   -8.2287   19.3021 C   0  0  0  0  0  0  0  0  0  0  0  0
   12.8592   -8.2712   19.4590 C   0  0  0  0  0  0  0  0  0  0  0  0
  1  2  1  0  0  0
  2  3  1  0  0  0
  3 16  1  0  0  0
  3  4  2  0  0  0
 16 17  1  0  0  0
 17 18  1  0  0  0
 18 19  2  0  0  0
 18 20  1  0  0  0
 20 22  1  0  0  0
 22 23  1  0  0  0
 23 24  2  0  0  0
 24 25  1  0  0  0
 25 26  2  0  0  0
 26 27  1  0  0  0
 26 28  1  0  0  0
 28 29  2  0  0  0
 29 23  1  0  0  0
  4  5  1  0  0  0
  5  6  2  0  0  0
  6  7  1  0  0  0
  6  2  1  0  0  0
  7  8  2  0  0  0
  8  9  1  0  0  0
  8 10  1  0  0  0
 10 11  2  0  0  0
 11 12  1  0  0  0
 12 13  1  0  0  0
 13 14  2  0  0  0
 14 15  1  0  0  0
 15  7  1  0  0  0
 15 11  1  0  0  0
 20 21  1  0  0  0
M  END
>  <minimizedAffinity>
-6.52489

>  <minimizedRMSD>
1.38797

$$$$
CSC027899620 78550662 CSSS00027899620 MCULE-3551373969 MolPort-028-263-342 PubChem-72022855 Z1132641990 ZINC000078550662


 24 26  0  0  0  0  0  0  0  0999 V2000
   16.7524  -10.4871   14.8315 C   0  0  0  0  0  0  0  0  0  0  0  0
   17.9580  -10.7976   13.9332 C   0  0  0  0  0  0  0  0  0  0  0  0
   18.2297   -9.6740   12.9337 C   0  0  0  0  0  0  0  0  0  0  0  0
   16.9978   -9.3263   12.2321 N   0  0  0  0  0  0  0  0  0  0  0  0
   15.8537   -8.9298   13.0487 C   0  0  0  0  0  0  0  0  0  0  0  0
   15.5165  -10.0428   14.0374 C   0  0  0  0  0  0  0  0  0  0  0  0
   16.8814   -9.5794   10.8183 C   0  0  0  0  0  0  0  0  0  0  0  0
   17.7155   -8.9548    9.8642 C   0  0  0  0  0  0  0  0  0  0  0  0
   17.5157   -9.2630    8.4994 C   0  0  0  0  0  0  0  0  0  0  0  0
   18.3210   -8.6733    7.5206 C   0  0  0  0  0  0  0  0  0  0  0  0
   19.3345   -7.7849    7.8884 C   0  0  0  0  0  0  0  0  0  0  0  0
   19.5490   -7.4870    9.2363 C   0  0  0  0  0  0  0  0  0  0  0  0
   18.7460   -8.0714   10.2194 C   0  0  0  0  0  0  0  0  0  0  0  0
   16.5509  -10.1442    8.1359 N   0  0  0  0  0  0  0  0  0  0  0  0
   15.7705  -10.7453    9.0683 C   0  0  0  0  0  0  0  0  0  0  0  0
   15.9413  -10.4653   10.3859 N   0  0  0  0  0  0  0  0  0  0  0  0
   16.3466   -8.1465   17.8211 N   0  0  0  0  0  0  0  0  0  0  0  0
   16.0372   -9.0509   16.7567 C   0  0  0  0  0  0  0  0  0  0  0  0
   17.0841   -9.5636   15.9201 N   0  0  0  0  0  0  0  0  0  0  0  0
   18.4626   -9.1540   16.1621 C   0  0  0  0  0  0  0  0  0  0  0  0
   14.8405   -9.3965   16.5545 O   0  0  0  0  0  0  0  0  0  0  0  0
   17.2847   -7.8866   17.9682 H   0  0  0  0  0  0  0  0  0  0  0  0
   15.9130   -7.3167   20.0564 C   0  0  0  0  0  0  0  0  0  0  0  0
   15.3200   -7.5995   18.6921 C   0  0  0  0  0  0  0  0  0  0  0  0
 23 24  1  0  0  0
 24 17  1  0  0  0
 17 18  1  0  0  0
 18 19  1  0  0  0
 19  1  1  0  0  0
  1  2  1  0  0  0
  2  3  1  0  0  0
  3  4  1  0  0  0
  4  7  1  0  0  0
  7  8  1  0  0  0
  8  9  1  0  0  0
  9 10  2  0  0  0
 10 11  1  0  0  0
 11 12  2  0  0  0
 12 13  1  0  0  0
  9 14  1  0  0  0
 14 15  2  0  0  0
 15 16  1  0  0  0
  4  5  1  0  0  0
  5  6  1  0  0  0
 19 20  1  0  0  0
 18 21  2  0  0  0
  6  1  1  0  0  0
 16  7  2  0  0  0
 13  8  2  0  0  0
 17 22  1  0  0  0
M  END
>  <minimizedAffinity>
-6.51713

>  <minimizedRMSD>
1.56081

$$$$
CSC027903311 24840670 CSSS00027903311 MCULE-4939228735 MolPort-003-341-852 PubChem-24582383 Z217028150 ZINC000024840670 ZINC24840670


 29 31  0  0  0  0  0  0  0  0999 V2000
   17.8235   -9.9350   12.2850 C   0  0  0  0  0  0  0  0  0  0  0  0
   16.5722  -10.0728   12.2507 O   0  0  0  0  0  0  0  0  0  0  0  0
   18.5412   -9.9499   13.5259 N   0  0  0  0  0  0  0  0  0  0  0  0
   19.5167   -9.8279   13.4734 H   0  0  0  0  0  0  0  0  0  0  0  0
   17.9841  -10.1243   14.8358 C   0  0  0  0  0  0  0  0  0  0  0  0
   18.3935  -11.2213   15.6021 C   0  0  0  0  0  0  0  0  0  0  0  0
   17.8717  -11.4241   16.8833 C   0  0  0  0  0  0  0  0  0  0  0  0
   16.9337  -10.5297   17.4053 C   0  0  0  0  0  0  0  0  0  0  0  0
   16.5142   -9.4329   16.6460 C   0  0  0  0  0  0  0  0  0  0  0  0
   17.0418   -9.2308   15.3664 C   0  0  0  0  0  0  0  0  0  0  0  0
   15.3489   -8.3012   17.3121 S   0  0  0  0  0  0  0  0  0  0  0  0
   15.2632   -7.0811   16.4367 O   0  0  0  0  0  0  0  0  0  0  0  0
   13.9969   -8.9557   17.3606 O   0  0  0  0  0  0  0  0  0  0  0  0
   15.8214   -7.8369   18.9125 N   0  0  0  0  0  0  0  0  0  0  0  0
   16.2117   -6.8946   18.8989 H   0  0  0  0  0  0  0  0  0  0  0  0
   14.6369   -7.8689   19.7548 C   0  0  0  0  0  0  0  0  0  0  0  0
   15.0594   -7.8079   21.2081 C   0  0  0  0  0  0  0  0  0  0  0  0
   14.5344   -6.5658   20.5219 C   0  0  0  0  0  0  0  0  0  0  0  0
   18.5750   -9.7873   11.0115 C   0  0  0  0  0  0  0  0  0  0  0  0
   18.0163   -8.7230   10.2528 O   0  0  0  0  0  0  0  0  0  0  0  0
   17.5580   -9.3573    7.9334 C   0  0  0  0  0  0  0  0  0  0  0  0
   18.2456   -8.5584    8.8820 C   0  0  0  0  0  0  0  0  0  0  0  0
   19.1621   -7.5924    8.4306 C   0  0  0  0  0  0  0  0  0  0  0  0
   19.3975   -7.4137    7.0672 C   0  0  0  0  0  0  0  0  0  0  0  0
   18.7186   -8.1983    6.1365 C   0  0  0  0  0  0  0  0  0  0  0  0
   18.9690   -8.0116    4.6836 C   0  0  0  0  0  0  0  0  0  0  0  0
   17.8067   -9.1625    6.5695 C   0  0  0  0  0  0  0  0  0  0  0  0
   15.5497  -10.1728    9.1857 C   0  0  0  0  0  0  0  0  0  0  0  0
   16.6280  -10.3503    8.2776 O   0  0  0  0  0  0  0  0  0  0  0  0
 28 29  1  0  0  0
 29 21  1  0  0  0
 21 22  2  0  0  0
 22 20  1  0  0  0
 22 23  1  0  0  0
 20 19  1  0  0  0
 19  1  1  0  0  0
  1  2  2  0  0  0
  1  3  1  0  0  0
  3  5  1  0  0  0
  5  6  2  0  0  0
  6  7  1  0  0  0
  7  8  2  0  0  0
  8  9  1  0  0  0
  9 10  2  0  0  0
  9 11  1  0  0  0
 10  5  1  0  0  0
 11 12  2  0  0  0
 11 13  2  0  0  0
 11 14  1  0  0  0
 14 16  1  0  0  0
 16 17  1  0  0  0
 17 18  1  0  0  0
 18 16  1  0  0  0
 23 24  2  0  0  0
 24 25  1  0  0  0
 25 26  1  0  0  0
 25 27  2  0  0  0
 27 21  1  0  0  0
  3  4  1  0  0  0
 14 15  1  0  0  0
M  END
>  <minimizedAffinity>
-6.50420

>  <minimizedRMSD>
1.58348

$$$$
1776009858 CSSS03437041361 MolPort-046-777-493 PubChem-145869346


 24 25  0  0  0  0  0  0  0  0999 V2000
   17.5989   -9.4003   13.7748 N   0  0  0  0  0  0  0  0  0  0  0  0
   17.9769  -10.1574   12.6189 C   0  0  0  0  0  0  0  0  0  0  0  0
   18.8180  -11.0895   12.7377 O   0  0  0  0  0  0  0  0  0  0  0  0
   16.9225   -8.6921   13.6733 H   0  0  0  0  0  0  0  0  0  0  0  0
   17.3704   -9.8366   11.2994 C   0  0  0  0  0  0  0  0  0  0  0  0
   16.0568  -10.2643   11.0636 C   0  0  0  0  0  0  0  0  0  0  0  0
   15.4270   -9.9971    9.8488 C   0  0  0  0  0  0  0  0  0  0  0  0
   16.0907   -9.3134    8.8781 N   0  0  0  0  0  0  0  0  0  0  0  0
   17.3637   -8.8759    9.0541 C   0  0  0  0  0  0  0  0  0  0  0  0
   17.9994   -8.1773    8.0236 C   0  0  0  0  0  0  0  0  0  0  0  0
   19.3083   -7.7198    8.1881 C   0  0  0  0  0  0  0  0  0  0  0  0
   19.9872   -7.9591    9.3843 C   0  0  0  0  0  0  0  0  0  0  0  0
   19.3585   -8.6566   10.4188 C   0  0  0  0  0  0  0  0  0  0  0  0
   18.0426   -9.1253   10.2734 C   0  0  0  0  0  0  0  0  0  0  0  0
   14.1187  -10.4378    9.6478 O   0  0  0  0  0  0  0  0  0  0  0  0
   13.1184  -10.3071   10.6467 C   0  0  0  0  0  0  0  0  0  0  0  0
   18.1714   -9.6324   15.0926 C   0  0  0  0  0  0  0  0  0  0  0  0
   16.1498   -8.9226   16.2589 C   0  0  0  0  0  0  0  0  0  0  0  0
   17.4628   -8.8077   16.1091 C   0  0  0  0  0  0  0  0  0  0  0  0
   15.1300   -7.4177   19.6472 C   0  0  0  0  0  0  0  0  0  0  0  0
   15.8165   -8.1759   18.6150 N   0  0  0  0  0  0  0  0  0  0  0  0
   15.4104   -8.1315   17.2475 C   0  0  0  0  0  0  0  0  0  0  0  0
   14.4286   -7.4203   16.8970 O   0  0  0  0  0  0  0  0  0  0  0  0
   16.5852   -8.7372   18.8666 H   0  0  0  0  0  0  0  0  0  0  0  0
 20 21  1  0  0  0
 21 22  1  0  0  0
 22 23  2  0  0  0
 22 18  1  0  0  0
 18 19  2  0  0  0
 19 17  1  0  0  0
 17  1  1  0  0  0
  1  2  1  0  0  0
  2  3  2  0  0  0
  2  5  1  0  0  0
  5  6  2  0  0  0
  6  7  1  0  0  0
  7 15  1  0  0  0
 15 16  1  0  0  0
  7  8  2  0  0  0
  8  9  1  0  0  0
  9 10  2  0  0  0
 10 11  1  0  0  0
 11 12  2  0  0  0
 12 13  1  0  0  0
 13 14  2  0  0  0
 14  5  1  0  0  0
 14  9  1  0  0  0
 21 24  1  0  0  0
  1  4  1  0  0  0
M  END
>  <minimizedAffinity>
-6.50320

>  <minimizedRMSD>
1.55324

$$$$
CSC026224610 3357057 CSSS00026224610 MCULE-4464722105 MolPort-005-508-586 PubChem-2474376 Z25626904 ZINC000003357057


 35 38  0  0  0  0  0  0  0  0999 V2000
   16.9876  -10.0326   16.5380 C   0  0  0  0  0  0  0  0  0  0  0  0
   17.4156  -10.2544   15.2035 C   0  0  0  0  0  0  0  0  0  0  0  0
   18.2214  -11.3704   14.9188 C   0  0  0  0  0  0  0  0  0  0  0  0
   18.6007  -12.2586   15.9247 C   0  0  0  0  0  0  0  0  0  0  0  0
   18.1787  -12.0437   17.2347 C   0  0  0  0  0  0  0  0  0  0  0  0
   17.3784  -10.9409   17.5363 C   0  0  0  0  0  0  0  0  0  0  0  0
   15.6504   -8.8024   18.2882 N   0  0  0  0  0  0  0  0  0  0  0  0
   16.1244   -8.8902   16.9337 C   0  0  0  0  0  0  0  0  0  0  0  0
   15.8067   -8.0059   16.0934 O   0  0  0  0  0  0  0  0  0  0  0  0
   15.9501   -9.5092   18.9045 H   0  0  0  0  0  0  0  0  0  0  0  0
   13.1364   -5.8320   19.9902 C   0  0  0  0  0  0  0  0  0  0  0  0
   12.9211   -6.2503   18.6720 C   0  0  0  0  0  0  0  0  0  0  0  0
   13.7418   -7.2268   18.0989 C   0  0  0  0  0  0  0  0  0  0  0  0
   14.7884   -7.7972   18.8392 C   0  0  0  0  0  0  0  0  0  0  0  0
   15.0048   -7.3761   20.1560 C   0  0  0  0  0  0  0  0  0  0  0  0
   14.1862   -6.3999   20.7302 C   0  0  0  0  0  0  0  0  0  0  0  0
   12.2982   -4.8556   20.5378 O   0  0  0  0  0  0  0  0  0  0  0  0
   13.2517   -3.3832   22.1760 C   0  0  0  0  0  0  0  0  0  0  0  0
   12.2981   -4.5339   21.9228 C   0  0  0  0  0  0  0  0  0  0  0  0
   17.0345   -9.3470   14.1559 N   0  0  0  0  0  0  0  0  0  0  0  0
   16.9356   -9.6391   12.7557 C   0  0  0  0  0  0  0  0  0  0  0  0
   17.1113  -10.8059   12.3170 O   0  0  0  0  0  0  0  0  0  0  0  0
   16.8183   -8.4262   14.4291 H   0  0  0  0  0  0  0  0  0  0  0  0
   16.6315   -8.5360   11.8022 C   0  0  0  0  0  0  0  0  0  0  0  0
   17.6158   -8.4907   10.7745 O   0  0  0  0  0  0  0  0  0  0  0  0
   17.3917   -9.0001    9.4898 C   0  0  0  0  0  0  0  0  0  0  0  0
   18.1408   -8.5257    8.4066 C   0  0  0  0  0  0  0  0  0  0  0  0
   17.8832   -9.0616    7.1278 C   0  0  0  0  0  0  0  0  0  0  0  0
   18.6117   -8.6108    6.0229 C   0  0  0  0  0  0  0  0  0  0  0  0
   19.5970   -7.6315    6.1874 C   0  0  0  0  0  0  0  0  0  0  0  0
   19.8567   -7.1010    7.4561 C   0  0  0  0  0  0  0  0  0  0  0  0
   19.1304   -7.5462    8.5653 C   0  0  0  0  0  0  0  0  0  0  0  0
   16.9281  -10.0138    6.9729 N   0  0  0  0  0  0  0  0  0  0  0  0
   16.2116  -10.4599    8.0373 C   0  0  0  0  0  0  0  0  0  0  0  0
   16.4438   -9.9560    9.2781 N   0  0  0  0  0  0  0  0  0  0  0  0
 18 19  1  0  0  0
 19 17  1  0  0  0
 17 11  1  0  0  0
 11 12  2  0  0  0
 12 13  1  0  0  0
 13 14  2  0  0  0
 14  7  1  0  0  0
  7  8  1  0  0  0
  8  1  1  0  0  0
  1  2  1  0  0  0
  2 20  1  0  0  0
 20 21  1  0  0  0
 21 24  1  0  0  0
 24 25  1  0  0  0
 25 26  1  0  0  0
 26 27  1  0  0  0
 27 28  1  0  0  0
 28 29  2  0  0  0
 29 30  1  0  0  0
 30 31  2  0  0  0
 31 32  1  0  0  0
 28 33  1  0  0  0
 33 34  2  0  0  0
 34 35  1  0  0  0
 21 22  2  0  0  0
  2  3  2  0  0  0
  3  4  1  0  0  0
  4  5  2  0  0  0
  5  6  1  0  0  0
  8  9  2  0  0  0
 14 15  1  0  0  0
 15 16  2  0  0  0
 16 11  1  0  0  0
  6  1  2  0  0  0
 35 26  2  0  0  0
 32 27  2  0  0  0
  7 10  1  0  0  0
 20 23  1  0  0  0
M  END
>  <minimizedAffinity>
-6.50270

>  <minimizedRMSD>
1.81555

$$$$
11881069 CSSS00159441004 MCULE-4930743105 MolPort-004-999-426 PubChem-42246942 ZINC000011881069 ZINC11881069


 36 40  0  0  0  0  0  0  0  0999 V2000
   16.0008   -9.3257   14.1535 C   0  0  0  0  0  0  0  0  0  0  0  0
   16.9443  -10.2979   14.5036 C   0  0  0  0  0  0  0  0  0  0  0  0
   17.3356  -10.4696   15.7956 N   0  0  0  0  0  0  0  0  0  0  0  0
   16.8457   -9.6688   16.7805 C   0  0  0  0  0  0  0  0  0  0  0  0
   15.8993   -8.6755   16.5068 C   0  0  0  0  0  0  0  0  0  0  0  0
   15.4711   -8.5028   15.1720 C   0  0  0  0  0  0  0  0  0  0  0  0
   14.6201   -7.6148   14.8904 O   0  0  0  0  0  0  0  0  0  0  0  0
   15.7237  -10.3302   11.8576 N   0  0  0  0  0  0  0  0  0  0  0  0
   15.6103   -9.1989   12.7283 C   0  0  0  0  0  0  0  0  0  0  0  0
   15.1714   -8.1062   12.2755 O   0  0  0  0  0  0  0  0  0  0  0  0
   16.0203  -11.1883   12.2383 H   0  0  0  0  0  0  0  0  0  0  0  0
   15.4202  -10.2691   10.4341 C   0  0  0  0  0  0  0  0  0  0  0  0
   20.0832   -7.1753    5.6784 C   0  0  0  0  0  0  0  0  0  0  0  0
   19.4684   -7.6622    6.9407 C   0  0  0  0  0  0  0  0  0  0  0  0
   18.2206   -8.3016    6.9174 C   0  0  0  0  0  0  0  0  0  0  0  0
   17.7020   -8.7264    8.0960 N   0  0  0  0  0  0  0  0  0  0  0  0
   16.5428   -9.3563    8.3298 C   0  0  0  0  0  0  0  0  0  0  0  0
   16.5089   -9.5592    9.7041 C   0  0  0  0  0  0  0  0  0  0  0  0
   17.6203   -9.0767   10.3103 N   0  0  0  0  0  0  0  0  0  0  0  0
   18.3193   -8.5717    9.2783 C   0  0  0  0  0  0  0  0  0  0  0  0
   19.5600   -7.9449    9.3651 C   0  0  0  0  0  0  0  0  0  0  0  0
   20.1349   -7.4855    8.1686 C   0  0  0  0  0  0  0  0  0  0  0  0
   15.3880   -7.8551   17.6318 C   0  0  0  0  0  0  0  0  0  0  0  0
   14.3903   -7.0996   17.4752 O   0  0  0  0  0  0  0  0  0  0  0  0
   16.0316   -7.9221   18.9100 N   0  0  0  0  0  0  0  0  0  0  0  0
   16.8375   -8.4799   19.0032 H   0  0  0  0  0  0  0  0  0  0  0  0
   15.5443   -7.2001   20.0779 C   0  0  0  0  0  0  0  0  0  0  0  0
   14.4945   -8.0222   20.8201 C   0  0  0  0  0  0  0  0  0  0  0  0
   14.6524   -7.9145   22.3418 C   0  0  0  0  0  0  0  0  0  0  0  0
   14.2508   -6.5310   22.8525 C   0  0  0  0  0  0  0  0  0  0  0  0
   12.8174   -6.2147   22.4406 C   0  0  0  0  0  0  0  0  0  0  0  0
   12.6954   -6.2446   20.9208 C   0  0  0  0  0  0  0  0  0  0  0  0
   13.0807   -7.6248   20.3863 C   0  0  0  0  0  0  0  0  0  0  0  0
   18.3815  -11.4402   16.1107 C   0  0  0  0  0  0  0  0  0  0  0  0
   19.0094  -11.9843   14.8356 C   0  0  0  0  0  0  0  0  0  0  0  0
   18.0030  -12.8201   15.5913 C   0  0  0  0  0  0  0  0  0  0  0  0
 13 14  1  0  0  0
 14 15  2  0  0  0
 15 16  1  0  0  0
 16 17  1  0  0  0
 17 18  2  0  0  0
 18 12  1  0  0  0
 18 19  1  0  0  0
 12  8  1  0  0  0
  8  9  1  0  0  0
  9 10  2  0  0  0
  9  1  1  0  0  0
  1  2  2  0  0  0
  2  3  1  0  0  0
  3  4  1  0  0  0
  3 34  1  0  0  0
  4  5  2  0  0  0
  5 23  1  0  0  0
  5  6  1  0  0  0
 23 24  2  0  0  0
 23 25  1  0  0  0
 25 27  1  0  0  0
 27 28  1  0  0  0
 28 29  1  0  0  0
 29 30  1  0  0  0
 30 31  1  0  0  0
 31 32  1  0  0  0
 32 33  1  0  0  0
 33 28  1  0  0  0
  6  7  2  0  0  0
  6  1  1  0  0  0
 34 35  1  0  0  0
 35 36  1  0  0  0
 36 34  1  0  0  0
 19 20  2  0  0  0
 20 21  1  0  0  0
 20 16  1  0  0  0
 21 22  2  0  0  0
 22 14  1  0  0  0
  8 11  1  0  0  0
 25 26  1  0  0  0
M  END
>  <minimizedAffinity>
-6.50019

>  <minimizedRMSD>
1.60859

$$$$
CSC027058246 CSSS00027058246 MCULE-6172943660 MolPort-020-081-048 PubChem-53603805 Z1124145256


 26 28  0  0  0  0  0  0  0  0999 V2000
   15.8111  -10.5895   11.6975 C   0  0  0  0  0  0  0  0  0  0  0  0
   15.7782   -9.6002   12.7185 O   0  0  0  0  0  0  0  0  0  0  0  0
   16.9884   -9.2569   16.1987 C   0  0  0  0  0  0  0  0  0  0  0  0
   16.1517   -9.2521   15.0721 C   0  0  0  0  0  0  0  0  0  0  0  0
   16.6435   -9.6189   13.8155 C   0  0  0  0  0  0  0  0  0  0  0  0
   17.9897   -9.9950   13.6858 C   0  0  0  0  0  0  0  0  0  0  0  0
   18.8283  -10.0022   14.8030 C   0  0  0  0  0  0  0  0  0  0  0  0
   18.3275   -9.6340   16.0545 C   0  0  0  0  0  0  0  0  0  0  0  0
   15.0862   -7.7105   19.2113 C   0  0  0  0  0  0  0  0  0  0  0  0
   15.4445   -7.9763   17.7941 C   0  0  0  0  0  0  0  0  0  0  0  0
   16.5123   -8.8857   17.4995 N   0  0  0  0  0  0  0  0  0  0  0  0
   14.8041   -7.3983   16.8767 O   0  0  0  0  0  0  0  0  0  0  0  0
   16.9659   -9.2982   18.2698 H   0  0  0  0  0  0  0  0  0  0  0  0
   15.3662   -9.9850   10.3799 C   0  0  0  0  0  0  0  0  0  0  0  0
   16.1907  -10.4985    9.2979 N   0  0  0  0  0  0  0  0  0  0  0  0
   16.1825  -11.4647    9.1092 H   0  0  0  0  0  0  0  0  0  0  0  0
   17.0122   -9.6447    8.5004 C   0  0  0  0  0  0  0  0  0  0  0  0
   18.0890   -8.9665    9.0539 C   0  0  0  0  0  0  0  0  0  0  0  0
   18.8551   -8.1663    8.2862 C   0  0  0  0  0  0  0  0  0  0  0  0
   19.8342   -7.6109    9.0098 N   0  0  0  0  0  0  0  0  0  0  0  0
   19.6086   -8.1250   10.2508 C   0  0  0  0  0  0  0  0  0  0  0  0
   18.5392   -8.9663   10.3156 N   0  0  0  0  0  0  0  0  0  0  0  0
   18.6201   -7.9855    6.9642 N   0  0  0  0  0  0  0  0  0  0  0  0
   17.5625   -8.6469    6.4029 C   0  0  0  0  0  0  0  0  0  0  0  0
   16.7700   -9.4665    7.1660 N   0  0  0  0  0  0  0  0  0  0  0  0
   18.1854   -9.4527   11.0950 H   0  0  0  0  0  0  0  0  0  0  0  0
  9 10  1  0  0  0
 10 11  1  0  0  0
 11  3  1  0  0  0
  3  4  2  0  0  0
  4  5  1  0  0  0
  5  2  1  0  0  0
  2  1  1  0  0  0
  1 14  1  0  0  0
 14 15  1  0  0  0
 15 17  1  0  0  0
 17 18  1  0  0  0
 18 19  2  0  0  0
 19 20  1  0  0  0
 20 21  2  0  0  0
 21 22  1  0  0  0
 19 23  1  0  0  0
 23 24  2  0  0  0
 24 25  1  0  0  0
  5  6  2  0  0  0
  6  7  1  0  0  0
  7  8  2  0  0  0
 10 12  2  0  0  0
  8  3  1  0  0  0
 25 17  2  0  0  0
 22 18  1  0  0  0
 11 13  1  0  0  0
 15 16  1  0  0  0
 22 26  1  0  0  0
M  END
>  <minimizedAffinity>
-6.48826

>  <minimizedRMSD>
1.58568

$$$$
67540135 CHEMBL3473590 CSSS00159459302 MCULE-5164901783 MolPort-019-882-787 ZINC000067540135


 27 30  0  0  0  0  0  0  0  0999 V2000
   18.8025  -11.1896   15.0015 C   0  0  0  0  0  0  0  0  0  0  0  0
   17.3855  -11.0056   14.6779 N   0  0  0  0  0  0  0  0  0  0  0  0
   16.5785  -11.2968   15.8722 C   0  0  0  0  0  0  0  0  0  0  0  0
   16.8881  -10.3569   17.0456 C   0  0  0  0  0  0  0  0  0  0  0  0
   17.0907   -8.9798   16.6070 N   0  0  0  0  0  0  0  0  0  0  0  0
   17.2113   -8.6051   15.2332 C   0  0  0  0  0  0  0  0  0  0  0  0
   17.3529   -7.3877   14.9383 O   0  0  0  0  0  0  0  0  0  0  0  0
   17.0938   -9.6487   14.1465 C   0  0  0  0  0  0  0  0  0  0  0  0
   18.0520   -9.2930   12.9845 C   0  0  0  0  0  0  0  0  0  0  0  0
   17.8473  -10.2197   11.7881 C   0  0  0  0  0  0  0  0  0  0  0  0
   16.4452  -10.1883   11.3869 N   0  0  0  0  0  0  0  0  0  0  0  0
   15.4551  -10.5163   12.4068 C   0  0  0  0  0  0  0  0  0  0  0  0
   15.6472   -9.5996   13.6145 C   0  0  0  0  0  0  0  0  0  0  0  0
   16.0256   -9.8981   10.0401 C   0  0  0  0  0  0  0  0  0  0  0  0
   14.8296  -10.1198    9.7068 O   0  0  0  0  0  0  0  0  0  0  0  0
   17.1472   -8.2742   17.2913 H   0  0  0  0  0  0  0  0  0  0  0  0
   16.9412   -9.3378    9.0236 C   0  0  0  0  0  0  0  0  0  0  0  0
   16.8972   -9.7256    7.7203 N   0  0  0  0  0  0  0  0  0  0  0  0
   17.8546   -8.9760    7.1574 C   0  0  0  0  0  0  0  0  0  0  0  0
   18.2492   -8.9617    5.8220 C   0  0  0  0  0  0  0  0  0  0  0  0
   19.2855   -8.0792    5.4628 C   0  0  0  0  0  0  0  0  0  0  0  0
   19.7489   -8.0205    4.0523 C   0  0  0  0  0  0  0  0  0  0  0  0
   19.8875   -7.2484    6.4348 C   0  0  0  0  0  0  0  0  0  0  0  0
   19.4613   -7.2902    7.7756 C   0  0  0  0  0  0  0  0  0  0  0  0
   18.4348   -8.1761    8.0921 C   0  0  0  0  0  0  0  0  0  0  0  0
   17.8718   -8.3820    9.2902 N   0  0  0  0  0  0  0  0  0  0  0  0
   18.0797   -7.9492   10.1497 H   0  0  0  0  0  0  0  0  0  0  0  0
  1  2  1  0  0  0
  2  3  1  0  0  0
  3  4  1  0  0  0
  4  5  1  0  0  0
  5  6  1  0  0  0
  6  7  2  0  0  0
  6  8  1  0  0  0
  8  9  1  0  0  0
  9 10  1  0  0  0
 10 11  1  0  0  0
 11 12  1  0  0  0
 12 13  1  0  0  0
 11 14  1  0  0  0
 14 15  2  0  0  0
 14 17  1  0  0  0
 17 18  2  0  0  0
 18 19  1  0  0  0
 19 20  2  0  0  0
 20 21  1  0  0  0
 21 22  1  0  0  0
 21 23  2  0  0  0
 23 24  1  0  0  0
 24 25  2  0  0  0
 25 26  1  0  0  0
  8  2  1  0  0  0
 13  8  1  0  0  0
 26 17  1  0  0  0
 25 19  1  0  0  0
  5 16  1  0  0  0
 26 27  1  0  0  0
M  END
>  <minimizedAffinity>
-6.48249

>  <minimizedRMSD>
1.46412

$$$$
952973371 CSSS00160210055 MCULE-1377502639 MolPort-045-940-748 PubChem-131891969 ZINC000952973371


 28 30  0  0  0  0  0  0  0  0999 V2000
   16.4301   -9.9154   13.2201 N   0  0  0  0  0  0  0  0  0  0  0  0
   17.2956   -9.6615   12.1076 C   0  0  0  0  0  0  0  0  0  0  0  0
   18.5160   -9.4137   12.3039 O   0  0  0  0  0  0  0  0  0  0  0  0
   15.4601   -9.9061   13.0522 H   0  0  0  0  0  0  0  0  0  0  0  0
   16.7523   -9.6455   10.7318 C   0  0  0  0  0  0  0  0  0  0  0  0
   15.5067  -10.0954   10.3029 C   0  0  0  0  0  0  0  0  0  0  0  0
   14.4367  -10.6965   11.1472 C   0  0  0  0  0  0  0  0  0  0  0  0
   15.3741   -9.9176    8.9672 N   0  0  0  0  0  0  0  0  0  0  0  0
   16.5486   -9.3607    8.6101 C   0  0  0  0  0  0  0  0  0  0  0  0
   16.9054   -8.9854    7.3168 C   0  0  0  0  0  0  0  0  0  0  0  0
   18.1768   -8.4198    7.1343 C   0  0  0  0  0  0  0  0  0  0  0  0
   19.0443   -8.2466    8.2282 C   0  0  0  0  0  0  0  0  0  0  0  0
   20.6283   -7.5411    7.9934 Cl  0  0  0  0  0  0  0  0  0  0  0  0
   18.6318   -8.6428    9.5074 C   0  0  0  0  0  0  0  0  0  0  0  0
   17.3937   -9.1855    9.6424 N   0  0  0  0  0  0  0  0  0  0  0  0
   16.7613   -9.5841   16.9191 C   0  0  0  0  0  0  0  0  0  0  0  0
   17.6224  -10.6419   17.2200 C   0  0  0  0  0  0  0  0  0  0  0  0
   18.0906  -11.4816   16.2073 C   0  0  0  0  0  0  0  0  0  0  0  0
   17.7154  -11.2653   14.8782 C   0  0  0  0  0  0  0  0  0  0  0  0
   18.1699  -12.2463   13.8521 C   0  0  0  0  0  0  0  0  0  0  0  0
   16.8671  -10.1820   14.5588 C   0  0  0  0  0  0  0  0  0  0  0  0
   16.3823   -9.3670   15.5869 C   0  0  0  0  0  0  0  0  0  0  0  0
   15.1860   -7.8368   17.9389 C   0  0  0  0  0  0  0  0  0  0  0  0
   14.5240   -7.6677   16.8809 O   0  0  0  0  0  0  0  0  0  0  0  0
   16.2883   -8.7534   17.9881 N   0  0  0  0  0  0  0  0  0  0  0  0
   16.7699   -8.8191   18.8442 H   0  0  0  0  0  0  0  0  0  0  0  0
   14.9211   -7.9290   20.3880 C   0  0  0  0  0  0  0  0  0  0  0  0
   14.8257   -7.0541   19.1532 C   0  0  0  0  0  0  0  0  0  0  0  0
 27 28  1  0  0  0
 28 23  1  0  0  0
 23 24  2  0  0  0
 23 25  1  0  0  0
 25 16  1  0  0  0
 16 17  2  0  0  0
 17 18  1  0  0  0
 18 19  2  0  0  0
 19 20  1  0  0  0
 19 21  1  0  0  0
 21  1  1  0  0  0
  1  2  1  0  0  0
  2  3  2  0  0  0
  2  5  1  0  0  0
  5  6  2  0  0  0
  6  7  1  0  0  0
  6  8  1  0  0  0
  8  9  2  0  0  0
  9 10  1  0  0  0
 10 11  2  0  0  0
 11 12  1  0  0  0
 12 13  1  0  0  0
 12 14  2  0  0  0
 14 15  1  0  0  0
 21 22  2  0  0  0
 22 16  1  0  0  0
 15  5  1  0  0  0
 15  9  1  0  0  0
 25 26  1  0  0  0
  1  4  1  0  0  0
M  END
>  <minimizedAffinity>
-6.46783

>  <minimizedRMSD>
0.87277

$$$$
CSC090486984 344277504 CSSS00090486984 MCULE-1594458637 MolPort-046-894-898 PubChem-146088769 Z1224795744


 27 29  0  0  0  0  0  0  0  0999 V2000
   16.8373  -10.5338   13.6330 N   0  0  0  0  0  0  0  0  0  0  0  0
   16.0287   -9.9903   12.5846 C   0  0  0  0  0  0  0  0  0  0  0  0
   15.4542   -8.8772   12.7172 O   0  0  0  0  0  0  0  0  0  0  0  0
   17.2597  -11.4090   13.4753 H   0  0  0  0  0  0  0  0  0  0  0  0
   16.7321   -8.9656   16.7749 N   0  0  0  0  0  0  0  0  0  0  0  0
   18.0672   -9.0097   16.6105 C   0  0  0  0  0  0  0  0  0  0  0  0
   18.3351   -9.6116   15.3903 C   0  0  0  0  0  0  0  0  0  0  0  0
   17.0776   -9.9004   14.8931 C   0  0  0  0  0  0  0  0  0  0  0  0
   16.1137   -9.5065   15.7419 N   0  0  0  0  0  0  0  0  0  0  0  0
   16.0511   -8.4158   17.9371 C   0  0  0  0  0  0  0  0  0  0  0  0
   14.7467   -7.7441   17.5294 C   0  0  0  0  0  0  0  0  0  0  0  0
   14.2128   -7.8198   19.9949 N   0  0  0  0  0  0  0  0  0  0  0  0
   14.0310   -7.2097   18.7226 C   0  0  0  0  0  0  0  0  0  0  0  0
   13.2877   -6.2004   18.6109 O   0  0  0  0  0  0  0  0  0  0  0  0
   13.7397   -7.4662   20.7826 H   0  0  0  0  0  0  0  0  0  0  0  0
   14.8118   -8.5956   20.0877 H   0  0  0  0  0  0  0  0  0  0  0  0
   15.8967  -10.7357   11.3000 C   0  0  0  0  0  0  0  0  0  0  0  0
   16.5191   -9.9869   10.2144 N   0  0  0  0  0  0  0  0  0  0  0  0
   15.8454   -9.8832    9.0261 C   0  0  0  0  0  0  0  0  0  0  0  0
   16.3746   -9.1832    7.9831 N   0  0  0  0  0  0  0  0  0  0  0  0
   17.5796   -8.5903    8.1459 C   0  0  0  0  0  0  0  0  0  0  0  0
   18.4280   -7.6847    7.0281 S   0  0  0  0  0  0  0  0  0  0  0  0
   19.7455   -7.3698    8.0506 C   0  0  0  0  0  0  0  0  0  0  0  0
   19.5099   -7.9868    9.2852 C   0  0  0  0  0  0  0  0  0  0  0  0
   18.2876   -8.6680    9.3196 C   0  0  0  0  0  0  0  0  0  0  0  0
   17.7417   -9.3863   10.3824 C   0  0  0  0  0  0  0  0  0  0  0  0
   18.3649   -9.4802   11.4760 O   0  0  0  0  0  0  0  0  0  0  0  0
 12 13  1  0  0  0
 13 14  2  0  0  0
 13 11  1  0  0  0
 11 10  1  0  0  0
 10  5  1  0  0  0
  5  6  1  0  0  0
  6  7  2  0  0  0
  7  8  1  0  0  0
  8  1  1  0  0  0
  1  2  1  0  0  0
  2  3  2  0  0  0
  2 17  1  0  0  0
 17 18  1  0  0  0
 18 19  1  0  0  0
 19 20  2  0  0  0
 20 21  1  0  0  0
 21 22  1  0  0  0
 22 23  1  0  0  0
 23 24  2  0  0  0
 24 25  1  0  0  0
 25 26  1  0  0  0
 26 27  2  0  0  0
  8  9  2  0  0  0
  9  5  1  0  0  0
 26 18  1  0  0  0
 25 21  2  0  0  0
 12 15  1  0  0  0
 12 16  1  0  0  0
  1  4  1  0  0  0
M  END
>  <minimizedAffinity>
-6.44306

>  <minimizedRMSD>
1.91220

$$$$
CSC065794830 CSSS00065794830 MCULE-7281784978 MolPort-046-451-463 PubChem-137988985 Z2212435904


 29 33  0  0  0  0  0  0  0  0999 V2000
   16.8560   -9.6589   11.7623 C   0  0  0  0  0  0  0  0  0  0  0  0
   16.7709   -9.5850   16.8185 C   0  0  0  0  0  0  0  0  0  0  0  0
   17.3842  -10.4944   17.6709 C   0  0  0  0  0  0  0  0  0  0  0  0
   18.0592  -11.3954   16.9208 N   0  0  0  0  0  0  0  0  0  0  0  0
   17.8809  -11.0855   15.6478 N   0  0  0  0  0  0  0  0  0  0  0  0
   18.4787  -11.8017   14.5261 C   0  0  0  0  0  0  0  0  0  0  0  0
   17.7135  -11.4945   13.2371 C   0  0  0  0  0  0  0  0  0  0  0  0
   17.5314   -9.9800   13.0827 C   0  0  0  0  0  0  0  0  0  0  0  0
   16.7038   -9.3932   14.2324 C   0  0  0  0  0  0  0  0  0  0  0  0
   17.1225   -9.9838   15.5459 C   0  0  0  0  0  0  0  0  0  0  0  0
   15.8109   -8.0937   18.5911 N   0  0  0  0  0  0  0  0  0  0  0  0
   15.9303   -8.4460   17.2168 C   0  0  0  0  0  0  0  0  0  0  0  0
   15.3118   -7.7744   16.3499 O   0  0  0  0  0  0  0  0  0  0  0  0
   15.2478   -7.3310   18.8566 H   0  0  0  0  0  0  0  0  0  0  0  0
   16.2913   -8.6128   19.2759 H   0  0  0  0  0  0  0  0  0  0  0  0
   17.8345   -9.1540   10.8119 N   0  0  0  0  0  0  0  0  0  0  0  0
   18.6620   -8.7427   11.1515 H   0  0  0  0  0  0  0  0  0  0  0  0
   17.6304   -9.2373    9.4009 C   0  0  0  0  0  0  0  0  0  0  0  0
   16.6843  -10.0686    8.8659 N   0  0  0  0  0  0  0  0  0  0  0  0
   16.4867  -10.1450    7.5100 C   0  0  0  0  0  0  0  0  0  0  0  0
   17.2386   -9.3876    6.6547 N   0  0  0  0  0  0  0  0  0  0  0  0
   18.1781   -8.5717    7.1920 C   0  0  0  0  0  0  0  0  0  0  0  0
   19.0128   -7.7468    6.5500 N   0  0  0  0  0  0  0  0  0  0  0  0
   19.7104   -7.1345    7.5427 C   0  0  0  0  0  0  0  0  0  0  0  0
   19.3524   -7.5743    8.7828 N   0  0  0  0  0  0  0  0  0  0  0  0
   18.3876   -8.4757    8.5223 C   0  0  0  0  0  0  0  0  0  0  0  0
   19.0687   -7.4592    5.1203 C   0  0  0  0  0  0  0  0  0  0  0  0
   19.7042   -8.6246    4.3820 C   0  0  0  0  0  0  0  0  0  0  0  0
   20.5140   -7.3789    4.6590 C   0  0  0  0  0  0  0  0  0  0  0  0
 11 12  1  0  0  0
 12 13  2  0  0  0
 12  2  1  0  0  0
  2  3  1  0  0  0
  3  4  2  0  0  0
  4  5  1  0  0  0
  5  6  1  0  0  0
  6  7  1  0  0  0
  7  8  1  0  0  0
  8  1  1  0  0  0
  1 16  1  0  0  0
 16 18  1  0  0  0
 18 19  2  0  0  0
 19 20  1  0  0  0
 20 21  2  0  0  0
 21 22  1  0  0  0
 22 23  1  0  0  0
 23 24  1  0  0  0
 24 25  2  0  0  0
 25 26  1  0  0  0
 23 27  1  0  0  0
 27 28  1  0  0  0
 28 29  1  0  0  0
  8  9  1  0  0  0
  9 10  1  0  0  0
 10  2  2  0  0  0
 10  5  1  0  0  0
 26 18  1  0  0  0
 29 27  1  0  0  0
 26 22  2  0  0  0
 11 14  1  0  0  0
 11 15  1  0  0  0
 16 17  1  0  0  0
M  END
>  <minimizedAffinity>
-6.44283

>  <minimizedRMSD>
1.27506

$$$$
CSSS14929158752


 27 29  0  0  0  0  0  0  0  0999 V2000
   18.4975   -9.9241   12.0063 O   0  0  0  0  0  0  0  0  0  0  0  0
   17.6951   -9.6912   10.8892 C   0  0  0  0  0  0  0  0  0  0  0  0
   18.1734   -8.9638    9.8093 C   0  0  0  0  0  0  0  0  0  0  0  0
   19.3725   -8.3950    9.6305 N   0  0  0  0  0  0  0  0  0  0  0  0
   19.2536   -7.8302    8.3966 C   0  0  0  0  0  0  0  0  0  0  0  0
   18.0389   -8.0267    7.8125 N   0  0  0  0  0  0  0  0  0  0  0  0
   17.3890   -8.7450    8.7357 C   0  0  0  0  0  0  0  0  0  0  0  0
   16.1202   -9.2129    8.6554 N   0  0  0  0  0  0  0  0  0  0  0  0
   15.6313   -9.9325    9.7109 C   0  0  0  0  0  0  0  0  0  0  0  0
   14.3040  -10.4412    9.6656 N   0  0  0  0  0  0  0  0  0  0  0  0
   16.4139  -10.1663   10.8135 N   0  0  0  0  0  0  0  0  0  0  0  0
   17.7199   -7.7182    6.9337 H   0  0  0  0  0  0  0  0  0  0  0  0
   13.7400  -10.2752    8.8759 H   0  0  0  0  0  0  0  0  0  0  0  0
   13.9493  -10.9593   10.4238 H   0  0  0  0  0  0  0  0  0  0  0  0
   18.0684  -10.7506   13.0784 C   0  0  0  0  0  0  0  0  0  0  0  0
   17.2409   -8.7858   16.2143 C   0  0  0  0  0  0  0  0  0  0  0  0
   17.1015   -9.4978   15.0125 C   0  0  0  0  0  0  0  0  0  0  0  0
   18.2247  -10.0216   14.3649 C   0  0  0  0  0  0  0  0  0  0  0  0
   19.4981   -9.8240   14.9065 C   0  0  0  0  0  0  0  0  0  0  0  0
   19.6467   -9.1164   16.1020 C   0  0  0  0  0  0  0  0  0  0  0  0
   18.5225   -8.6004   16.7536 C   0  0  0  0  0  0  0  0  0  0  0  0
   15.9443   -8.3296   18.3215 N   0  0  0  0  0  0  0  0  0  0  0  0
   16.0587   -8.2348   16.9043 C   0  0  0  0  0  0  0  0  0  0  0  0
   15.1145   -7.6608   16.2331 N   0  0  0  0  0  0  0  0  0  0  0  0
   15.1536   -7.9605   18.7773 H   0  0  0  0  0  0  0  0  0  0  0  0
   16.6560   -8.7643   18.8447 H   0  0  0  0  0  0  0  0  0  0  0  0
   14.3293   -7.2959   16.7015 H   0  0  0  0  0  0  0  0  0  0  0  0
 22 23  1  0  0  0
 23 24  2  0  0  0
 23 16  1  0  0  0
 16 17  2  0  0  0
 17 18  1  0  0  0
 18 15  1  0  0  0
 15  1  1  0  0  0
  1  2  1  0  0  0
  2  3  2  0  0  0
  3  4  1  0  0  0
  4  5  2  0  0  0
  5  6  1  0  0  0
  6  7  1  0  0  0
  7  8  2  0  0  0
  8  9  1  0  0  0
  9 10  1  0  0  0
  9 11  2  0  0  0
 18 19  2  0  0  0
 19 20  1  0  0  0
 20 21  2  0  0  0
 21 16  1  0  0  0
 11  2  1  0  0  0
  7  3  1  0  0  0
 22 25  1  0  0  0
 22 26  1  0  0  0
 24 27  1  0  0  0
  6 12  1  0  0  0
 10 13  1  0  0  0
 10 14  1  0  0  0
M  END
>  <minimizedAffinity>
-6.43935

>  <minimizedRMSD>
1.42189

$$$$
91724686 CSSS00159627431 MCULE-2429303139 MolPort-027-876-673 PubChem-72900324 ZINC000091724686


 23 25  0  0  0  0  0  0  0  0999 V2000
   18.3838   -9.8770   12.1241 N   0  0  0  0  0  0  0  0  0  0  0  0
   19.1780   -9.2980   12.0672 H   0  0  0  0  0  0  0  0  0  0  0  0
   17.3774   -9.7716   11.1163 C   0  0  0  0  0  0  0  0  0  0  0  0
   16.0941  -10.1701   11.3555 N   0  0  0  0  0  0  0  0  0  0  0  0
   15.1287  -10.0700   10.3916 C   0  0  0  0  0  0  0  0  0  0  0  0
   13.7416  -10.5136   10.6870 C   0  0  0  0  0  0  0  0  0  0  0  0
   15.4319   -9.5649    9.1597 N   0  0  0  0  0  0  0  0  0  0  0  0
   16.7008   -9.1620    8.8982 C   0  0  0  0  0  0  0  0  0  0  0  0
   17.1384   -8.6297    7.6833 C   0  0  0  0  0  0  0  0  0  0  0  0
   18.4992   -8.3030    7.7040 C   0  0  0  0  0  0  0  0  0  0  0  0
   19.1204   -8.6861    9.2357 S   0  0  0  0  0  0  0  0  0  0  0  0
   17.6778   -9.2589    9.8609 C   0  0  0  0  0  0  0  0  0  0  0  0
   18.2723  -10.8122   13.2309 C   0  0  0  0  0  0  0  0  0  0  0  0
   18.0661  -10.0613   14.4980 C   0  0  0  0  0  0  0  0  0  0  0  0
   19.0579   -9.7547   15.4089 C   0  0  0  0  0  0  0  0  0  0  0  0
   18.4217   -9.0369   16.4099 C   0  0  0  0  0  0  0  0  0  0  0  0
   17.0953   -8.9632   16.0221 C   0  0  0  0  0  0  0  0  0  0  0  0
   16.9120   -9.5785   14.8809 O   0  0  0  0  0  0  0  0  0  0  0  0
   16.0261   -8.2926   16.7689 C   0  0  0  0  0  0  0  0  0  0  0  0
   16.0294   -8.3138   18.1977 N   0  0  0  0  0  0  0  0  0  0  0  0
   14.9916   -7.6636   18.9797 C   0  0  0  0  0  0  0  0  0  0  0  0
   15.1065   -7.6990   16.1434 O   0  0  0  0  0  0  0  0  0  0  0  0
   16.7568   -8.7831   18.6665 H   0  0  0  0  0  0  0  0  0  0  0  0
  3  1  1  0  0  0
  1 13  1  0  0  0
 13 14  1  0  0  0
 14 15  2  0  0  0
 15 16  1  0  0  0
 16 17  2  0  0  0
 17 19  1  0  0  0
 19 20  1  0  0  0
 20 21  1  0  0  0
 19 22  2  0  0  0
 17 18  1  0  0  0
  3  4  2  0  0  0
  4  5  1  0  0  0
  5  6  1  0  0  0
  5  7  2  0  0  0
  7  8  1  0  0  0
  8  9  1  0  0  0
  9 10  2  0  0  0
 10 11  1  0  0  0
 11 12  1  0  0  0
 12  3  1  0  0  0
 18 14  1  0  0  0
 12  8  2  0  0  0
  1  2  1  0  0  0
 20 23  1  0  0  0
M  END
>  <minimizedAffinity>
-6.43261

>  <minimizedRMSD>
1.64339

$$$$
1875247956 CSSS03496539513 MCULE-7558418623 MolPort-047-797-233 PubChem-155918790


 25 28  0  0  0  0  0  0  0  0999 V2000
   19.1878  -11.4394   13.5119 C   0  0  0  0  0  0  0  0  0  0  0  0
   18.5401  -10.0613   13.6211 C   0  0  0  0  0  0  0  0  0  0  0  0
   17.7539   -9.7533   12.4172 N   0  0  0  0  0  0  0  0  0  0  0  0
   16.3104   -9.5651   12.5413 C   0  0  0  0  0  0  0  0  0  0  0  0
   16.0027   -8.4949   13.5874 C   0  0  0  0  0  0  0  0  0  0  0  0
   16.9122   -8.5694   14.8261 C   0  0  0  0  0  0  0  0  0  0  0  0
   17.7426   -9.8600   14.9369 C   0  0  0  0  0  0  0  0  0  0  0  0
   16.7999  -11.0554   15.1904 C   0  0  0  0  0  0  0  0  0  0  0  0
   16.2906  -11.0798   16.6232 C   0  0  0  0  0  0  0  0  0  0  0  0
   17.4535  -11.3347   17.5725 C   0  0  0  0  0  0  0  0  0  0  0  0
   18.5784  -10.4454   17.2937 N   0  0  0  0  0  0  0  0  0  0  0  0
   18.7164   -9.6905   16.0835 C   0  0  0  0  0  0  0  0  0  0  0  0
   19.6583   -8.8580   15.9886 O   0  0  0  0  0  0  0  0  0  0  0  0
   18.4295   -9.4895   11.1713 C   0  0  0  0  0  0  0  0  0  0  0  0
   19.6832   -9.3514   11.1644 O   0  0  0  0  0  0  0  0  0  0  0  0
   19.2824  -10.3598   17.9766 H   0  0  0  0  0  0  0  0  0  0  0  0
   17.6965   -9.3844    9.8912 C   0  0  0  0  0  0  0  0  0  0  0  0
   18.0392   -8.6279    8.7924 C   0  0  0  0  0  0  0  0  0  0  0  0
   19.0884   -7.7608    8.5055 C   0  0  0  0  0  0  0  0  0  0  0  0
   19.0854   -7.1616    7.2324 C   0  0  0  0  0  0  0  0  0  0  0  0
   18.0471   -7.4526    6.3164 C   0  0  0  0  0  0  0  0  0  0  0  0
   17.0401   -8.3146    6.6552 N   0  0  0  0  0  0  0  0  0  0  0  0
   17.0581   -8.8831    7.8858 C   0  0  0  0  0  0  0  0  0  0  0  0
   16.1583   -9.7461    8.3831 N   0  0  0  0  0  0  0  0  0  0  0  0
   16.5774  -10.0255    9.5915 O   0  0  0  0  0  0  0  0  0  0  0  0
  2  1  1  0  0  0
  2  3  1  0  0  0
  3  4  1  0  0  0
  4  5  1  0  0  0
  5  6  1  0  0  0
  7  6  1  0  0  0
  7  8  1  0  0  0
  8  9  1  0  0  0
  9 10  1  0  0  0
 10 11  1  0  0  0
 11 12  1  0  0  0
 12 13  2  0  0  0
  3 14  1  0  0  0
 14 15  2  0  0  0
 14 17  1  0  0  0
 17 18  2  0  0  0
 18 19  1  0  0  0
 19 20  2  0  0  0
 20 21  1  0  0  0
 21 22  2  0  0  0
 22 23  1  0  0  0
 23 24  2  0  0  0
 24 25  1  0  0  0
  7  2  1  0  0  0
 12  7  1  0  0  0
 25 17  1  0  0  0
 23 18  1  0  0  0
 11 16  1  0  0  0
M  END
>  <minimizedAffinity>
-6.40025

>  <minimizedRMSD>
2.28674

$$$$
216376271 CSSS00160108333 MCULE-4193414165 MolPort-035-383-786 PubChem-77096325 ZINC000216376271


 30 33  0  0  0  0  0  0  0  0999 V2000
   16.2258   -8.5729   17.0378 C   0  0  0  0  0  0  0  0  0  0  0  0
   15.4945   -8.6394   15.8924 N   0  0  0  0  0  0  0  0  0  0  0  0
   16.3821   -9.1329   15.0069 C   0  0  0  0  0  0  0  0  0  0  0  0
   16.1695   -9.4087   13.6595 C   0  0  0  0  0  0  0  0  0  0  0  0
   17.2509   -9.9253   12.9131 C   0  0  0  0  0  0  0  0  0  0  0  0
   18.5016  -10.1446   13.5443 C   0  0  0  0  0  0  0  0  0  0  0  0
   18.6856   -9.8557   14.9086 C   0  0  0  0  0  0  0  0  0  0  0  0
   17.5908   -9.3483   15.6043 C   0  0  0  0  0  0  0  0  0  0  0  0
   17.5035   -8.9958   16.8926 N   0  0  0  0  0  0  0  0  0  0  0  0
   18.5434   -9.0538   17.9077 C   0  0  0  0  0  0  0  0  0  0  0  0
   17.0802  -10.2330   11.4828 C   0  0  0  0  0  0  0  0  0  0  0  0
   18.0606  -10.6480   10.8056 O   0  0  0  0  0  0  0  0  0  0  0  0
   15.8016  -10.0644   10.8611 N   0  0  0  0  0  0  0  0  0  0  0  0
   15.0421   -9.7756   11.4170 H   0  0  0  0  0  0  0  0  0  0  0  0
   15.5759  -10.3015    9.4425 C   0  0  0  0  0  0  0  0  0  0  0  0
   16.6056   -9.5900    8.6334 C   0  0  0  0  0  0  0  0  0  0  0  0
   16.8402   -9.8682    7.3240 N   0  0  0  0  0  0  0  0  0  0  0  0
   17.8371   -9.0149    7.0363 C   0  0  0  0  0  0  0  0  0  0  0  0
   18.4944   -8.8493    5.8200 C   0  0  0  0  0  0  0  0  0  0  0  0
   19.5177   -7.8836    5.7655 C   0  0  0  0  0  0  0  0  0  0  0  0
   19.8506   -7.1226    6.9097 C   0  0  0  0  0  0  0  0  0  0  0  0
   19.1650   -7.3172    8.1236 C   0  0  0  0  0  0  0  0  0  0  0  0
   18.1602   -8.2804    8.1375 C   0  0  0  0  0  0  0  0  0  0  0  0
   17.3902   -8.6455    9.1258 O   0  0  0  0  0  0  0  0  0  0  0  0
   15.6997   -8.0953   18.2792 N   0  0  0  0  0  0  0  0  0  0  0  0
   16.1226   -8.3926   19.1170 H   0  0  0  0  0  0  0  0  0  0  0  0
   14.5646   -7.1876   18.3536 C   0  0  0  0  0  0  0  0  0  0  0  0
   13.3774   -7.8837   18.9931 C   0  0  0  0  0  0  0  0  0  0  0  0
   11.2597   -8.4691   18.8118 C   0  0  0  0  0  0  0  0  0  0  0  0
   12.2459   -7.6959   18.2012 O   0  0  0  0  0  0  0  0  0  0  0  0
 29 30  1  0  0  0
 30 28  1  0  0  0
 28 27  1  0  0  0
 27 25  1  0  0  0
 25  1  1  0  0  0
  1  2  2  0  0  0
  2  3  1  0  0  0
  3  4  2  0  0  0
  4  5  1  0  0  0
  5  6  2  0  0  0
  5 11  1  0  0  0
  6  7  1  0  0  0
  7  8  2  0  0  0
  8  9  1  0  0  0
  8  3  1  0  0  0
  9 10  1  0  0  0
  9  1  1  0  0  0
 11 12  2  0  0  0
 11 13  1  0  0  0
 13 15  1  0  0  0
 15 16  1  0  0  0
 16 17  2  0  0  0
 17 18  1  0  0  0
 18 19  2  0  0  0
 19 20  1  0  0  0
 20 21  2  0  0  0
 21 22  1  0  0  0
 22 23  2  0  0  0
 23 24  1  0  0  0
 23 18  1  0  0  0
 24 16  1  0  0  0
 25 26  1  0  0  0
 13 14  1  0  0  0
M  END
>  <minimizedAffinity>
-6.39661

>  <minimizedRMSD>
1.28127

$$$$
23141433 CSSS03437025469 MCULE-5726311303 MolPort-009-735-543 PubChem-30864858 ZINC000023141433 ZINC23141433


 29 32  0  0  0  0  0  0  0  0999 V2000
   18.9227  -10.7269   12.6035 C   0  0  0  0  0  0  0  0  0  0  0  0
   17.5833  -10.2410   12.8955 N   0  0  0  0  0  0  0  0  0  0  0  0
   16.9465  -10.2827   14.0781 C   0  0  0  0  0  0  0  0  0  0  0  0
   15.6662   -9.8841   13.9644 N   0  0  0  0  0  0  0  0  0  0  0  0
   15.4704   -9.5841   12.6880 N   0  0  0  0  0  0  0  0  0  0  0  0
   16.6359   -9.7986   12.0444 C   0  0  0  0  0  0  0  0  0  0  0  0
   16.8038   -9.5986   10.5903 C   0  0  0  0  0  0  0  0  0  0  0  0
   15.9006   -9.9282    9.5756 C   0  0  0  0  0  0  0  0  0  0  0  0
   14.5998  -10.6305    9.7567 C   0  0  0  0  0  0  0  0  0  0  0  0
   16.3589   -9.5153    8.3619 N   0  0  0  0  0  0  0  0  0  0  0  0
   17.5312   -8.9459    8.6981 C   0  0  0  0  0  0  0  0  0  0  0  0
   18.6657   -8.1084    7.8057 S   0  0  0  0  0  0  0  0  0  0  0  0
   19.5863   -7.7508    9.2094 C   0  0  0  0  0  0  0  0  0  0  0  0
   18.9435   -8.3054   10.3312 C   0  0  0  0  0  0  0  0  0  0  0  0
   17.8174   -8.9687    9.9827 N   0  0  0  0  0  0  0  0  0  0  0  0
   17.6808  -10.8377   15.6166 S   0  0  0  0  0  0  0  0  0  0  0  0
   18.1946   -9.1581   16.0937 C   0  0  0  0  0  0  0  0  0  0  0  0
   17.0105   -8.2630   16.2237 C   0  0  0  0  0  0  0  0  0  0  0  0
   16.8187   -7.3593   15.3674 O   0  0  0  0  0  0  0  0  0  0  0  0
   16.1110   -8.4278   17.3200 N   0  0  0  0  0  0  0  0  0  0  0  0
   16.2871   -9.1371   17.9797 H   0  0  0  0  0  0  0  0  0  0  0  0
   14.9423   -7.5793   17.4916 C   0  0  0  0  0  0  0  0  0  0  0  0
   14.0687   -8.1173   18.6146 C   0  0  0  0  0  0  0  0  0  0  0  0
   14.1281   -7.2365   19.8188 C   0  0  0  0  0  0  0  0  0  0  0  0
   13.1300   -6.2816   20.0525 C   0  0  0  0  0  0  0  0  0  0  0  0
   13.1897   -5.4695   21.1892 C   0  0  0  0  0  0  0  0  0  0  0  0
   14.2441   -5.6130   22.0961 C   0  0  0  0  0  0  0  0  0  0  0  0
   15.2379   -6.5697   21.8677 C   0  0  0  0  0  0  0  0  0  0  0  0
   15.1787   -7.3821   20.7312 C   0  0  0  0  0  0  0  0  0  0  0  0
  1  2  1  0  0  0
  2  3  1  0  0  0
  3 16  1  0  0  0
  3  4  2  0  0  0
 16 17  1  0  0  0
 17 18  1  0  0  0
 18 19  2  0  0  0
 18 20  1  0  0  0
 20 22  1  0  0  0
 22 23  1  0  0  0
 23 24  1  0  0  0
 24 25  2  0  0  0
 25 26  1  0  0  0
 26 27  2  0  0  0
 27 28  1  0  0  0
 28 29  2  0  0  0
 29 24  1  0  0  0
  4  5  1  0  0  0
  5  6  2  0  0  0
  6  7  1  0  0  0
  6  2  1  0  0  0
  7  8  2  0  0  0
  8  9  1  0  0  0
  8 10  1  0  0  0
 10 11  2  0  0  0
 11 12  1  0  0  0
 12 13  1  0  0  0
 13 14  2  0  0  0
 14 15  1  0  0  0
 15  7  1  0  0  0
 15 11  1  0  0  0
 20 21  1  0  0  0
M  END
>  <minimizedAffinity>
-6.36457

>  <minimizedRMSD>
1.26970

$$$$
CSC025923244 72282585 CSSS00025923244 MCULE-1100053562 MolPort-023-144-374 PubChem-72057412 Z434018890 ZINC000072282585


 27 29  0  0  0  0  0  0  0  0999 V2000
   15.8487   -9.8950   12.6714 N   0  0  0  0  0  0  0  0  0  0  0  0
   16.1805   -9.5173   11.3362 C   0  0  0  0  0  0  0  0  0  0  0  0
   15.9945  -10.4579   10.2768 N   0  0  0  0  0  0  0  0  0  0  0  0
   16.6302   -8.3640   11.0941 O   0  0  0  0  0  0  0  0  0  0  0  0
   15.4951  -10.7985   12.8384 H   0  0  0  0  0  0  0  0  0  0  0  0
   15.6098  -11.3383   10.4914 H   0  0  0  0  0  0  0  0  0  0  0  0
   16.0172   -8.9848   13.7929 C   0  0  0  0  0  0  0  0  0  0  0  0
   18.5687  -11.7117   18.1848 C   0  0  0  0  0  0  0  0  0  0  0  0
   17.9241  -11.0150   17.0415 C   0  0  0  0  0  0  0  0  0  0  0  0
   16.9760  -10.0686   17.2705 N   0  0  0  0  0  0  0  0  0  0  0  0
   16.3619   -9.4072   16.2530 C   0  0  0  0  0  0  0  0  0  0  0  0
   15.4866   -8.5404   16.5178 O   0  0  0  0  0  0  0  0  0  0  0  0
   16.7060   -9.6925   14.9197 C   0  0  0  0  0  0  0  0  0  0  0  0
   17.6806  -10.6754   14.6672 C   0  0  0  0  0  0  0  0  0  0  0  0
   18.0865  -11.0354   13.2778 C   0  0  0  0  0  0  0  0  0  0  0  0
   18.2914  -11.3350   15.7347 C   0  0  0  0  0  0  0  0  0  0  0  0
   16.7268   -9.8558   18.1989 H   0  0  0  0  0  0  0  0  0  0  0  0
   16.3491  -10.1715    8.8939 C   0  0  0  0  0  0  0  0  0  0  0  0
   17.6013   -9.3590    8.8383 C   0  0  0  0  0  0  0  0  0  0  0  0
   18.1223   -8.8217    7.7255 N   0  0  0  0  0  0  0  0  0  0  0  0
   19.2084   -8.1717    8.1603 C   0  0  0  0  0  0  0  0  0  0  0  0
   20.0303   -7.4725    7.2814 C   0  0  0  0  0  0  0  0  0  0  0  0
   19.6673   -7.4824    5.9232 C   0  0  0  0  0  0  0  0  0  0  0  0
   18.5179   -8.1756    5.4904 C   0  0  0  0  0  0  0  0  0  0  0  0
   17.7306   -8.8616    6.4279 C   0  0  0  0  0  0  0  0  0  0  0  0
   19.3655   -8.2919    9.4913 N   0  0  0  0  0  0  0  0  0  0  0  0
   18.3503   -9.0396    9.9181 N   0  0  0  0  0  0  0  0  0  0  0  0
  8  9  1  0  0  0
  9 10  1  0  0  0
 10 11  1  0  0  0
 11 12  2  0  0  0
 11 13  1  0  0  0
 13  7  1  0  0  0
  7  1  1  0  0  0
  1  2  1  0  0  0
  2  3  1  0  0  0
  3 18  1  0  0  0
 18 19  1  0  0  0
 19 20  1  0  0  0
 20 21  1  0  0  0
 21 22  1  0  0  0
 22 23  2  0  0  0
 23 24  1  0  0  0
 24 25  2  0  0  0
 21 26  2  0  0  0
 26 27  1  0  0  0
  2  4  2  0  0  0
 13 14  2  0  0  0
 14 15  1  0  0  0
 14 16  1  0  0  0
 16  9  2  0  0  0
 27 19  2  0  0  0
 25 20  1  0  0  0
 10 17  1  0  0  0
  1  5  1  0  0  0
  3  6  1  0  0  0
M  END
>  <minimizedAffinity>
-6.35745

>  <minimizedRMSD>
2.43698

$$$$
2749164 CSSS00132949876 MCULE-5180992149 MolPort-001-671-125 PubChem-19580142 ZINC000002749164 ZINC02749164


 32 35  0  0  0  0  0  0  0  0999 V2000
   16.3611   -9.7970   15.0892 C   0  0  0  0  0  0  0  0  0  0  0  0
   15.4727   -9.1574   14.3047 N   0  0  0  0  0  0  0  0  0  0  0  0
   16.0451   -9.0078   13.1175 N   0  0  0  0  0  0  0  0  0  0  0  0
   17.2730   -9.5551   13.2019 C   0  0  0  0  0  0  0  0  0  0  0  0
   17.5010  -10.0615   14.4272 N   0  0  0  0  0  0  0  0  0  0  0  0
   16.0388  -10.2502   16.7933 S   0  0  0  0  0  0  0  0  0  0  0  0
   16.2771   -8.5510   17.3984 C   0  0  0  0  0  0  0  0  0  0  0  0
   14.2227   -7.9879   18.7502 N   0  0  0  0  0  0  0  0  0  0  0  0
   14.9655   -7.8591   17.5310 C   0  0  0  0  0  0  0  0  0  0  0  0
   14.5231   -7.1858   16.5630 O   0  0  0  0  0  0  0  0  0  0  0  0
   14.6394   -8.5209   19.4654 H   0  0  0  0  0  0  0  0  0  0  0  0
   12.8003   -6.5501   20.1332 C   0  0  0  0  0  0  0  0  0  0  0  0
   11.5442   -5.9920   20.4255 C   0  0  0  0  0  0  0  0  0  0  0  0
   10.4326   -6.2977   19.6381 C   0  0  0  0  0  0  0  0  0  0  0  0
   10.5657   -7.1635   18.5519 C   0  0  0  0  0  0  0  0  0  0  0  0
   11.8103   -7.7224   18.2543 C   0  0  0  0  0  0  0  0  0  0  0  0
   12.9350   -7.4216   19.0387 C   0  0  0  0  0  0  0  0  0  0  0  0
   13.9772   -5.1342   21.7898 C   0  0  0  0  0  0  0  0  0  0  0  0
   13.9227   -6.2527   20.9148 O   0  0  0  0  0  0  0  0  0  0  0  0
   18.2256   -9.6266   12.0533 C   0  0  0  0  0  0  0  0  0  0  0  0
   17.4997   -9.5838   10.7926 N   0  0  0  0  0  0  0  0  0  0  0  0
   16.3588  -10.2195   10.5440 N   0  0  0  0  0  0  0  0  0  0  0  0
   15.9515   -9.9934    9.2949 N   0  0  0  0  0  0  0  0  0  0  0  0
   16.8786   -9.1835    8.7504 C   0  0  0  0  0  0  0  0  0  0  0  0
   16.9287   -8.6559    7.4643 C   0  0  0  0  0  0  0  0  0  0  0  0
   18.0277   -7.8297    7.1545 C   0  0  0  0  0  0  0  0  0  0  0  0
   19.0253   -7.5606    8.1225 C   0  0  0  0  0  0  0  0  0  0  0  0
   18.9402   -8.1140    9.4150 C   0  0  0  0  0  0  0  0  0  0  0  0
   17.8390   -8.9250    9.6781 C   0  0  0  0  0  0  0  0  0  0  0  0
   18.6721  -10.7856   14.9030 C   0  0  0  0  0  0  0  0  0  0  0  0
   18.5477  -12.2341   14.5668 C   0  0  0  0  0  0  0  0  0  0  0  0
   19.2158  -12.7364   13.5342 C   0  0  0  0  0  0  0  0  0  0  0  0
 18 19  1  0  0  0
 19 12  1  0  0  0
 12 13  2  0  0  0
 13 14  1  0  0  0
 14 15  2  0  0  0
 15 16  1  0  0  0
 16 17  2  0  0  0
 17  8  1  0  0  0
 17 12  1  0  0  0
  8  9  1  0  0  0
  9 10  2  0  0  0
  9  7  1  0  0  0
  7  6  1  0  0  0
  6  1  1  0  0  0
  1  2  2  0  0  0
  2  3  1  0  0  0
  3  4  2  0  0  0
  4 20  1  0  0  0
  4  5  1  0  0  0
 20 21  1  0  0  0
 21 22  1  0  0  0
 22 23  2  0  0  0
 23 24  1  0  0  0
 24 25  2  0  0  0
 25 26  1  0  0  0
 26 27  2  0  0  0
 27 28  1  0  0  0
 28 29  2  0  0  0
 29 21  1  0  0  0
 29 24  1  0  0  0
  5 30  1  0  0  0
  5  1  1  0  0  0
 30 31  1  0  0  0
 31 32  2  0  0  0
  8 11  1  0  0  0
M  END
>  <minimizedAffinity>
-6.35606

>  <minimizedRMSD>
2.57972

$$$$
CSC027571690 72295929 CSSS00027571690 MCULE-1650062236 MolPort-023-161-893 PubChem-72126469 Z1262269382 ZINC000072295929 ZINC72295929


 25 27  0  0  0  0  0  0  0  0999 V2000
   16.5092   -9.0689   13.0644 O   0  0  0  0  0  0  0  0  0  0  0  0
   16.8015   -9.3749   15.4700 C   0  0  0  0  0  0  0  0  0  0  0  0
   17.2233  -10.1890   16.5331 C   0  0  0  0  0  0  0  0  0  0  0  0
   17.7546  -11.4580   16.2986 C   0  0  0  0  0  0  0  0  0  0  0  0
   17.8720  -11.9324   14.9934 C   0  0  0  0  0  0  0  0  0  0  0  0
   18.5378  -13.5233   14.6961 Cl  0  0  0  0  0  0  0  0  0  0  0  0
   17.4584  -11.1383   13.9239 C   0  0  0  0  0  0  0  0  0  0  0  0
   16.9215   -9.8582   14.1448 C   0  0  0  0  0  0  0  0  0  0  0  0
   15.3458   -7.8720   16.8749 N   0  0  0  0  0  0  0  0  0  0  0  0
   16.2456   -8.0364   15.7819 C   0  0  0  0  0  0  0  0  0  0  0  0
   16.5549   -7.0282   15.0937 O   0  0  0  0  0  0  0  0  0  0  0  0
   14.9779   -6.9822   17.0801 H   0  0  0  0  0  0  0  0  0  0  0  0
   15.0921   -8.6483   17.4247 H   0  0  0  0  0  0  0  0  0  0  0  0
   16.5793   -9.5087   11.7151 C   0  0  0  0  0  0  0  0  0  0  0  0
   17.9898   -9.3062   11.1908 C   0  0  0  0  0  0  0  0  0  0  0  0
   17.9779   -9.1559    9.7401 N   0  0  0  0  0  0  0  0  0  0  0  0
   16.9837   -9.7638    9.0174 C   0  0  0  0  0  0  0  0  0  0  0  0
   16.9251   -9.6327    7.6599 N   0  0  0  0  0  0  0  0  0  0  0  0
   17.8603   -8.8876    7.0215 C   0  0  0  0  0  0  0  0  0  0  0  0
   18.8591   -8.2646    7.7296 C   0  0  0  0  0  0  0  0  0  0  0  0
   19.8421   -7.4264    6.6653 S   0  0  0  0  0  0  0  0  0  0  0  0
   18.9851   -7.8605    5.2669 C   0  0  0  0  0  0  0  0  0  0  0  0
   17.9108   -8.6754    5.6419 C   0  0  0  0  0  0  0  0  0  0  0  0
   18.9260   -8.3916    9.1115 C   0  0  0  0  0  0  0  0  0  0  0  0
   19.8399   -7.8173    9.7644 O   0  0  0  0  0  0  0  0  0  0  0  0
  9 10  1  0  0  0
 10 11  2  0  0  0
 10  2  1  0  0  0
  2  3  2  0  0  0
  3  4  1  0  0  0
  4  5  2  0  0  0
  5  6  1  0  0  0
  5  7  1  0  0  0
  7  8  2  0  0  0
  8  1  1  0  0  0
  8  2  1  0  0  0
  1 14  1  0  0  0
 14 15  1  0  0  0
 15 16  1  0  0  0
 16 17  1  0  0  0
 17 18  2  0  0  0
 18 19  1  0  0  0
 19 20  2  0  0  0
 20 21  1  0  0  0
 20 24  1  0  0  0
 21 22  1  0  0  0
 22 23  2  0  0  0
 23 19  1  0  0  0
 24 25  2  0  0  0
 24 16  1  0  0  0
  9 12  1  0  0  0
  9 13  1  0  0  0
M  END
>  <minimizedAffinity>
-6.34188

>  <minimizedRMSD>
1.19818

$$$$
1875293425 CSSS01158683045 MCULE-1344560929 MolPort-047-621-474 PubChem-166277654 Z3539541776


 27 31  0  0  0  0  0  0  0  0999 V2000
   15.8839   -8.5096   13.1642 O   0  0  0  0  0  0  0  0  0  0  0  0
   16.4965   -9.4818   12.6524 C   0  0  0  0  0  0  0  0  0  0  0  0
   16.3553   -9.7274   11.2528 N   0  0  0  0  0  0  0  0  0  0  0  0
   15.6460   -9.1126   10.1208 C   0  0  0  0  0  0  0  0  0  0  0  0
   16.1455  -10.0589    9.0855 C   0  0  0  0  0  0  0  0  0  0  0  0
   16.8490  -10.6768   10.2426 C   0  0  0  0  0  0  0  0  0  0  0  0
   17.3293  -10.3686   13.4895 C   0  0  0  0  0  0  0  0  0  0  0  0
   17.4050  -10.4726   14.8714 C   0  0  0  0  0  0  0  0  0  0  0  0
   18.2673  -11.4531   15.1707 N   0  0  0  0  0  0  0  0  0  0  0  0
   18.7010  -11.7864   16.5264 C   0  0  0  0  0  0  0  0  0  0  0  0
   17.5809  -11.4823   17.5360 C   0  0  0  0  0  0  0  0  0  0  0  0
   16.9855  -10.1654   17.2895 N   0  0  0  0  0  0  0  0  0  0  0  0
   16.7702   -9.7073   15.9517 C   0  0  0  0  0  0  0  0  0  0  0  0
   16.1163   -8.6543   15.7398 O   0  0  0  0  0  0  0  0  0  0  0  0
   18.7767  -11.9665   14.0653 N   0  0  0  0  0  0  0  0  0  0  0  0
   18.2135  -11.3313   13.0135 C   0  0  0  0  0  0  0  0  0  0  0  0
   16.7323   -9.5930   18.0494 H   0  0  0  0  0  0  0  0  0  0  0  0
   17.1157   -9.3853    8.1627 C   0  0  0  0  0  0  0  0  0  0  0  0
   17.1259   -9.6354    6.8273 N   0  0  0  0  0  0  0  0  0  0  0  0
   18.1190   -8.8481    6.3913 C   0  0  0  0  0  0  0  0  0  0  0  0
   18.5757   -8.7010    5.0839 C   0  0  0  0  0  0  0  0  0  0  0  0
   19.6414   -7.8073    4.8682 C   0  0  0  0  0  0  0  0  0  0  0  0
   20.2122   -7.0968    5.9482 C   0  0  0  0  0  0  0  0  0  0  0  0
   19.7240   -7.2716    7.2566 C   0  0  0  0  0  0  0  0  0  0  0  0
   18.6690   -8.1636    7.4316 C   0  0  0  0  0  0  0  0  0  0  0  0
   18.0506   -8.4845    8.5760 N   0  0  0  0  0  0  0  0  0  0  0  0
   18.2271   -8.1530    9.4860 H   0  0  0  0  0  0  0  0  0  0  0  0
  1  2  2  0  0  0
  2  3  1  0  0  0
  3  4  1  0  0  0
  4  5  1  0  0  0
  5  6  1  0  0  0
  5 18  1  0  0  0
 18 19  2  0  0  0
 19 20  1  0  0  0
 20 21  2  0  0  0
 21 22  1  0  0  0
 22 23  2  0  0  0
 23 24  1  0  0  0
 24 25  2  0  0  0
 25 26  1  0  0  0
  2  7  1  0  0  0
  7  8  2  0  0  0
  8  9  1  0  0  0
  9 10  1  0  0  0
 10 11  1  0  0  0
 11 12  1  0  0  0
 12 13  1  0  0  0
 13 14  2  0  0  0
  9 15  1  0  0  0
 15 16  2  0  0  0
  6  3  1  0  0  0
 26 18  1  0  0  0
 16  7  1  0  0  0
 25 20  1  0  0  0
 13  8  1  0  0  0
 26 27  1  0  0  0
 12 17  1  0  0  0
M  END
>  <minimizedAffinity>
-6.32202

>  <minimizedRMSD>
1.87572

$$$$
CSC027030284 CSSS00027030284 MCULE-5908317612 MolPort-005-787-638 PubChem-17550472 Z102332690


 32 35  0  0  0  0  0  0  0  0999 V2000
   17.5907  -10.0843   14.0648 C   0  0  0  0  0  0  0  0  0  0  0  0
   16.5293   -9.6012   14.8429 C   0  0  0  0  0  0  0  0  0  0  0  0
   16.7752   -8.9868   16.0757 C   0  0  0  0  0  0  0  0  0  0  0  0
   18.0891   -8.8496   16.5341 C   0  0  0  0  0  0  0  0  0  0  0  0
   19.1529   -9.3274   15.7647 C   0  0  0  0  0  0  0  0  0  0  0  0
   18.9048   -9.9425   14.5344 C   0  0  0  0  0  0  0  0  0  0  0  0
   16.5281  -10.0620   11.7850 N   0  0  0  0  0  0  0  0  0  0  0  0
   17.3272  -10.7298   12.7672 C   0  0  0  0  0  0  0  0  0  0  0  0
   17.8033  -11.8722   12.5223 O   0  0  0  0  0  0  0  0  0  0  0  0
   16.1281   -9.1925   12.0156 H   0  0  0  0  0  0  0  0  0  0  0  0
   16.2809  -10.6124   10.4599 C   0  0  0  0  0  0  0  0  0  0  0  0
   18.7255   -8.8062   10.9833 C   0  0  0  0  0  0  0  0  0  0  0  0
   18.0928   -9.0437    9.6948 N   0  0  0  0  0  0  0  0  0  0  0  0
   18.4574   -8.5564    8.5027 C   0  0  0  0  0  0  0  0  0  0  0  0
   19.5151   -7.7030    8.1918 C   0  0  0  0  0  0  0  0  0  0  0  0
   19.6775   -7.3474    6.8399 C   0  0  0  0  0  0  0  0  0  0  0  0
   18.7961   -7.8465    5.8540 C   0  0  0  0  0  0  0  0  0  0  0  0
   17.7401   -8.7083    6.2061 C   0  0  0  0  0  0  0  0  0  0  0  0
   17.6051   -9.0400    7.5518 C   0  0  0  0  0  0  0  0  0  0  0  0
   16.6807   -9.8457    8.1092 N   0  0  0  0  0  0  0  0  0  0  0  0
   17.0116   -9.8174    9.4275 C   0  0  0  0  0  0  0  0  0  0  0  0
   15.4449   -8.3774   17.0419 S   0  0  0  0  0  0  0  0  0  0  0  0
   14.4103   -9.4554   17.2138 O   0  0  0  0  0  0  0  0  0  0  0  0
   14.8253   -7.1984   16.3449 O   0  0  0  0  0  0  0  0  0  0  0  0
   16.0421   -7.9039   18.5964 N   0  0  0  0  0  0  0  0  0  0  0  0
   16.7202   -7.1490   18.4931 H   0  0  0  0  0  0  0  0  0  0  0  0
   14.9087   -7.4472   19.3839 C   0  0  0  0  0  0  0  0  0  0  0  0
   15.1815   -7.6736   20.8587 C   0  0  0  0  0  0  0  0  0  0  0  0
   13.9218   -7.4250   21.6528 C   0  0  0  0  0  0  0  0  0  0  0  0
   14.4045   -6.7129   22.8801 C   0  0  0  0  0  0  0  0  0  0  0  0
   15.8967   -6.5992   22.6729 C   0  0  0  0  0  0  0  0  0  0  0  0
   16.1705   -6.7870   21.3105 O   0  0  0  0  0  0  0  0  0  0  0  0
 12 13  1  0  0  0
 13 14  1  0  0  0
 14 15  2  0  0  0
 15 16  1  0  0  0
 16 17  2  0  0  0
 17 18  1  0  0  0
 18 19  2  0  0  0
 19 20  1  0  0  0
 20 21  2  0  0  0
 21 11  1  0  0  0
 11  7  1  0  0  0
  7  8  1  0  0  0
  8  9  2  0  0  0
  8  1  1  0  0  0
  1  2  2  0  0  0
  2  3  1  0  0  0
  3  4  2  0  0  0
  4  5  1  0  0  0
  5  6  2  0  0  0
  3 22  1  0  0  0
 22 23  2  0  0  0
 22 24  2  0  0  0
 22 25  1  0  0  0
 25 27  1  0  0  0
 27 28  1  0  0  0
 28 29  1  0  0  0
 29 30  1  0  0  0
 30 31  1  0  0  0
 31 32  1  0  0  0
 21 13  1  0  0  0
 19 14  1  0  0  0
  6  1  1  0  0  0
 32 28  1  0  0  0
  7 10  1  0  0  0
 25 26  1  0  0  0
M  END
>  <minimizedAffinity>
-6.31246

>  <minimizedRMSD>
1.62896

$$$$
CSSS02746050282 Z5306638854


 28 31  0  0  0  0  0  0  0  0999 V2000
   17.8055   -9.9803   13.8675 C   0  0  0  0  0  0  0  0  0  0  0  0
   18.5880  -10.9524   13.2717 C   0  0  0  0  0  0  0  0  0  0  0  0
   18.0001  -11.1199   12.0269 C   0  0  0  0  0  0  0  0  0  0  0  0
   16.9446  -10.2887   11.9443 N   0  0  0  0  0  0  0  0  0  0  0  0
   16.8151   -9.5829   13.0516 N   0  0  0  0  0  0  0  0  0  0  0  0
   18.0311   -9.4612   15.1821 N   0  0  0  0  0  0  0  0  0  0  0  0
   18.9562   -9.4696   15.5188 H   0  0  0  0  0  0  0  0  0  0  0  0
   15.1047   -7.9308   17.7588 C   0  0  0  0  0  0  0  0  0  0  0  0
   15.0590   -7.6446   16.3896 C   0  0  0  0  0  0  0  0  0  0  0  0
   16.0156   -8.1495   15.5673 N   0  0  0  0  0  0  0  0  0  0  0  0
   17.0214   -8.9308   16.0475 C   0  0  0  0  0  0  0  0  0  0  0  0
   17.0681   -9.2164   17.4129 C   0  0  0  0  0  0  0  0  0  0  0  0
   16.1118   -8.7119   18.2362 N   0  0  0  0  0  0  0  0  0  0  0  0
   13.0402   -7.3785   20.9699 C   0  0  0  0  0  0  0  0  0  0  0  0
   14.0275   -7.8694   20.0233 N   0  0  0  0  0  0  0  0  0  0  0  0
   14.0841   -7.3993   18.6749 C   0  0  0  0  0  0  0  0  0  0  0  0
   13.2613   -6.5315   18.2727 O   0  0  0  0  0  0  0  0  0  0  0  0
   14.6773   -8.5468   20.3201 H   0  0  0  0  0  0  0  0  0  0  0  0
   16.0882  -10.1331   10.7806 C   0  0  0  0  0  0  0  0  0  0  0  0
   16.8559   -9.5172    9.6621 C   0  0  0  0  0  0  0  0  0  0  0  0
   17.8668   -8.5780    9.8196 C   0  0  0  0  0  0  0  0  0  0  0  0
   18.3200   -8.3392    8.5812 N   0  0  0  0  0  0  0  0  0  0  0  0
   19.3056   -7.4990    8.1804 C   0  0  0  0  0  0  0  0  0  0  0  0
   19.5988   -7.4343    6.8105 C   0  0  0  0  0  0  0  0  0  0  0  0
   18.8717   -8.2339    5.9079 C   0  0  0  0  0  0  0  0  0  0  0  0
   17.8598   -9.0915    6.3691 C   0  0  0  0  0  0  0  0  0  0  0  0
   17.6136   -9.1110    7.7399 C   0  0  0  0  0  0  0  0  0  0  0  0
   16.6938   -9.8677    8.3636 N   0  0  0  0  0  0  0  0  0  0  0  0
 14 15  1  0  0  0
 15 16  1  0  0  0
 16 17  2  0  0  0
 16  8  1  0  0  0
  8  9  2  0  0  0
  9 10  1  0  0  0
 10 11  2  0  0  0
 11  6  1  0  0  0
  6  1  1  0  0  0
  1  2  1  0  0  0
  2  3  2  0  0  0
  3  4  1  0  0  0
  4 19  1  0  0  0
 19 20  1  0  0  0
 20 21  2  0  0  0
 21 22  1  0  0  0
 22 23  1  0  0  0
 23 24  2  0  0  0
 24 25  1  0  0  0
 25 26  2  0  0  0
 26 27  1  0  0  0
 27 28  2  0  0  0
  4  5  1  0  0  0
 11 12  1  0  0  0
 12 13  2  0  0  0
 13  8  1  0  0  0
  5  1  2  0  0  0
 28 20  1  0  0  0
 27 22  1  0  0  0
 15 18  1  0  0  0
  6  7  1  0  0  0
M  END
>  <minimizedAffinity>
-6.30408

>  <minimizedRMSD>
2.37814

$$$$
CSSS00160166534 MCULE-8037757470 MolPort-042-629-176


 24 26  0  0  0  0  0  0  0  0999 V2000
   16.9374   -9.9408   12.4667 C   0  0  0  0  0  0  0  0  0  0  0  0
   17.6336  -10.9363   12.8035 O   0  0  0  0  0  0  0  0  0  0  0  0
   16.5911   -8.9548   13.4408 N   0  0  0  0  0  0  0  0  0  0  0  0
   16.0463   -8.1827   13.1648 H   0  0  0  0  0  0  0  0  0  0  0  0
   14.0879  -10.7262   11.2699 C   0  0  0  0  0  0  0  0  0  0  0  0
   15.2414  -10.1364   10.5345 C   0  0  0  0  0  0  0  0  0  0  0  0
   16.4823   -9.7967   11.0662 C   0  0  0  0  0  0  0  0  0  0  0  0
   17.2146   -9.3001   10.0524 N   0  0  0  0  0  0  0  0  0  0  0  0
   18.4871   -8.8248   10.0294 C   0  0  0  0  0  0  0  0  0  0  0  0
   18.9989   -8.3635    8.8090 C   0  0  0  0  0  0  0  0  0  0  0  0
   20.3850   -7.8343    8.7320 C   0  0  0  0  0  0  0  0  0  0  0  0
   18.1914   -8.4049    7.6577 C   0  0  0  0  0  0  0  0  0  0  0  0
   16.8813   -8.9037    7.7245 C   0  0  0  0  0  0  0  0  0  0  0  0
   16.4254   -9.3486    8.9635 C   0  0  0  0  0  0  0  0  0  0  0  0
   15.2013   -9.8558    9.2106 N   0  0  0  0  0  0  0  0  0  0  0  0
   17.0176   -9.0556   14.8259 C   0  0  0  0  0  0  0  0  0  0  0  0
   16.0765   -8.2526   15.7032 C   0  0  0  0  0  0  0  0  0  0  0  0
   16.0747   -8.7988   17.1218 C   0  0  0  0  0  0  0  0  0  0  0  0
   15.2416   -7.9512   18.0246 C   0  0  0  0  0  0  0  0  0  0  0  0
   14.1318   -7.2929   17.6462 N   0  0  0  0  0  0  0  0  0  0  0  0
   13.7306   -6.6633   18.7385 N   0  0  0  0  0  0  0  0  0  0  0  0
   14.5610   -6.9234   19.7361 N   0  0  0  0  0  0  0  0  0  0  0  0
   15.5241   -7.7290   19.3192 N   0  0  0  0  0  0  0  0  0  0  0  0
   16.2789   -8.0858   19.8409 H   0  0  0  0  0  0  0  0  0  0  0  0
  5  6  1  0  0  0
  6  7  2  0  0  0
  7  8  1  0  0  0
  8  9  1  0  0  0
  9 10  2  0  0  0
 10 11  1  0  0  0
 10 12  1  0  0  0
 12 13  2  0  0  0
 13 14  1  0  0  0
 14 15  2  0  0  0
  7  1  1  0  0  0
  1  2  2  0  0  0
  1  3  1  0  0  0
  3 16  1  0  0  0
 16 17  1  0  0  0
 17 18  1  0  0  0
 18 19  1  0  0  0
 19 20  2  0  0  0
 20 21  1  0  0  0
 21 22  2  0  0  0
 22 23  1  0  0  0
 15  6  1  0  0  0
 23 19  1  0  0  0
 14  8  1  0  0  0
  3  4  1  0  0  0
 23 24  1  0  0  0
M  END
>  <minimizedAffinity>
-6.29763

>  <minimizedRMSD>
1.74810

$$$$
CSSS00105525556 MCULE-7091672149 PubChem-72119144 Z1273274574


 29 31  0  0  0  0  0  0  0  0999 V2000
   16.2966   -8.8262   16.3149 C   0  0  0  0  0  0  0  0  0  0  0  0
   17.3943   -9.6735   16.1322 C   0  0  0  0  0  0  0  0  0  0  0  0
   17.8865   -9.9137   14.8462 C   0  0  0  0  0  0  0  0  0  0  0  0
   17.2844   -9.3104   13.7320 C   0  0  0  0  0  0  0  0  0  0  0  0
   16.1820   -8.4648   13.9228 C   0  0  0  0  0  0  0  0  0  0  0  0
   15.6897   -8.2242   15.2086 C   0  0  0  0  0  0  0  0  0  0  0  0
   17.8005   -9.5655   12.3759 C   0  0  0  0  0  0  0  0  0  0  0  0
   18.1066   -8.4648   11.5098 N   0  0  0  0  0  0  0  0  0  0  0  0
   18.0170  -10.7495   11.9989 O   0  0  0  0  0  0  0  0  0  0  0  0
   18.1656   -7.5730   11.9225 H   0  0  0  0  0  0  0  0  0  0  0  0
   18.3346   -8.5460   10.0970 C   0  0  0  0  0  0  0  0  0  0  0  0
   17.5186   -9.2834    9.2264 C   0  0  0  0  0  0  0  0  0  0  0  0
   17.7440   -9.3079    7.8808 C   0  0  0  0  0  0  0  0  0  0  0  0
   16.7516  -10.0864    7.3337 C   0  0  0  0  0  0  0  0  0  0  0  0
   15.9652  -10.4925    8.3613 N   0  0  0  0  0  0  0  0  0  0  0  0
   16.4216  -10.0020    9.5100 N   0  0  0  0  0  0  0  0  0  0  0  0
   18.7844   -8.6019    7.2852 C   0  0  0  0  0  0  0  0  0  0  0  0
   19.6124   -7.8389    8.1282 C   0  0  0  0  0  0  0  0  0  0  0  0
   19.3833   -7.8043    9.5215 C   0  0  0  0  0  0  0  0  0  0  0  0
   16.0281  -10.1403   10.4017 H   0  0  0  0  0  0  0  0  0  0  0  0
   15.7602   -8.5806   17.6847 C   0  0  0  0  0  0  0  0  0  0  0  0
   13.7950   -7.4045   18.7723 C   0  0  0  0  0  0  0  0  0  0  0  0
   14.5842   -7.7225   17.6244 N   0  0  0  0  0  0  0  0  0  0  0  0
   14.0748   -7.9123   19.8922 O   0  0  0  0  0  0  0  0  0  0  0  0
   14.3216   -7.3450   16.7539 H   0  0  0  0  0  0  0  0  0  0  0  0
   13.3739   -4.8331   20.3317 C   0  0  0  0  0  0  0  0  0  0  0  0
   12.4451   -5.3474   19.2836 C   0  0  0  0  0  0  0  0  0  0  0  0
   11.2276   -4.5544   18.9725 C   0  0  0  0  0  0  0  0  0  0  0  0
   12.6555   -6.4833   18.6110 C   0  0  0  0  0  0  0  0  0  0  0  0
 26 27  1  0  0  0
 27 28  1  0  0  0
 27 29  2  0  0  0
 29 22  1  0  0  0
 22 23  1  0  0  0
 23 21  1  0  0  0
 21  1  1  0  0  0
  1  2  2  0  0  0
  2  3  1  0  0  0
  3  4  2  0  0  0
  4  7  1  0  0  0
  7  8  1  0  0  0
  8 11  1  0  0  0
 11 12  1  0  0  0
 12 13  2  0  0  0
 13 14  1  0  0  0
 14 15  2  0  0  0
 15 16  1  0  0  0
 13 17  1  0  0  0
 17 18  2  0  0  0
 18 19  1  0  0  0
  7  9  2  0  0  0
  4  5  1  0  0  0
  5  6  2  0  0  0
 22 24  2  0  0  0
  6  1  1  0  0  0
 19 11  2  0  0  0
 16 12  1  0  0  0
 23 25  1  0  0  0
  8 10  1  0  0  0
 16 20  1  0  0  0
M  END
>  <minimizedAffinity>
-6.29211

>  <minimizedRMSD>
1.49085

$$$$
77541512 CSSS00159825186 MCULE-7544042194 MolPort-023-272-990 PubChem-70785692 ZINC000077541512 ZINC77541512


 31 34  0  0  0  0  0  0  0  0999 V2000
   16.0129   -9.9100   10.3721 C   0  0  0  0  0  0  0  0  0  0  0  0
   14.8092  -10.1805   10.1087 O   0  0  0  0  0  0  0  0  0  0  0  0
   16.9414   -9.6687    9.3094 N   0  0  0  0  0  0  0  0  0  0  0  0
   17.8656   -9.4195    9.5393 H   0  0  0  0  0  0  0  0  0  0  0  0
   17.5837   -9.5563   15.6719 N   0  0  0  0  0  0  0  0  0  0  0  0
   16.5307   -8.8135   16.0930 C   0  0  0  0  0  0  0  0  0  0  0  0
   16.3763   -8.3696   17.4373 N   0  0  0  0  0  0  0  0  0  0  0  0
   15.6307   -8.5220   15.1146 N   0  0  0  0  0  0  0  0  0  0  0  0
   16.1735   -9.1199   14.0362 C   0  0  0  0  0  0  0  0  0  0  0  0
   15.6918   -9.1483   12.7334 C   0  0  0  0  0  0  0  0  0  0  0  0
   16.4617   -9.8389   11.7728 C   0  0  0  0  0  0  0  0  0  0  0  0
   17.6745  -10.4599   12.1699 C   0  0  0  0  0  0  0  0  0  0  0  0
   18.1024  -10.3995   13.4671 N   0  0  0  0  0  0  0  0  0  0  0  0
   17.3397   -9.7334   14.3683 C   0  0  0  0  0  0  0  0  0  0  0  0
   17.0523   -8.6038   18.1137 H   0  0  0  0  0  0  0  0  0  0  0  0
   15.5937   -7.8286   17.6902 H   0  0  0  0  0  0  0  0  0  0  0  0
   18.4175  -11.3211   17.1368 C   0  0  0  0  0  0  0  0  0  0  0  0
   18.7306  -10.0048   16.4501 C   0  0  0  0  0  0  0  0  0  0  0  0
   16.5782   -9.7760    7.9034 C   0  0  0  0  0  0  0  0  0  0  0  0
   17.6027   -9.1031    7.0551 C   0  0  0  0  0  0  0  0  0  0  0  0
   17.6570   -9.2655    5.7075 N   0  0  0  0  0  0  0  0  0  0  0  0
   18.7262   -8.5299    5.3732 C   0  0  0  0  0  0  0  0  0  0  0  0
   19.2568   -8.3314    4.1023 C   0  0  0  0  0  0  0  0  0  0  0  0
   20.3979   -7.5151    3.9994 C   0  0  0  0  0  0  0  0  0  0  0  0
   20.9767   -6.9242    5.1533 C   0  0  0  0  0  0  0  0  0  0  0  0
   20.4054   -7.1547    6.4196 C   0  0  0  0  0  0  0  0  0  0  0  0
   19.2762   -7.9664    6.4832 C   0  0  0  0  0  0  0  0  0  0  0  0
   18.5822   -8.3178    7.5746 N   0  0  0  0  0  0  0  0  0  0  0  0
   18.7416   -8.0699    8.5139 H   0  0  0  0  0  0  0  0  0  0  0  0
   22.1102   -6.1118    5.0652 O   0  0  0  0  0  0  0  0  0  0  0  0
   22.1986   -5.0130    4.1686 C   0  0  0  0  0  0  0  0  0  0  0  0
 17 18  1  0  0  0
 18  5  1  0  0  0
  5  6  1  0  0  0
  6  7  1  0  0  0
  6  8  2  0  0  0
  8  9  1  0  0  0
  9 10  2  0  0  0
 10 11  1  0  0  0
 11 12  2  0  0  0
 11  1  1  0  0  0
 12 13  1  0  0  0
 13 14  2  0  0  0
 14  5  1  0  0  0
 14  9  1  0  0  0
  1  2  2  0  0  0
  1  3  1  0  0  0
  3 19  1  0  0  0
 19 20  1  0  0  0
 20 21  2  0  0  0
 21 22  1  0  0  0
 22 23  2  0  0  0
 23 24  1  0  0  0
 24 25  2  0  0  0
 25 30  1  0  0  0
 25 26  1  0  0  0
 30 31  1  0  0  0
 26 27  2  0  0  0
 27 28  1  0  0  0
 27 22  1  0  0  0
 28 20  1  0  0  0
  7 15  1  0  0  0
  7 16  1  0  0  0
  3  4  1  0  0  0
 28 29  1  0  0  0
M  END
>  <minimizedAffinity>
-6.29201

>  <minimizedRMSD>
2.44179

$$$$
119350804 CSSS00138549083 MCULE-4164947244 MolPort-046-704-535 Z1502763467


 22 24  0  0  0  0  0  0  0  0999 V2000
   16.2717   -9.6283   12.5875 C   0  0  0  0  0  0  0  0  0  0  0  0
   17.3113   -9.3156   11.6224 N   0  0  0  0  0  0  0  0  0  0  0  0
   18.1799   -8.9842   11.9463 H   0  0  0  0  0  0  0  0  0  0  0  0
   17.1105   -9.4749   10.2162 C   0  0  0  0  0  0  0  0  0  0  0  0
   17.8932   -8.7724    9.3015 C   0  0  0  0  0  0  0  0  0  0  0  0
   18.9219   -7.8642    9.5754 C   0  0  0  0  0  0  0  0  0  0  0  0
   19.4993   -7.3419    8.4115 C   0  0  0  0  0  0  0  0  0  0  0  0
   18.7176   -8.0212    7.0667 S   0  0  0  0  0  0  0  0  0  0  0  0
   17.6651   -8.9617    7.9595 C   0  0  0  0  0  0  0  0  0  0  0  0
   16.7116   -9.8029    7.4942 N   0  0  0  0  0  0  0  0  0  0  0  0
   15.9502  -10.4870    8.3950 C   0  0  0  0  0  0  0  0  0  0  0  0
   16.1511  -10.3220    9.7375 N   0  0  0  0  0  0  0  0  0  0  0  0
   16.1513   -8.4939   13.5847 C   0  0  0  0  0  0  0  0  0  0  0  0
   17.1664  -10.0991   15.2352 N   0  0  0  0  0  0  0  0  0  0  0  0
   17.1007  -10.1822   16.5748 C   0  0  0  0  0  0  0  0  0  0  0  0
   17.8605  -11.4719   17.5563 S   0  0  0  0  0  0  0  0  0  0  0  0
   16.3766   -9.1740   17.0971 N   0  0  0  0  0  0  0  0  0  0  0  0
   15.9619   -8.4303   16.0799 N   0  0  0  0  0  0  0  0  0  0  0  0
   16.4478   -8.9949   14.9574 C   0  0  0  0  0  0  0  0  0  0  0  0
   18.5186  -12.3361   16.7380 H   0  0  0  0  0  0  0  0  0  0  0  0
   19.2979  -10.7601   14.2447 C   0  0  0  0  0  0  0  0  0  0  0  0
   17.8059  -11.0281   14.3117 C   0  0  0  0  0  0  0  0  0  0  0  0
 21 22  1  0  0  0
 22 14  1  0  0  0
 14 15  1  0  0  0
 15 16  1  0  0  0
 15 17  2  0  0  0
 17 18  1  0  0  0
 18 19  2  0  0  0
 19 13  1  0  0  0
 13  1  1  0  0  0
  1  2  1  0  0  0
  2  4  1  0  0  0
  4  5  2  0  0  0
  5  6  1  0  0  0
  6  7  2  0  0  0
  7  8  1  0  0  0
  8  9  1  0  0  0
  9 10  2  0  0  0
 10 11  1  0  0  0
 11 12  2  0  0  0
 19 14  1  0  0  0
 12  4  1  0  0  0
  9  5  1  0  0  0
 16 20  1  0  0  0
  2  3  1  0  0  0
M  END
>  <minimizedAffinity>
-6.28904

>  <minimizedRMSD>
1.86799

$$$$
CSSS00132663973 MCULE-1677753312 MolPort-019-856-515 PubChem-135629069


 35 38  0  0  0  0  0  0  0  0999 V2000
   17.1637   -9.4912   15.1187 N   0  0  0  0  0  0  0  0  0  0  0  0
   16.8353   -9.5857   13.8190 C   0  0  0  0  0  0  0  0  0  0  0  0
   15.7298   -8.8709   13.5358 N   0  0  0  0  0  0  0  0  0  0  0  0
   15.3332   -8.3097   14.6702 N   0  0  0  0  0  0  0  0  0  0  0  0
   16.2102   -8.6864   15.6234 C   0  0  0  0  0  0  0  0  0  0  0  0
   19.5029   -9.2892   15.7865 C   0  0  0  0  0  0  0  0  0  0  0  0
   18.2584  -10.1564   15.8137 C   0  0  0  0  0  0  0  0  0  0  0  0
   16.0933   -8.3108   17.0689 C   0  0  0  0  0  0  0  0  0  0  0  0
   16.2856   -9.5421   17.9311 C   0  0  0  0  0  0  0  0  0  0  0  0
   14.7871   -7.7269   17.3430 N   0  0  0  0  0  0  0  0  0  0  0  0
   14.3731   -7.3118   18.6490 C   0  0  0  0  0  0  0  0  0  0  0  0
   15.1453   -7.4920   19.6308 O   0  0  0  0  0  0  0  0  0  0  0  0
   14.1587   -7.6122   16.5939 H   0  0  0  0  0  0  0  0  0  0  0  0
   13.0502   -6.6752   18.8658 C   0  0  0  0  0  0  0  0  0  0  0  0
   11.8282   -7.3816   18.7428 C   0  0  0  0  0  0  0  0  0  0  0  0
   10.6158   -6.7045   18.9629 C   0  0  0  0  0  0  0  0  0  0  0  0
   10.6036   -5.3507   19.2987 C   0  0  0  0  0  0  0  0  0  0  0  0
   11.8044   -4.6543   19.4193 C   0  0  0  0  0  0  0  0  0  0  0  0
   13.0159   -5.3123   19.2042 C   0  0  0  0  0  0  0  0  0  0  0  0
   11.8235   -8.7406   18.4052 O   0  0  0  0  0  0  0  0  0  0  0  0
   10.8323   -9.6497   18.8649 C   0  0  0  0  0  0  0  0  0  0  0  0
   17.7398  -10.5416   12.6058 S   0  0  0  0  0  0  0  0  0  0  0  0
   18.5069   -9.0524   11.9021 C   0  0  0  0  0  0  0  0  0  0  0  0
   18.3142   -9.0251   10.4267 C   0  0  0  0  0  0  0  0  0  0  0  0
   19.1352   -8.2656    9.6548 N   0  0  0  0  0  0  0  0  0  0  0  0
   18.9762   -8.2163    8.3077 C   0  0  0  0  0  0  0  0  0  0  0  0
   19.8315   -7.4321    7.5283 C   0  0  0  0  0  0  0  0  0  0  0  0
   19.6648   -7.3834    6.1406 C   0  0  0  0  0  0  0  0  0  0  0  0
   18.6436   -8.1178    5.5289 C   0  0  0  0  0  0  0  0  0  0  0  0
   17.7841   -8.9041    6.3022 C   0  0  0  0  0  0  0  0  0  0  0  0
   17.9457   -8.9581    7.6938 C   0  0  0  0  0  0  0  0  0  0  0  0
   17.1092   -9.7299    8.5110 C   0  0  0  0  0  0  0  0  0  0  0  0
   16.1711  -10.4105    8.0162 O   0  0  0  0  0  0  0  0  0  0  0  0
   17.3111   -9.7444    9.8547 N   0  0  0  0  0  0  0  0  0  0  0  0
   16.7197  -10.2862   10.4256 H   0  0  0  0  0  0  0  0  0  0  0  0
  6  7  1  0  0  0
  7  1  1  0  0  0
  1  2  1  0  0  0
  2 22  1  0  0  0
  2  3  2  0  0  0
 22 23  1  0  0  0
 23 24  1  0  0  0
 24 25  2  0  0  0
 25 26  1  0  0  0
 26 27  2  0  0  0
 27 28  1  0  0  0
 28 29  2  0  0  0
 29 30  1  0  0  0
 30 31  2  0  0  0
 31 32  1  0  0  0
 31 26  1  0  0  0
 32 33  2  0  0  0
 32 34  1  0  0  0
 34 24  1  0  0  0
  3  4  1  0  0  0
  4  5  2  0  0  0
  5  1  1  0  0  0
  8  5  1  0  0  0
  8  9  1  0  0  0
  8 10  1  0  0  0
 10 11  1  0  0  0
 11 12  2  0  0  0
 11 14  1  0  0  0
 14 15  2  0  0  0
 15 20  1  0  0  0
 15 16  1  0  0  0
 20 21  1  0  0  0
 16 17  2  0  0  0
 17 18  1  0  0  0
 18 19  2  0  0  0
 19 14  1  0  0  0
 34 35  1  0  0  0
 10 13  1  0  0  0
M  END
>  <minimizedAffinity>
-6.28753

>  <minimizedRMSD>
1.81227

$$$$
CSC026346747 23644724 CSSS00026346747 HRRNEZOBIOASBS-UHFFFAOYSA-N MCULE-9750141925 MolPort-009-120-799 Z62865716 ZINC000023644724


 24 27  0  0  0  0  0  0  0  0999 V2000
   18.3746  -12.1178   13.4139 O   0  0  0  0  0  0  0  0  0  0  0  0
   17.8003  -10.9946   13.3948 C   0  0  0  0  0  0  0  0  0  0  0  0
   17.5796  -10.3268   12.1502 N   0  0  0  0  0  0  0  0  0  0  0  0
   17.1267   -9.4527   12.1521 H   0  0  0  0  0  0  0  0  0  0  0  0
   17.3582  -10.3711   14.6542 C   0  0  0  0  0  0  0  0  0  0  0  0
   16.4263   -9.3108   14.6305 C   0  0  0  0  0  0  0  0  0  0  0  0
   16.0435   -8.7577   15.8491 C   0  0  0  0  0  0  0  0  0  0  0  0
   16.5352   -9.2054   17.0327 C   0  0  0  0  0  0  0  0  0  0  0  0
   16.0061   -8.5055   18.0449 N   0  0  0  0  0  0  0  0  0  0  0  0
   15.1829   -7.6270   17.4128 C   0  0  0  0  0  0  0  0  0  0  0  0
   15.1812   -7.7545   16.0590 N   0  0  0  0  0  0  0  0  0  0  0  0
   17.4549  -10.2471   17.1067 C   0  0  0  0  0  0  0  0  0  0  0  0
   17.8664  -10.8319   15.8949 C   0  0  0  0  0  0  0  0  0  0  0  0
   16.1726   -8.6032   19.0103 H   0  0  0  0  0  0  0  0  0  0  0  0
   18.0028  -10.8974   10.8823 C   0  0  0  0  0  0  0  0  0  0  0  0
   17.4089  -10.1154    9.7614 C   0  0  0  0  0  0  0  0  0  0  0  0
   18.0070   -9.0920    9.1341 N   0  0  0  0  0  0  0  0  0  0  0  0
   17.0874   -8.6705    8.2577 C   0  0  0  0  0  0  0  0  0  0  0  0
   17.3402   -7.5986    7.4069 C   0  0  0  0  0  0  0  0  0  0  0  0
   18.6001   -6.9834    7.5122 C   0  0  0  0  0  0  0  0  0  0  0  0
   19.5508   -7.4452    8.4458 C   0  0  0  0  0  0  0  0  0  0  0  0
   19.2334   -8.5311    9.2761 C   0  0  0  0  0  0  0  0  0  0  0  0
   15.9542   -9.3922    8.3342 N   0  0  0  0  0  0  0  0  0  0  0  0
   16.1564  -10.2998    9.2869 N   0  0  0  0  0  0  0  0  0  0  0  0
  1  2  2  0  0  0
  2  5  1  0  0  0
  5  6  2  0  0  0
  6  7  1  0  0  0
  7  8  2  0  0  0
  8  9  1  0  0  0
  9 10  1  0  0  0
 10 11  2  0  0  0
  8 12  1  0  0  0
 12 13  2  0  0  0
  2  3  1  0  0  0
  3 15  1  0  0  0
 15 16  1  0  0  0
 16 17  1  0  0  0
 17 18  1  0  0  0
 18 19  1  0  0  0
 19 20  2  0  0  0
 20 21  1  0  0  0
 21 22  2  0  0  0
 18 23  2  0  0  0
 23 24  1  0  0  0
 13  5  1  0  0  0
 24 16  2  0  0  0
 11  7  1  0  0  0
 22 17  1  0  0  0
  9 14  1  0  0  0
  3  4  1  0  0  0
M  END
>  <minimizedAffinity>
-6.28272

>  <minimizedRMSD>
0.29064

$$$$
CSC027641237 CSSS00027641237 MCULE-2864736940 MolPort-023-179-898 PubChem-72109174 Z1328863699


 22 23  0  0  0  0  0  0  0  0999 V2000
   18.2998  -10.4740   13.7586 C   0  0  0  0  0  0  0  0  0  0  0  0
   19.3446   -9.9984   14.2787 O   0  0  0  0  0  0  0  0  0  0  0  0
   18.1085  -10.3591   12.3121 C   0  0  0  0  0  0  0  0  0  0  0  0
   17.3595   -9.3966   11.7869 C   0  0  0  0  0  0  0  0  0  0  0  0
   17.1569   -9.2653   10.3373 C   0  0  0  0  0  0  0  0  0  0  0  0
   16.0656   -9.7186    9.5984 C   0  0  0  0  0  0  0  0  0  0  0  0
   14.6701  -10.5596   10.2454 Cl  0  0  0  0  0  0  0  0  0  0  0  0
   16.2173   -9.4214    8.2776 N   0  0  0  0  0  0  0  0  0  0  0  0
   17.4089   -8.7940    8.2792 C   0  0  0  0  0  0  0  0  0  0  0  0
   18.3230   -8.1117    7.0612 S   0  0  0  0  0  0  0  0  0  0  0  0
   19.5508   -7.6470    8.1687 C   0  0  0  0  0  0  0  0  0  0  0  0
   19.1795   -8.0557    9.4631 C   0  0  0  0  0  0  0  0  0  0  0  0
   17.9827   -8.6855    9.4578 N   0  0  0  0  0  0  0  0  0  0  0  0
   17.3335  -11.1010   14.5496 O   0  0  0  0  0  0  0  0  0  0  0  0
   16.8546  -10.5178   15.7538 C   0  0  0  0  0  0  0  0  0  0  0  0
   15.7313   -9.5444   15.4480 C   0  0  0  0  0  0  0  0  0  0  0  0
   16.0835   -8.1598   15.9608 C   0  0  0  0  0  0  0  0  0  0  0  0
   15.9201   -8.1453   18.4764 N   0  0  0  0  0  0  0  0  0  0  0  0
   15.3287   -7.8758   17.2108 C   0  0  0  0  0  0  0  0  0  0  0  0
   14.1552   -7.4256   17.1492 O   0  0  0  0  0  0  0  0  0  0  0  0
   15.4202   -7.9572   19.3034 H   0  0  0  0  0  0  0  0  0  0  0  0
   16.8292   -8.5199   18.5252 H   0  0  0  0  0  0  0  0  0  0  0  0
 18 19  1  0  0  0
 19 20  2  0  0  0
 19 17  1  0  0  0
 17 16  1  0  0  0
 16 15  1  0  0  0
 15 14  1  0  0  0
 14  1  1  0  0  0
  1  2  2  0  0  0
  1  3  1  0  0  0
  3  4  2  0  0  0
  4  5  1  0  0  0
  5  6  2  0  0  0
  6  7  1  0  0  0
  6  8  1  0  0  0
  8  9  2  0  0  0
  9 10  1  0  0  0
 10 11  1  0  0  0
 11 12  2  0  0  0
 12 13  1  0  0  0
 13  5  1  0  0  0
 13  9  1  0  0  0
 18 21  1  0  0  0
 18 22  1  0  0  0
M  END
>  <minimizedAffinity>
-6.27291

>  <minimizedRMSD>
0.84420

$$$$
CSSS02337586811 Z4176405266


 29 31  0  0  0  0  0  0  0  0999 V2000
   17.9532  -11.0652   15.4685 N   0  0  0  0  0  0  0  0  0  0  0  0
   18.2044  -12.3090   15.0188 C   0  0  0  0  0  0  0  0  0  0  0  0
   18.5866  -12.2209   13.6886 C   0  0  0  0  0  0  0  0  0  0  0  0
   18.5276  -10.8643   13.4281 C   0  0  0  0  0  0  0  0  0  0  0  0
   18.1367  -10.1742   14.5126 N   0  0  0  0  0  0  0  0  0  0  0  0
   18.8269  -10.2759   12.1589 N   0  0  0  0  0  0  0  0  0  0  0  0
   17.9440   -9.4237   11.4201 C   0  0  0  0  0  0  0  0  0  0  0  0
   16.8388   -9.0668   11.9107 O   0  0  0  0  0  0  0  0  0  0  0  0
   19.7068  -10.4718   11.7631 H   0  0  0  0  0  0  0  0  0  0  0  0
   18.3667   -8.8798   10.1192 C   0  0  0  0  0  0  0  0  0  0  0  0
   19.4891   -8.0362   10.0765 C   0  0  0  0  0  0  0  0  0  0  0  0
   19.9669   -7.5678    8.8425 C   0  0  0  0  0  0  0  0  0  0  0  0
   19.3306   -7.9356    7.6510 C   0  0  0  0  0  0  0  0  0  0  0  0
   18.2153   -8.7637    7.7426 C   0  0  0  0  0  0  0  0  0  0  0  0
   17.4633   -9.1605    6.6983 N   0  0  0  0  0  0  0  0  0  0  0  0
   16.4581   -9.8722    7.2584 C   0  0  0  0  0  0  0  0  0  0  0  0
   16.6398   -9.8916    8.6301 C   0  0  0  0  0  0  0  0  0  0  0  0
   15.6561  -10.4618    9.5926 C   0  0  0  0  0  0  0  0  0  0  0  0
   17.7588   -9.1994    8.9332 N   0  0  0  0  0  0  0  0  0  0  0  0
   17.4873  -10.7345   16.8047 C   0  0  0  0  0  0  0  0  0  0  0  0
   16.2695   -8.7281   17.7271 N   0  0  0  0  0  0  0  0  0  0  0  0
   16.3802   -9.7410   16.7276 C   0  0  0  0  0  0  0  0  0  0  0  0
   15.5315   -9.8237   15.8002 O   0  0  0  0  0  0  0  0  0  0  0  0
   16.9415   -8.6903   18.4456 H   0  0  0  0  0  0  0  0  0  0  0  0
   15.1944   -7.7513   17.7154 C   0  0  0  0  0  0  0  0  0  0  0  0
   14.6882   -7.5412   19.1295 C   0  0  0  0  0  0  0  0  0  0  0  0
   12.4484   -7.5361   18.4654 C   0  0  0  0  0  0  0  0  0  0  0  0
   13.4785   -6.7370   19.1060 N   0  0  0  0  0  0  0  0  0  0  0  0
   13.0674   -6.5646   20.4870 C   0  0  0  0  0  0  0  0  0  0  0  0
 27 28  1  0  0  0
 28 29  1  0  0  0
 28 26  1  0  0  0
 26 25  1  0  0  0
 25 21  1  0  0  0
 21 22  1  0  0  0
 22 23  2  0  0  0
 22 20  1  0  0  0
 20  1  1  0  0  0
  1  2  1  0  0  0
  2  3  2  0  0  0
  3  4  1  0  0  0
  4  6  1  0  0  0
  6  7  1  0  0  0
  7  8  2  0  0  0
  7 10  1  0  0  0
 10 11  2  0  0  0
 11 12  1  0  0  0
 12 13  2  0  0  0
 13 14  1  0  0  0
 14 15  2  0  0  0
 15 16  1  0  0  0
 16 17  2  0  0  0
 17 18  1  0  0  0
 17 19  1  0  0  0
  4  5  2  0  0  0
  5  1  1  0  0  0
 19 10  1  0  0  0
 19 14  1  0  0  0
 21 24  1  0  0  0
  6  9  1  0  0  0
M  END
>  <minimizedAffinity>
-6.26166

>  <minimizedRMSD>
1.88649

$$$$
CSSS00132316148 MCULE-8701193219 MolPort-002-026-748 PubChem-135425400


 33 36  0  0  0  0  0  0  0  0999 V2000
   17.0025   -9.9772   15.4478 C   0  0  0  0  0  0  0  0  0  0  0  0
   15.7569   -9.8504   14.9456 N   0  0  0  0  0  0  0  0  0  0  0  0
   15.8349  -10.1120   13.6473 N   0  0  0  0  0  0  0  0  0  0  0  0
   17.1258  -10.3903   13.3820 C   0  0  0  0  0  0  0  0  0  0  0  0
   17.8817  -10.3156   14.4899 N   0  0  0  0  0  0  0  0  0  0  0  0
   19.3140  -10.5329   14.6184 C   0  0  0  0  0  0  0  0  0  0  0  0
   17.8819  -11.0193   17.5034 C   0  0  0  0  0  0  0  0  0  0  0  0
   17.3611   -9.7385   16.8819 C   0  0  0  0  0  0  0  0  0  0  0  0
   16.1963   -9.2769   17.6244 N   0  0  0  0  0  0  0  0  0  0  0  0
   15.4980   -8.0681   17.3068 C   0  0  0  0  0  0  0  0  0  0  0  0
   15.9237   -7.3288   16.3768 O   0  0  0  0  0  0  0  0  0  0  0  0
   15.8744   -9.8209   18.3792 H   0  0  0  0  0  0  0  0  0  0  0  0
   14.2840   -7.6745   18.0581 C   0  0  0  0  0  0  0  0  0  0  0  0
   14.2393   -7.6656   19.4698 C   0  0  0  0  0  0  0  0  0  0  0  0
   15.3153   -8.0178   20.2161 F   0  0  0  0  0  0  0  0  0  0  0  0
   13.0666   -7.2880   20.1318 C   0  0  0  0  0  0  0  0  0  0  0  0
   11.9333   -6.9180   19.4055 C   0  0  0  0  0  0  0  0  0  0  0  0
   11.9673   -6.9239   18.0106 C   0  0  0  0  0  0  0  0  0  0  0  0
   13.1349   -7.2998   17.3429 C   0  0  0  0  0  0  0  0  0  0  0  0
   17.7409  -10.7999   11.7516 S   0  0  0  0  0  0  0  0  0  0  0  0
   17.7606   -9.0552   11.2439 C   0  0  0  0  0  0  0  0  0  0  0  0
   17.9158   -8.9517    9.7677 C   0  0  0  0  0  0  0  0  0  0  0  0
   18.8791   -8.1519    9.2367 N   0  0  0  0  0  0  0  0  0  0  0  0
   19.0291   -8.0408    7.8922 C   0  0  0  0  0  0  0  0  0  0  0  0
   20.0266   -7.2169    7.3630 C   0  0  0  0  0  0  0  0  0  0  0  0
   20.1784   -7.1048    5.9774 C   0  0  0  0  0  0  0  0  0  0  0  0
   19.3344   -7.8155    5.1178 C   0  0  0  0  0  0  0  0  0  0  0  0
   18.3346   -8.6417    5.6401 C   0  0  0  0  0  0  0  0  0  0  0  0
   18.1765   -8.7587    7.0283 C   0  0  0  0  0  0  0  0  0  0  0  0
   17.1882   -9.5713    7.5993 C   0  0  0  0  0  0  0  0  0  0  0  0
   16.3967  -10.2324    6.8747 O   0  0  0  0  0  0  0  0  0  0  0  0
   17.0803   -9.6477    8.9518 N   0  0  0  0  0  0  0  0  0  0  0  0
   16.3832  -10.2185    9.3488 H   0  0  0  0  0  0  0  0  0  0  0  0
  8  7  1  0  0  0
  8  9  1  0  0  0
  8  1  1  0  0  0
  9 10  1  0  0  0
 10 11  2  0  0  0
 10 13  1  0  0  0
 13 14  2  0  0  0
 14 15  1  0  0  0
 14 16  1  0  0  0
 16 17  2  0  0  0
 17 18  1  0  0  0
 18 19  2  0  0  0
 19 13  1  0  0  0
  1  2  2  0  0  0
  2  3  1  0  0  0
  3  4  2  0  0  0
  4 20  1  0  0  0
  4  5  1  0  0  0
 20 21  1  0  0  0
 21 22  1  0  0  0
 22 23  2  0  0  0
 23 24  1  0  0  0
 24 25  2  0  0  0
 25 26  1  0  0  0
 26 27  2  0  0  0
 27 28  1  0  0  0
 28 29  2  0  0  0
 29 30  1  0  0  0
 29 24  1  0  0  0
 30 31  2  0  0  0
 30 32  1  0  0  0
 32 22  1  0  0  0
  5  6  1  0  0  0
  5  1  1  0  0  0
  9 12  1  0  0  0
 32 33  1  0  0  0
M  END
>  <minimizedAffinity>
-6.25677

>  <minimizedRMSD>
1.52223

$$$$
CSC027150183 8942750 CSSS00027150183 MCULE-9451654398 MolPort-005-548-154 PubChem-135777258 Z148969548 ZINC000008942750 ZINC08942750


 28 30  0  0  0  0  0  0  0  0999 V2000
   17.2535  -10.0000   13.8599 O   0  0  0  0  0  0  0  0  0  0  0  0
   17.5495  -10.1405   15.2176 C   0  0  0  0  0  0  0  0  0  0  0  0
   18.4720  -10.9171   15.5904 O   0  0  0  0  0  0  0  0  0  0  0  0
   15.3049   -7.9154   18.1120 C   0  0  0  0  0  0  0  0  0  0  0  0
   16.2911   -8.8166   18.5255 C   0  0  0  0  0  0  0  0  0  0  0  0
   17.0250   -9.5439   17.5841 C   0  0  0  0  0  0  0  0  0  0  0  0
   16.7802   -9.3779   16.2138 C   0  0  0  0  0  0  0  0  0  0  0  0
   15.7926   -8.4754   15.7986 C   0  0  0  0  0  0  0  0  0  0  0  0
   15.0597   -7.7490   16.7409 C   0  0  0  0  0  0  0  0  0  0  0  0
   12.6888   -5.8381   20.0938 C   0  0  0  0  0  0  0  0  0  0  0  0
   13.2999   -6.5517   18.9428 C   0  0  0  0  0  0  0  0  0  0  0  0
   12.6888   -6.5851   17.8423 O   0  0  0  0  0  0  0  0  0  0  0  0
   14.5734   -7.1879   19.1083 N   0  0  0  0  0  0  0  0  0  0  0  0
   14.9892   -7.1183   19.9980 H   0  0  0  0  0  0  0  0  0  0  0  0
   17.8528  -10.8241   12.8711 C   0  0  0  0  0  0  0  0  0  0  0  0
   17.5621  -10.2718   11.5220 C   0  0  0  0  0  0  0  0  0  0  0  0
   18.4775   -9.4823   10.9021 N   0  0  0  0  0  0  0  0  0  0  0  0
   18.2251   -8.9402    9.6803 C   0  0  0  0  0  0  0  0  0  0  0  0
   19.1795   -8.1284    9.0422 C   0  0  0  0  0  0  0  0  0  0  0  0
   20.4958   -7.8346    9.6777 C   0  0  0  0  0  0  0  0  0  0  0  0
   18.8980   -7.5815    7.7862 C   0  0  0  0  0  0  0  0  0  0  0  0
   17.6739   -7.8360    7.1618 C   0  0  0  0  0  0  0  0  0  0  0  0
   16.7202   -8.6404    7.7898 C   0  0  0  0  0  0  0  0  0  0  0  0
   16.9886   -9.1955    9.0483 C   0  0  0  0  0  0  0  0  0  0  0  0
   16.0572  -10.0049    9.7131 C   0  0  0  0  0  0  0  0  0  0  0  0
   14.9370  -10.2604    9.1948 O   0  0  0  0  0  0  0  0  0  0  0  0
   16.3630  -10.5198   10.9325 N   0  0  0  0  0  0  0  0  0  0  0  0
   15.7034  -11.0832   11.3980 H   0  0  0  0  0  0  0  0  0  0  0  0
 10 11  1  0  0  0
 11 12  2  0  0  0
 11 13  1  0  0  0
 13  4  1  0  0  0
  4  5  2  0  0  0
  5  6  1  0  0  0
  6  7  2  0  0  0
  7  8  1  0  0  0
  7  2  1  0  0  0
  8  9  2  0  0  0
  9  4  1  0  0  0
  2  3  2  0  0  0
  2  1  1  0  0  0
  1 15  1  0  0  0
 15 16  1  0  0  0
 16 17  2  0  0  0
 17 18  1  0  0  0
 18 19  2  0  0  0
 19 20  1  0  0  0
 19 21  1  0  0  0
 21 22  2  0  0  0
 22 23  1  0  0  0
 23 24  2  0  0  0
 24 25  1  0  0  0
 24 18  1  0  0  0
 25 26  2  0  0  0
 25 27  1  0  0  0
 27 16  1  0  0  0
 13 14  1  0  0  0
 27 28  1  0  0  0
M  END
>  <minimizedAffinity>
-6.25228

>  <minimizedRMSD>
1.94042

$$$$
CSC027145104 69892987 CSSS00027145104 MCULE-5789073864 MolPort-020-163-138 PubChem-53614543 Z1132642027 ZINC000069892987


 25 27  0  0  0  0  0  0  0  0999 V2000
   16.7591  -10.4925   14.8872 C   0  0  0  0  0  0  0  0  0  0  0  0
   15.5093  -10.0814   14.0965 C   0  0  0  0  0  0  0  0  0  0  0  0
   15.8104   -8.9702   13.0924 C   0  0  0  0  0  0  0  0  0  0  0  0
   16.9710   -9.3345   12.2835 N   0  0  0  0  0  0  0  0  0  0  0  0
   18.2093   -9.6409   12.9928 C   0  0  0  0  0  0  0  0  0  0  0  0
   17.9682  -10.7759   13.9852 C   0  0  0  0  0  0  0  0  0  0  0  0
   16.8708   -9.5916   10.8693 C   0  0  0  0  0  0  0  0  0  0  0  0
   17.7091   -8.9621    9.9220 C   0  0  0  0  0  0  0  0  0  0  0  0
   17.5254   -9.2750    8.5561 C   0  0  0  0  0  0  0  0  0  0  0  0
   18.3353   -8.6807    7.5838 C   0  0  0  0  0  0  0  0  0  0  0  0
   19.3376   -7.7830    7.9595 C   0  0  0  0  0  0  0  0  0  0  0  0
   19.5362   -7.4800    9.3088 C   0  0  0  0  0  0  0  0  0  0  0  0
   18.7285   -8.0691   10.2853 C   0  0  0  0  0  0  0  0  0  0  0  0
   16.5718  -10.1653    8.1850 N   0  0  0  0  0  0  0  0  0  0  0  0
   15.7874  -10.7709    9.1111 C   0  0  0  0  0  0  0  0  0  0  0  0
   15.9428  -10.4865   10.4295 N   0  0  0  0  0  0  0  0  0  0  0  0
   18.4445   -9.1327   16.2224 C   0  0  0  0  0  0  0  0  0  0  0  0
   17.0722   -9.5577   15.9717 N   0  0  0  0  0  0  0  0  0  0  0  0
   16.0141   -9.0547   16.8001 C   0  0  0  0  0  0  0  0  0  0  0  0
   16.3062   -8.1427   17.8624 N   0  0  0  0  0  0  0  0  0  0  0  0
   14.8231   -9.4164   16.5926 O   0  0  0  0  0  0  0  0  0  0  0  0
   17.2398   -7.8691   18.0128 H   0  0  0  0  0  0  0  0  0  0  0  0
   15.2678   -7.6073   18.7266 C   0  0  0  0  0  0  0  0  0  0  0  0
   15.8581   -7.1905   19.9990 C   0  0  0  0  0  0  0  0  0  0  0  0
   16.3435   -6.8467   21.0476 C   0  0  0  0  0  0  0  0  0  0  0  0
 17 18  1  0  0  0
 18 19  1  0  0  0
 19 20  1  0  0  0
 20 23  1  0  0  0
 23 24  1  0  0  0
 24 25  3  0  0  0
 19 21  2  0  0  0
 18  1  1  0  0  0
  1  2  1  0  0  0
  2  3  1  0  0  0
  3  4  1  0  0  0
  4  7  1  0  0  0
  7  8  1  0  0  0
  8  9  1  0  0  0
  9 10  2  0  0  0
 10 11  1  0  0  0
 11 12  2  0  0  0
 12 13  1  0  0  0
  9 14  1  0  0  0
 14 15  2  0  0  0
 15 16  1  0  0  0
  4  5  1  0  0  0
  5  6  1  0  0  0
  6  1  1  0  0  0
 16  7  2  0  0  0
 13  8  2  0  0  0
 20 22  1  0  0  0
M  END
>  <minimizedAffinity>
-6.25159

>  <minimizedRMSD>
1.67981

$$$$
CSC025910902 11856475 CSSS00025910902 MCULE-1009290955 MolPort-005-301-247 PubChem-42226873 Z237578994 ZINC000011856475


 26 28  0  0  0  0  0  0  0  0999 V2000
   18.5599  -10.2652   14.0805 C   0  0  0  0  0  0  0  0  0  0  0  0
   15.9950   -8.5595   17.0699 C   0  0  0  0  0  0  0  0  0  0  0  0
   15.9572   -8.0800   15.7557 C   0  0  0  0  0  0  0  0  0  0  0  0
   16.7972   -8.6312   14.7838 C   0  0  0  0  0  0  0  0  0  0  0  0
   17.6786   -9.6638   15.1232 C   0  0  0  0  0  0  0  0  0  0  0  0
   17.7110  -10.1494   16.4354 C   0  0  0  0  0  0  0  0  0  0  0  0
   16.8708   -9.5976   17.4068 C   0  0  0  0  0  0  0  0  0  0  0  0
   14.9326   -7.8755   18.2861 S   0  0  0  0  0  0  0  0  0  0  0  0
   15.8722   -7.2158   19.5774 N   0  0  0  0  0  0  0  0  0  0  0  0
   14.1071   -6.7772   17.6773 O   0  0  0  0  0  0  0  0  0  0  0  0
   14.0263   -8.9470   18.8225 O   0  0  0  0  0  0  0  0  0  0  0  0
   15.2505   -6.8193   20.2821 H   0  0  0  0  0  0  0  0  0  0  0  0
   16.4840   -6.4851   19.2139 H   0  0  0  0  0  0  0  0  0  0  0  0
   17.7954  -10.4910   12.7856 C   0  0  0  0  0  0  0  0  0  0  0  0
   18.2608   -9.5669   11.7634 N   0  0  0  0  0  0  0  0  0  0  0  0
   19.0217   -8.9759   11.9657 H   0  0  0  0  0  0  0  0  0  0  0  0
   17.6488   -9.4902   10.4758 C   0  0  0  0  0  0  0  0  0  0  0  0
   16.4955  -10.1694   10.1935 N   0  0  0  0  0  0  0  0  0  0  0  0
   15.9081  -10.0922    8.9560 C   0  0  0  0  0  0  0  0  0  0  0  0
   16.4661   -9.3280    7.9684 N   0  0  0  0  0  0  0  0  0  0  0  0
   17.6079   -8.6568    8.2521 C   0  0  0  0  0  0  0  0  0  0  0  0
   18.2988   -7.8621    7.4259 N   0  0  0  0  0  0  0  0  0  0  0  0
   19.3429   -7.4158    8.1211 N   0  0  0  0  0  0  0  0  0  0  0  0
   19.3216   -7.9201    9.3833 C   0  0  0  0  0  0  0  0  0  0  0  0
   18.2040   -8.7188    9.4651 C   0  0  0  0  0  0  0  0  0  0  0  0
   18.0788   -7.6499    6.4900 H   0  0  0  0  0  0  0  0  0  0  0  0
  8  9  1  0  0  0
  8 10  2  0  0  0
  8 11  2  0  0  0
  8  2  1  0  0  0
  2  3  2  0  0  0
  3  4  1  0  0  0
  4  5  2  0  0  0
  5  6  1  0  0  0
  6  7  2  0  0  0
  5  1  1  0  0  0
  1 14  1  0  0  0
 14 15  1  0  0  0
 15 17  1  0  0  0
 17 18  2  0  0  0
 18 19  1  0  0  0
 19 20  2  0  0  0
 20 21  1  0  0  0
 21 22  1  0  0  0
 22 23  1  0  0  0
 23 24  2  0  0  0
 24 25  1  0  0  0
  7  2  1  0  0  0
 25 17  1  0  0  0
 25 21  2  0  0  0
  9 12  1  0  0  0
  9 13  1  0  0  0
 15 16  1  0  0  0
 22 26  1  0  0  0
M  END
>  <minimizedAffinity>
-6.24860

>  <minimizedRMSD>
1.78760

$$$$
CSSS00105287122 MCULE-4067502443


 26 29  0  0  0  0  0  0  0  0999 V2000
   16.9574   -9.9964   12.6534 C   0  0  0  0  0  0  0  0  0  0  0  0
   17.4496  -10.2971   13.9690 N   0  0  0  0  0  0  0  0  0  0  0  0
   16.5133  -10.6345   15.0453 C   0  0  0  0  0  0  0  0  0  0  0  0
   17.0479  -11.8150   15.8683 C   0  0  0  0  0  0  0  0  0  0  0  0
   18.5038  -11.5944   16.2788 C   0  0  0  0  0  0  0  0  0  0  0  0
   19.3696  -11.3589   15.0469 C   0  0  0  0  0  0  0  0  0  0  0  0
   18.8685  -10.1355   14.2887 C   0  0  0  0  0  0  0  0  0  0  0  0
   15.7221  -10.0928   12.4110 O   0  0  0  0  0  0  0  0  0  0  0  0
   16.2015   -9.4230   15.8798 C   0  0  0  0  0  0  0  0  0  0  0  0
   16.3683   -9.3491   17.2149 N   0  0  0  0  0  0  0  0  0  0  0  0
   15.9486   -8.0987   17.4948 C   0  0  0  0  0  0  0  0  0  0  0  0
   15.5466   -7.4557   16.3817 N   0  0  0  0  0  0  0  0  0  0  0  0
   15.7030   -8.2867   15.3666 N   0  0  0  0  0  0  0  0  0  0  0  0
   16.7107  -10.0360   17.8315 H   0  0  0  0  0  0  0  0  0  0  0  0
   17.9091   -9.5738   11.5690 C   0  0  0  0  0  0  0  0  0  0  0  0
   17.3766   -8.4158   10.7365 C   0  0  0  0  0  0  0  0  0  0  0  0
   15.4257  -10.4378    9.4690 C   0  0  0  0  0  0  0  0  0  0  0  0
   16.4964   -9.6976    8.7437 C   0  0  0  0  0  0  0  0  0  0  0  0
   17.3241   -8.7984    9.3320 N   0  0  0  0  0  0  0  0  0  0  0  0
   18.1312   -8.3933    8.3428 C   0  0  0  0  0  0  0  0  0  0  0  0
   17.7737   -9.0367    7.1928 C   0  0  0  0  0  0  0  0  0  0  0  0
   18.4413   -8.8187    5.9903 C   0  0  0  0  0  0  0  0  0  0  0  0
   19.5097   -7.9020    5.9991 C   0  0  0  0  0  0  0  0  0  0  0  0
   19.8794   -7.2386    7.1912 C   0  0  0  0  0  0  0  0  0  0  0  0
   19.1851   -7.4817    8.3908 C   0  0  0  0  0  0  0  0  0  0  0  0
   16.7399   -9.8705    7.4178 N   0  0  0  0  0  0  0  0  0  0  0  0
 17 18  1  0  0  0
 18 19  1  0  0  0
 19 16  1  0  0  0
 16 15  1  0  0  0
 15  1  1  0  0  0
  1  2  1  0  0  0
  2  3  1  0  0  0
  3  9  1  0  0  0
  9 10  1  0  0  0
 10 11  1  0  0  0
 11 12  2  0  0  0
 12 13  1  0  0  0
  3  4  1  0  0  0
  4  5  1  0  0  0
  5  6  1  0  0  0
  6  7  1  0  0  0
  1  8  2  0  0  0
 19 20  1  0  0  0
 20 21  2  0  0  0
 21 22  1  0  0  0
 22 23  2  0  0  0
 23 24  1  0  0  0
 24 25  2  0  0  0
 21 26  1  0  0  0
 26 18  2  0  0  0
  7  2  1  0  0  0
 25 20  1  0  0  0
 13  9  2  0  0  0
 10 14  1  0  0  0
M  END
>  <minimizedAffinity>
-6.23898

>  <minimizedRMSD>
1.66760

$$$$
CSSS02467669395 PubChem-166313550 Z4414091494


 25 29  0  0  0  0  0  0  0  0999 V2000
   18.2628  -10.4330   13.0629 C   0  0  0  0  0  0  0  0  0  0  0  0
   17.8837   -9.4513   11.9564 C   0  0  0  0  0  0  0  0  0  0  0  0
   16.4390   -9.4835   11.7283 N   0  0  0  0  0  0  0  0  0  0  0  0
   15.5582   -9.1992   12.8601 C   0  0  0  0  0  0  0  0  0  0  0  0
   15.8366  -10.1791   13.9965 C   0  0  0  0  0  0  0  0  0  0  0  0
   17.3426  -10.2357   14.2599 C   0  0  0  0  0  0  0  0  0  0  0  0
   17.7039  -11.1066   15.4360 C   0  0  0  0  0  0  0  0  0  0  0  0
   17.9674   -9.6036   15.5011 C   0  0  0  0  0  0  0  0  0  0  0  0
   15.8922   -9.9791   10.4965 C   0  0  0  0  0  0  0  0  0  0  0  0
   14.7769  -10.5672   10.5054 O   0  0  0  0  0  0  0  0  0  0  0  0
   16.6074   -9.8378    9.2138 C   0  0  0  0  0  0  0  0  0  0  0  0
   17.6206   -8.9649    8.8732 C   0  0  0  0  0  0  0  0  0  0  0  0
   18.2544   -7.9765    9.6256 C   0  0  0  0  0  0  0  0  0  0  0  0
   19.2424   -7.2129    8.9847 C   0  0  0  0  0  0  0  0  0  0  0  0
   19.5565   -7.4420    7.6320 C   0  0  0  0  0  0  0  0  0  0  0  0
   18.8685   -8.4376    6.9232 C   0  0  0  0  0  0  0  0  0  0  0  0
   17.9240   -9.1544    7.5817 N   0  0  0  0  0  0  0  0  0  0  0  0
   17.1555  -10.0938    7.0602 N   0  0  0  0  0  0  0  0  0  0  0  0
   16.3249  -10.5312    8.0379 C   0  0  0  0  0  0  0  0  0  0  0  0
   16.9684   -8.9334   16.3946 C   0  0  0  0  0  0  0  0  0  0  0  0
   16.2004   -7.8922   16.0273 N   0  0  0  0  0  0  0  0  0  0  0  0
   15.5142   -7.5839   17.1154 N   0  0  0  0  0  0  0  0  0  0  0  0
   15.8555   -8.3938   18.1051 N   0  0  0  0  0  0  0  0  0  0  0  0
   16.7729   -9.2504   17.6869 N   0  0  0  0  0  0  0  0  0  0  0  0
   14.8493   -6.8606   17.1794 H   0  0  0  0  0  0  0  0  0  0  0  0
  1  2  1  0  0  0
  2  3  1  0  0  0
  3  4  1  0  0  0
  4  5  1  0  0  0
  5  6  1  0  0  0
  6  7  1  0  0  0
  7  8  1  0  0  0
  8 20  1  0  0  0
 20 21  2  0  0  0
 21 22  1  0  0  0
 22 23  1  0  0  0
 23 24  2  0  0  0
  3  9  1  0  0  0
  9 10  2  0  0  0
  9 11  1  0  0  0
 11 12  2  0  0  0
 12 13  1  0  0  0
 13 14  2  0  0  0
 14 15  1  0  0  0
 15 16  2  0  0  0
 16 17  1  0  0  0
 17 18  1  0  0  0
 18 19  2  0  0  0
  6  1  1  0  0  0
  8  6  1  0  0  0
 24 20  1  0  0  0
 19 11  1  0  0  0
 17 12  1  0  0  0
 22 25  1  0  0  0
M  END
>  <minimizedAffinity>
-6.23714

>  <minimizedRMSD>
0.73614

$$$$
CSC027354563 CSSS00027354563 MCULE-3900654934 MolPort-009-460-366 PubChem-42888246 Z238831310


 31 34  0  0  0  0  0  0  0  0999 V2000
   17.4426   -9.0270   15.4803 N   0  0  0  0  0  0  0  0  0  0  0  0
   17.7447  -10.2953   14.8110 C   0  0  0  0  0  0  0  0  0  0  0  0
   18.3449  -10.0231   13.4349 C   0  0  0  0  0  0  0  0  0  0  0  0
   17.4292   -9.1744   12.6771 N   0  0  0  0  0  0  0  0  0  0  0  0
   16.9645   -7.9512   13.3249 C   0  0  0  0  0  0  0  0  0  0  0  0
   16.4238   -8.2961   14.7102 C   0  0  0  0  0  0  0  0  0  0  0  0
   16.9434   -9.5292   11.3680 C   0  0  0  0  0  0  0  0  0  0  0  0
   17.5702   -9.1233   10.1848 C   0  0  0  0  0  0  0  0  0  0  0  0
   18.6924   -8.3622    9.8945 C   0  0  0  0  0  0  0  0  0  0  0  0
   18.8068   -8.3091    8.5400 N   0  0  0  0  0  0  0  0  0  0  0  0
   17.8109   -8.9993    7.9988 N   0  0  0  0  0  0  0  0  0  0  0  0
   17.6061   -9.1654    6.5706 C   0  0  0  0  0  0  0  0  0  0  0  0
   17.0573   -9.4957    8.9846 C   0  0  0  0  0  0  0  0  0  0  0  0
   15.9442  -10.2575    8.8662 N   0  0  0  0  0  0  0  0  0  0  0  0
   15.3221  -10.6607   10.0130 C   0  0  0  0  0  0  0  0  0  0  0  0
   15.8183  -10.2994   11.2391 N   0  0  0  0  0  0  0  0  0  0  0  0
   16.6777  -10.8054   17.0850 C   0  0  0  0  0  0  0  0  0  0  0  0
   16.9761   -9.3232   16.8455 C   0  0  0  0  0  0  0  0  0  0  0  0
   15.8146   -8.4621   17.2533 C   0  0  0  0  0  0  0  0  0  0  0  0
   15.0818   -7.9246   16.3788 O   0  0  0  0  0  0  0  0  0  0  0  0
   15.5699   -8.2478   18.6506 N   0  0  0  0  0  0  0  0  0  0  0  0
   16.1935   -8.6845   19.2748 H   0  0  0  0  0  0  0  0  0  0  0  0
   14.5178   -7.4681   19.2427 C   0  0  0  0  0  0  0  0  0  0  0  0
   13.2870   -7.3178   18.5835 C   0  0  0  0  0  0  0  0  0  0  0  0
   12.2576   -6.5641   19.1468 C   0  0  0  0  0  0  0  0  0  0  0  0
   12.4444   -5.9477   20.3818 C   0  0  0  0  0  0  0  0  0  0  0  0
   13.6602   -6.0862   21.0515 C   0  0  0  0  0  0  0  0  0  0  0  0
   14.7091   -6.8409   20.5019 C   0  0  0  0  0  0  0  0  0  0  0  0
   15.9407   -6.9465   21.2442 N   0  0  0  0  0  0  0  0  0  0  0  0
   15.9158   -7.3673   22.5545 O   0  0  0  0  0  0  0  0  0  0  0  0
   17.0423   -6.6674   20.7283 O   0  0  0  0  0  0  0  0  0  0  0  0
 18 17  1  0  0  0
 18  1  1  0  0  0
 18 19  1  0  0  0
  1  2  1  0  0  0
  2  3  1  0  0  0
  3  4  1  0  0  0
  4  5  1  0  0  0
  4  7  1  0  0  0
  5  6  1  0  0  0
  6  1  1  0  0  0
  7  8  2  0  0  0
  8  9  1  0  0  0
  9 10  2  0  0  0
 10 11  1  0  0  0
 11 12  1  0  0  0
 11 13  1  0  0  0
 13 14  2  0  0  0
 13  8  1  0  0  0
 14 15  1  0  0  0
 15 16  2  0  0  0
 16  7  1  0  0  0
 19 20  2  0  0  0
 19 21  1  0  0  0
 21 23  1  0  0  0
 23 24  2  0  0  0
 24 25  1  0  0  0
 25 26  2  0  0  0
 26 27  1  0  0  0
 27 28  2  0  0  0
 28 29  1  0  0  0
 28 23  1  0  0  0
 29 30  1  0  0  0
 29 31  2  0  0  0
 21 22  1  0  0  0
M  CHG 1  29   1
M  CHG 1  30  -1
M  END
>  <minimizedAffinity>
-6.21185

>  <minimizedRMSD>
1.79236

$$$$
2325799812 CSSS02472716818 PubChem-166304148 Z4170723907


 28 30  0  0  0  0  0  0  0  0999 V2000
   15.8913  -10.0730   12.7076 C   0  0  0  0  0  0  0  0  0  0  0  0
   19.3807  -10.8547   14.5407 C   0  0  0  0  0  0  0  0  0  0  0  0
   18.1813  -10.7486   15.4606 C   0  0  0  0  0  0  0  0  0  0  0  0
   18.2602  -11.8740   16.4731 C   0  0  0  0  0  0  0  0  0  0  0  0
   18.2572   -9.4040   16.1969 C   0  0  0  0  0  0  0  0  0  0  0  0
   16.9413   -8.9836   16.8546 C   0  0  0  0  0  0  0  0  0  0  0  0
   17.2158   -8.1864   17.9654 O   0  0  0  0  0  0  0  0  0  0  0  0
   16.0439   -8.2109   15.8816 C   0  0  0  0  0  0  0  0  0  0  0  0
   16.7210   -7.1245   15.3202 O   0  0  0  0  0  0  0  0  0  0  0  0
   15.4603   -9.1023   14.7861 C   0  0  0  0  0  0  0  0  0  0  0  0
   16.5117   -9.6943   13.9684 N   0  0  0  0  0  0  0  0  0  0  0  0
   16.9051  -10.9314   14.6322 C   0  0  0  0  0  0  0  0  0  0  0  0
   17.6880   -7.3880   17.6816 H   0  0  0  0  0  0  0  0  0  0  0  0
   17.4690   -7.4468   14.7934 H   0  0  0  0  0  0  0  0  0  0  0  0
   16.7969   -9.7981   11.5471 C   0  0  0  0  0  0  0  0  0  0  0  0
   18.0462   -9.7373   11.7105 O   0  0  0  0  0  0  0  0  0  0  0  0
   16.2130   -9.6034   10.2530 N   0  0  0  0  0  0  0  0  0  0  0  0
   15.2313   -9.6558   10.1994 H   0  0  0  0  0  0  0  0  0  0  0  0
   16.9106   -9.3400    9.0281 C   0  0  0  0  0  0  0  0  0  0  0  0
   17.9568   -8.4109    8.9505 C   0  0  0  0  0  0  0  0  0  0  0  0
   18.6049   -8.1909    7.7360 C   0  0  0  0  0  0  0  0  0  0  0  0
   18.1936   -8.9133    6.5958 C   0  0  0  0  0  0  0  0  0  0  0  0
   18.8342   -8.7033    5.3714 C   0  0  0  0  0  0  0  0  0  0  0  0
   19.8799   -7.7784    5.2808 C   0  0  0  0  0  0  0  0  0  0  0  0
   20.2867   -7.0627    6.4125 C   0  0  0  0  0  0  0  0  0  0  0  0
   19.6499   -7.2682    7.6409 C   0  0  0  0  0  0  0  0  0  0  0  0
   17.1768   -9.8102    6.6927 N   0  0  0  0  0  0  0  0  0  0  0  0
   16.5362  -10.0339    7.8725 C   0  0  0  0  0  0  0  0  0  0  0  0
  2  3  1  0  0  0
  3  4  1  0  0  0
  3  5  1  0  0  0
  5  6  1  0  0  0
  6  7  1  0  0  0
  6  8  1  0  0  0
  8  9  1  0  0  0
  8 10  1  0  0  0
 10 11  1  0  0  0
 11  1  1  0  0  0
  1 15  1  0  0  0
 15 16  2  0  0  0
 15 17  1  0  0  0
 17 19  1  0  0  0
 19 20  2  0  0  0
 20 21  1  0  0  0
 21 22  2  0  0  0
 22 23  1  0  0  0
 23 24  2  0  0  0
 24 25  1  0  0  0
 25 26  2  0  0  0
 22 27  1  0  0  0
 27 28  2  0  0  0
 11 12  1  0  0  0
 12  3  1  0  0  0
 28 19  1  0  0  0
 26 21  1  0  0  0
  7 13  1  0  0  0
  9 14  1  0  0  0
 17 18  1  0  0  0
M  END
>  <minimizedAffinity>
-6.19847

>  <minimizedRMSD>
1.42933

$$$$
7845645 CSSS00105586353 MolPort-047-810-569 PubChem-8964527 Z117730712


 27 29  0  0  0  0  0  0  0  0999 V2000
   18.4615  -10.5624   14.2823 N   0  0  0  0  0  0  0  0  0  0  0  0
   18.8735  -11.3488   15.4351 C   0  0  0  0  0  0  0  0  0  0  0  0
   17.9659  -11.2279   13.1039 C   0  0  0  0  0  0  0  0  0  0  0  0
   17.7024  -12.4611   13.1587 O   0  0  0  0  0  0  0  0  0  0  0  0
   17.7623  -10.5120   11.8241 C   0  0  0  0  0  0  0  0  0  0  0  0
   16.5608  -10.6715   11.1194 C   0  0  0  0  0  0  0  0  0  0  0  0
   16.3771   -9.9932    9.9161 C   0  0  0  0  0  0  0  0  0  0  0  0
   15.2976  -10.1326    9.2809 O   0  0  0  0  0  0  0  0  0  0  0  0
   17.3985   -9.1663    9.4341 C   0  0  0  0  0  0  0  0  0  0  0  0
   17.2723   -8.4556    8.2323 C   0  0  0  0  0  0  0  0  0  0  0  0
   18.3180   -7.6413    7.7879 C   0  0  0  0  0  0  0  0  0  0  0  0
   19.4921   -7.5331    8.5399 C   0  0  0  0  0  0  0  0  0  0  0  0
   19.6259   -8.2387    9.7394 C   0  0  0  0  0  0  0  0  0  0  0  0
   18.5854   -9.0553   10.1917 C   0  0  0  0  0  0  0  0  0  0  0  0
   18.7174   -9.7230   11.3335 O   0  0  0  0  0  0  0  0  0  0  0  0
   18.4319   -9.1117   14.4325 C   0  0  0  0  0  0  0  0  0  0  0  0
   15.3160   -7.9795   17.1700 C   0  0  0  0  0  0  0  0  0  0  0  0
   15.2404   -7.6134   15.8179 C   0  0  0  0  0  0  0  0  0  0  0  0
   16.2565   -7.9765   14.9299 C   0  0  0  0  0  0  0  0  0  0  0  0
   17.3587   -8.7059   15.3864 C   0  0  0  0  0  0  0  0  0  0  0  0
   17.4380   -9.0791   16.7317 C   0  0  0  0  0  0  0  0  0  0  0  0
   16.4217   -8.7157   17.6198 C   0  0  0  0  0  0  0  0  0  0  0  0
   13.3264   -7.5690   20.4559 C   0  0  0  0  0  0  0  0  0  0  0  0
   14.3563   -7.9250   19.4946 N   0  0  0  0  0  0  0  0  0  0  0  0
   14.2450   -7.5970   18.1071 C   0  0  0  0  0  0  0  0  0  0  0  0
   13.2285   -6.9795   17.6855 O   0  0  0  0  0  0  0  0  0  0  0  0
   15.1554   -8.4069   19.8082 H   0  0  0  0  0  0  0  0  0  0  0  0
 23 24  1  0  0  0
 24 25  1  0  0  0
 25 26  2  0  0  0
 25 17  1  0  0  0
 17 18  2  0  0  0
 18 19  1  0  0  0
 19 20  2  0  0  0
 20 21  1  0  0  0
 20 16  1  0  0  0
 21 22  2  0  0  0
 22 17  1  0  0  0
 16  1  1  0  0  0
  1  2  1  0  0  0
  1  3  1  0  0  0
  3  4  2  0  0  0
  3  5  1  0  0  0
  5  6  2  0  0  0
  6  7  1  0  0  0
  7  8  2  0  0  0
  7  9  1  0  0  0
  9 10  2  0  0  0
 10 11  1  0  0  0
 11 12  2  0  0  0
 12 13  1  0  0  0
 13 14  2  0  0  0
 14 15  1  0  0  0
 14  9  1  0  0  0
 15  5  1  0  0  0
 24 27  1  0  0  0
M  END
>  <minimizedAffinity>
-6.18059

>  <minimizedRMSD>
2.08146

$$$$
49448633 CSSS03437157202 MCULE-2740902186 MolPort-019-919-711 PubChem-49736304 ZINC000049448633 ZINC49448633


 35 38  0  0  0  0  0  0  0  0999 V2000
   17.0041   -9.8367   16.3002 S   0  0  0  0  0  0  0  0  0  0  0  0
   16.3837   -9.3404   14.6981 C   0  0  0  0  0  0  0  0  0  0  0  0
   16.3776   -8.0706   14.2522 N   0  0  0  0  0  0  0  0  0  0  0  0
   15.8491   -8.1090   13.0391 N   0  0  0  0  0  0  0  0  0  0  0  0
   15.5539   -9.4001   12.7989 C   0  0  0  0  0  0  0  0  0  0  0  0
   15.8829  -10.1648   13.8112 O   0  0  0  0  0  0  0  0  0  0  0  0
   14.9594   -9.8974   11.5247 C   0  0  0  0  0  0  0  0  0  0  0  0
   15.9537  -10.7672   10.7682 C   0  0  0  0  0  0  0  0  0  0  0  0
   16.7738   -9.9511    9.8251 C   0  0  0  0  0  0  0  0  0  0  0  0
   16.6581  -10.0483    8.4742 N   0  0  0  0  0  0  0  0  0  0  0  0
   17.5564   -9.1512    8.0447 C   0  0  0  0  0  0  0  0  0  0  0  0
   17.8664   -8.8225    6.7275 C   0  0  0  0  0  0  0  0  0  0  0  0
   18.8526   -7.8397    6.5216 C   0  0  0  0  0  0  0  0  0  0  0  0
   19.4913   -7.2224    7.6204 C   0  0  0  0  0  0  0  0  0  0  0  0
   19.1515   -7.5805    8.9384 C   0  0  0  0  0  0  0  0  0  0  0  0
   18.1718   -8.5562    9.1037 C   0  0  0  0  0  0  0  0  0  0  0  0
   17.6931   -9.0479   10.2548 N   0  0  0  0  0  0  0  0  0  0  0  0
   17.9440   -8.8140   11.1776 H   0  0  0  0  0  0  0  0  0  0  0  0
   15.4034   -9.5581   17.1186 C   0  0  0  0  0  0  0  0  0  0  0  0
   16.1023   -8.0304   18.9997 N   0  0  0  0  0  0  0  0  0  0  0  0
   15.3852   -8.2248   17.7811 C   0  0  0  0  0  0  0  0  0  0  0  0
   14.7502   -7.2743   17.2514 O   0  0  0  0  0  0  0  0  0  0  0  0
   16.5928   -8.7887   19.3917 H   0  0  0  0  0  0  0  0  0  0  0  0
   16.1300   -6.7454   19.6793 C   0  0  0  0  0  0  0  0  0  0  0  0
   14.6730   -7.5964   21.5517 C   0  0  0  0  0  0  0  0  0  0  0  0
   15.8414   -6.9371   21.1297 C   0  0  0  0  0  0  0  0  0  0  0  0
   16.7693   -6.4820   22.0729 C   0  0  0  0  0  0  0  0  0  0  0  0
   16.5354   -6.6680   23.4374 C   0  0  0  0  0  0  0  0  0  0  0  0
   15.3741   -7.3152   23.8645 C   0  0  0  0  0  0  0  0  0  0  0  0
   14.4477   -7.7782   22.9269 C   0  0  0  0  0  0  0  0  0  0  0  0
   13.7573   -8.0588   20.5943 O   0  0  0  0  0  0  0  0  0  0  0  0
   12.1099   -6.5927   21.2563 F   0  0  0  0  0  0  0  0  0  0  0  0
   12.3547   -7.8056   20.6376 C   0  0  0  0  0  0  0  0  0  0  0  0
   11.8652   -7.7578   19.3467 F   0  0  0  0  0  0  0  0  0  0  0  0
   11.7105   -8.8184   21.3254 F   0  0  0  0  0  0  0  0  0  0  0  0
 32 33  1  0  0  0
 33 34  1  0  0  0
 33 35  1  0  0  0
 33 31  1  0  0  0
 31 25  1  0  0  0
 25 26  2  0  0  0
 26 24  1  0  0  0
 26 27  1  0  0  0
 24 20  1  0  0  0
 20 21  1  0  0  0
 21 22  2  0  0  0
 21 19  1  0  0  0
 19  1  1  0  0  0
  1  2  1  0  0  0
  2  3  2  0  0  0
  3  4  1  0  0  0
  4  5  2  0  0  0
  5  7  1  0  0  0
  5  6  1  0  0  0
  7  8  1  0  0  0
  8  9  1  0  0  0
  9 10  2  0  0  0
 10 11  1  0  0  0
 11 12  2  0  0  0
 12 13  1  0  0  0
 13 14  2  0  0  0
 14 15  1  0  0  0
 15 16  2  0  0  0
 16 17  1  0  0  0
 16 11  1  0  0  0
 17  9  1  0  0  0
  6  2  1  0  0  0
 27 28  2  0  0  0
 28 29  1  0  0  0
 29 30  2  0  0  0
 30 25  1  0  0  0
 20 23  1  0  0  0
 17 18  1  0  0  0
M  END
>  <minimizedAffinity>
-6.17684

>  <minimizedRMSD>
2.24956

$$$$
CSC025910461 44913688 CSSS00025910461 MCULE-2309465175 MolPort-009-187-627 PubChem-45813418 Z367550666 ZINC000044913688


 24 26  0  0  0  0  0  0  0  0999 V2000
   17.0917   -9.0293   16.0121 C   0  0  0  0  0  0  0  0  0  0  0  0
   16.9965   -9.6009   14.7383 C   0  0  0  0  0  0  0  0  0  0  0  0
   18.1474  -10.0503   14.0826 C   0  0  0  0  0  0  0  0  0  0  0  0
   19.3978   -9.9133   14.6947 C   0  0  0  0  0  0  0  0  0  0  0  0
   19.4954   -9.3392   15.9656 C   0  0  0  0  0  0  0  0  0  0  0  0
   18.3436   -8.8975   16.6235 C   0  0  0  0  0  0  0  0  0  0  0  0
   16.0356   -8.0125   18.4532 N   0  0  0  0  0  0  0  0  0  0  0  0
   15.6484   -8.4601   16.8299 S   0  0  0  0  0  0  0  0  0  0  0  0
   14.6195   -9.5549   16.8613 O   0  0  0  0  0  0  0  0  0  0  0  0
   15.0934   -7.2696   16.1008 O   0  0  0  0  0  0  0  0  0  0  0  0
   16.4124   -8.8209   18.9481 H   0  0  0  0  0  0  0  0  0  0  0  0
   15.1928   -7.6868   18.9264 H   0  0  0  0  0  0  0  0  0  0  0  0
   18.0461  -10.6361   12.7191 C   0  0  0  0  0  0  0  0  0  0  0  0
   18.3064   -9.6089   11.7235 N   0  0  0  0  0  0  0  0  0  0  0  0
   18.9932   -8.9285   11.9093 H   0  0  0  0  0  0  0  0  0  0  0  0
   17.5973   -9.5554   10.4842 C   0  0  0  0  0  0  0  0  0  0  0  0
   18.0943   -8.8160    9.4122 C   0  0  0  0  0  0  0  0  0  0  0  0
   17.3770   -8.7942    8.2402 C   0  0  0  0  0  0  0  0  0  0  0  0
   18.1648   -7.8499    7.1101 S   0  0  0  0  0  0  0  0  0  0  0  0
   19.4646   -7.4447    8.1238 C   0  0  0  0  0  0  0  0  0  0  0  0
   19.2722   -8.0622    9.3659 C   0  0  0  0  0  0  0  0  0  0  0  0
   16.2090   -9.4622    8.0883 N   0  0  0  0  0  0  0  0  0  0  0  0
   15.7294  -10.1833    9.1414 C   0  0  0  0  0  0  0  0  0  0  0  0
   16.4181  -10.2263   10.3220 N   0  0  0  0  0  0  0  0  0  0  0  0
  7  8  1  0  0  0
  8  1  1  0  0  0
  1  2  2  0  0  0
  2  3  1  0  0  0
  3 13  1  0  0  0
 13 14  1  0  0  0
 14 16  1  0  0  0
 16 17  1  0  0  0
 17 18  2  0  0  0
 18 19  1  0  0  0
 19 20  1  0  0  0
 20 21  2  0  0  0
 18 22  1  0  0  0
 22 23  2  0  0  0
 23 24  1  0  0  0
  3  4  2  0  0  0
  4  5  1  0  0  0
  5  6  2  0  0  0
  8  9  2  0  0  0
  8 10  2  0  0  0
  6  1  1  0  0  0
 24 16  2  0  0  0
 21 17  1  0  0  0
  7 11  1  0  0  0
  7 12  1  0  0  0
 14 15  1  0  0  0
M  END
>  <minimizedAffinity>
-6.17238

>  <minimizedRMSD>
1.33668

$$$$
CSSS01886646623 Z2043745877


 27 29  0  0  0  0  0  0  0  0999 V2000
   16.3968   -9.3959   14.9636 C   0  0  0  0  0  0  0  0  0  0  0  0
   17.1705  -10.4049   14.3241 C   0  0  0  0  0  0  0  0  0  0  0  0
   17.9191  -11.3003   15.0995 C   0  0  0  0  0  0  0  0  0  0  0  0
   17.9154  -11.2182   16.4866 C   0  0  0  0  0  0  0  0  0  0  0  0
   18.8584  -12.3473   17.4342 Cl  0  0  0  0  0  0  0  0  0  0  0  0
   17.1596  -10.2384   17.1201 C   0  0  0  0  0  0  0  0  0  0  0  0
   16.3971   -9.3237   16.3819 C   0  0  0  0  0  0  0  0  0  0  0  0
   15.6176   -8.3074   17.1330 C   0  0  0  0  0  0  0  0  0  0  0  0
   14.6315   -7.7242   16.6104 O   0  0  0  0  0  0  0  0  0  0  0  0
   15.9786   -7.9747   18.4713 N   0  0  0  0  0  0  0  0  0  0  0  0
   16.7462   -8.4188   18.8990 H   0  0  0  0  0  0  0  0  0  0  0  0
   15.4604   -7.3009   18.9680 H   0  0  0  0  0  0  0  0  0  0  0  0
   16.1120   -7.2781   13.6305 C   0  0  0  0  0  0  0  0  0  0  0  0
   15.6243   -8.4595   14.2505 O   0  0  0  0  0  0  0  0  0  0  0  0
   17.1951  -10.5283   12.8983 N   0  0  0  0  0  0  0  0  0  0  0  0
   16.5465  -11.1340   12.4720 H   0  0  0  0  0  0  0  0  0  0  0  0
   18.1273   -9.8068   12.0446 C   0  0  0  0  0  0  0  0  0  0  0  0
   17.5353   -9.6399   10.6872 C   0  0  0  0  0  0  0  0  0  0  0  0
   16.3045  -10.2373   10.3659 C   0  0  0  0  0  0  0  0  0  0  0  0
   15.7462  -10.0431    9.0839 C   0  0  0  0  0  0  0  0  0  0  0  0
   16.3900   -9.2736    8.1554 N   0  0  0  0  0  0  0  0  0  0  0  0
   17.5739   -8.6970    8.4822 C   0  0  0  0  0  0  0  0  0  0  0  0
   18.3097   -7.9149    7.6821 N   0  0  0  0  0  0  0  0  0  0  0  0
   19.3838   -7.5768    8.4394 C   0  0  0  0  0  0  0  0  0  0  0  0
   19.3242   -8.1454    9.7154 C   0  0  0  0  0  0  0  0  0  0  0  0
   18.1472   -8.8592    9.7062 C   0  0  0  0  0  0  0  0  0  0  0  0
   18.1154   -7.6462    6.7552 H   0  0  0  0  0  0  0  0  0  0  0  0
 13 14  1  0  0  0
 14  1  1  0  0  0
  1  2  2  0  0  0
  2 15  1  0  0  0
 15 17  1  0  0  0
 17 18  1  0  0  0
 18 19  2  0  0  0
 19 20  1  0  0  0
 20 21  2  0  0  0
 21 22  1  0  0  0
 22 23  1  0  0  0
 23 24  1  0  0  0
 24 25  2  0  0  0
 25 26  1  0  0  0
  2  3  1  0  0  0
  3  4  2  0  0  0
  4  5  1  0  0  0
  4  6  1  0  0  0
  6  7  2  0  0  0
  7  8  1  0  0  0
  8  9  2  0  0  0
  8 10  1  0  0  0
  7  1  1  0  0  0
 26 18  1  0  0  0
 26 22  2  0  0  0
 15 16  1  0  0  0
 23 27  1  0  0  0
 10 11  1  0  0  0
 10 12  1  0  0  0
M  END
>  <minimizedAffinity>
-6.15535

>  <minimizedRMSD>
0.81571

$$$$
12556498 CSSS00103655033 MolPort-004-616-076 PubChem-16627003 Z237580396


 25 29  0  0  0  0  0  0  0  0999 V2000
   15.9348   -9.2920   11.8960 C   0  0  0  0  0  0  0  0  0  0  0  0
   15.7583   -9.7686   13.3338 C   0  0  0  0  0  0  0  0  0  0  0  0
   17.0589  -10.1387   13.8873 N   0  0  0  0  0  0  0  0  0  0  0  0
   17.8325  -11.1412   13.1594 C   0  0  0  0  0  0  0  0  0  0  0  0
   18.0291  -10.6842   11.7170 C   0  0  0  0  0  0  0  0  0  0  0  0
   16.6784  -10.3512   11.0803 C   0  0  0  0  0  0  0  0  0  0  0  0
   17.6002   -9.5295   15.0752 C   0  0  0  0  0  0  0  0  0  0  0  0
   18.9560   -9.4517   15.2495 N   0  0  0  0  0  0  0  0  0  0  0  0
   19.5116   -8.8778   16.3635 C   0  0  0  0  0  0  0  0  0  0  0  0
   18.7172   -8.3590   17.3457 N   0  0  0  0  0  0  0  0  0  0  0  0
   17.3755   -8.4302   17.1835 C   0  0  0  0  0  0  0  0  0  0  0  0
   16.8013   -8.9932   16.0909 C   0  0  0  0  0  0  0  0  0  0  0  0
   15.4414   -8.8755   16.2872 C   0  0  0  0  0  0  0  0  0  0  0  0
   15.2668   -8.2518   17.4809 N   0  0  0  0  0  0  0  0  0  0  0  0
   16.4454   -7.9774   18.0328 N   0  0  0  0  0  0  0  0  0  0  0  0
   16.6026   -7.5297   18.8954 H   0  0  0  0  0  0  0  0  0  0  0  0
   16.8641   -9.8903    9.6694 C   0  0  0  0  0  0  0  0  0  0  0  0
   16.0886  -10.2987    8.6398 N   0  0  0  0  0  0  0  0  0  0  0  0
   16.5326   -9.6944    7.5401 N   0  0  0  0  0  0  0  0  0  0  0  0
   17.5704   -8.9303    7.9254 C   0  0  0  0  0  0  0  0  0  0  0  0
   17.8025   -9.0288    9.2401 N   0  0  0  0  0  0  0  0  0  0  0  0
   18.7915   -8.3615    9.8860 C   0  0  0  0  0  0  0  0  0  0  0  0
   19.6155   -7.5203    9.1231 C   0  0  0  0  0  0  0  0  0  0  0  0
   19.3908   -7.3999    7.7364 C   0  0  0  0  0  0  0  0  0  0  0  0
   18.3518   -8.1131    7.1137 C   0  0  0  0  0  0  0  0  0  0  0  0
  1  2  1  0  0  0
  2  3  1  0  0  0
  3  4  1  0  0  0
  4  5  1  0  0  0
  5  6  1  0  0  0
  6 17  1  0  0  0
 17 18  2  0  0  0
 18 19  1  0  0  0
 19 20  2  0  0  0
 20 21  1  0  0  0
 21 22  1  0  0  0
 22 23  2  0  0  0
 23 24  1  0  0  0
 24 25  2  0  0  0
  3  7  1  0  0  0
  7  8  2  0  0  0
  8  9  1  0  0  0
  9 10  2  0  0  0
 10 11  1  0  0  0
 11 12  2  0  0  0
 12 13  1  0  0  0
 13 14  2  0  0  0
 14 15  1  0  0  0
  6  1  1  0  0  0
 21 17  1  0  0  0
 25 20  1  0  0  0
 12  7  1  0  0  0
 15 11  1  0  0  0
 15 16  1  0  0  0
M  END
>  <minimizedAffinity>
-6.15416

>  <minimizedRMSD>
1.16263

$$$$
CSSS00132657498 MCULE-2557401886 MolPort-019-910-873 PubChem-135627744


 36 39  0  0  0  0  0  0  0  0999 V2000
   16.8997  -10.0382   14.8686 C   0  0  0  0  0  0  0  0  0  0  0  0
   15.6809   -9.5500   14.5600 N   0  0  0  0  0  0  0  0  0  0  0  0
   15.5174   -9.7152   13.2537 N   0  0  0  0  0  0  0  0  0  0  0  0
   16.6387  -10.2984   12.7906 C   0  0  0  0  0  0  0  0  0  0  0  0
   17.5229  -10.5168   13.7777 N   0  0  0  0  0  0  0  0  0  0  0  0
   18.8513  -11.1020   13.6832 C   0  0  0  0  0  0  0  0  0  0  0  0
   17.5064   -9.9892   16.2360 C   0  0  0  0  0  0  0  0  0  0  0  0
   15.9163   -8.1868   17.0427 C   0  0  0  0  0  0  0  0  0  0  0  0
   16.2280   -7.4460   16.0697 O   0  0  0  0  0  0  0  0  0  0  0  0
   16.5421   -9.4656   17.1965 N   0  0  0  0  0  0  0  0  0  0  0  0
   16.3122  -10.0130   17.9818 H   0  0  0  0  0  0  0  0  0  0  0  0
   12.9575   -6.8919   19.8612 C   0  0  0  0  0  0  0  0  0  0  0  0
   14.2257   -7.2843   20.3011 C   0  0  0  0  0  0  0  0  0  0  0  0
   15.1928   -7.7055   19.3837 C   0  0  0  0  0  0  0  0  0  0  0  0
   14.9025   -7.7372   18.0126 C   0  0  0  0  0  0  0  0  0  0  0  0
   13.6315   -7.3423   17.5724 C   0  0  0  0  0  0  0  0  0  0  0  0
   12.6649   -6.9223   18.4885 C   0  0  0  0  0  0  0  0  0  0  0  0
   11.3519   -5.2221   20.7261 C   0  0  0  0  0  0  0  0  0  0  0  0
   12.0117   -6.4785   20.8029 O   0  0  0  0  0  0  0  0  0  0  0  0
   17.9562  -11.3775   16.6539 C   0  0  0  0  0  0  0  0  0  0  0  0
   18.0936  -11.4347   18.0413 O   0  0  0  0  0  0  0  0  0  0  0  0
   18.7563  -10.7868   18.3276 H   0  0  0  0  0  0  0  0  0  0  0  0
   16.9120  -10.7012   11.0679 S   0  0  0  0  0  0  0  0  0  0  0  0
   17.7236   -9.1062   10.7564 C   0  0  0  0  0  0  0  0  0  0  0  0
   17.9731   -8.9355    9.3004 C   0  0  0  0  0  0  0  0  0  0  0  0
   19.0067   -8.1590    8.8818 N   0  0  0  0  0  0  0  0  0  0  0  0
   19.2549   -7.9832    7.5590 C   0  0  0  0  0  0  0  0  0  0  0  0
   20.3272   -7.1875    7.1467 C   0  0  0  0  0  0  0  0  0  0  0  0
   20.5835   -7.0127    5.7832 C   0  0  0  0  0  0  0  0  0  0  0  0
   19.7675   -7.6301    4.8295 C   0  0  0  0  0  0  0  0  0  0  0  0
   18.6909   -8.4248    5.2351 C   0  0  0  0  0  0  0  0  0  0  0  0
   18.4295   -8.6061    6.6005 C   0  0  0  0  0  0  0  0  0  0  0  0
   17.3641   -9.3941    7.0568 C   0  0  0  0  0  0  0  0  0  0  0  0
   16.5875   -9.9632    6.2450 O   0  0  0  0  0  0  0  0  0  0  0  0
   17.1620   -9.5420    8.3920 N   0  0  0  0  0  0  0  0  0  0  0  0
   16.4142  -10.0987    8.7083 H   0  0  0  0  0  0  0  0  0  0  0  0
 18 19  1  0  0  0
 19 12  1  0  0  0
 12 13  2  0  0  0
 13 14  1  0  0  0
 14 15  2  0  0  0
 15 16  1  0  0  0
 15  8  1  0  0  0
 16 17  2  0  0  0
 17 12  1  0  0  0
  8  9  2  0  0  0
  8 10  1  0  0  0
  7 10  1  0  0  0
  7 20  1  0  0  0
  7  1  1  0  0  0
 20 21  1  0  0  0
  1  2  2  0  0  0
  2  3  1  0  0  0
  3  4  2  0  0  0
  4 23  1  0  0  0
  4  5  1  0  0  0
 23 24  1  0  0  0
 24 25  1  0  0  0
 25 26  2  0  0  0
 26 27  1  0  0  0
 27 28  2  0  0  0
 28 29  1  0  0  0
 29 30  2  0  0  0
 30 31  1  0  0  0
 31 32  2  0  0  0
 32 33  1  0  0  0
 32 27  1  0  0  0
 33 34  2  0  0  0
 33 35  1  0  0  0
 35 25  1  0  0  0
  5  6  1  0  0  0
  5  1  1  0  0  0
 10 11  1  0  0  0
 21 22  1  0  0  0
 35 36  1  0  0  0
M  END
>  <minimizedAffinity>
-6.15004

>  <minimizedRMSD>
2.19240

$$$$
CSC027198383 21839471 CSSS00027198383 MCULE-7329244837 MolPort-004-500-574 PubChem-24531163 Z168001768 ZINC000021839471 ZINC21839471


 27 29  0  0  0  0  0  0  0  0999 V2000
   18.7043  -10.4838   12.7570 O   0  0  0  0  0  0  0  0  0  0  0  0
   18.5265  -11.4337   13.7646 C   0  0  0  0  0  0  0  0  0  0  0  0
   18.8880  -12.6295   13.5858 O   0  0  0  0  0  0  0  0  0  0  0  0
   16.6257   -9.7261   16.4439 C   0  0  0  0  0  0  0  0  0  0  0  0
   17.0858   -9.9066   15.1516 C   0  0  0  0  0  0  0  0  0  0  0  0
   17.9145  -11.0339   15.0389 C   0  0  0  0  0  0  0  0  0  0  0  0
   18.1099  -11.7415   16.2264 C   0  0  0  0  0  0  0  0  0  0  0  0
   17.2346  -10.9421   17.4215 S   0  0  0  0  0  0  0  0  0  0  0  0
   16.0480   -7.9164   18.5567 N   0  0  0  0  0  0  0  0  0  0  0  0
   15.5677   -8.4380   16.9818 S   0  0  0  0  0  0  0  0  0  0  0  0
   15.6609   -7.2783   16.0308 O   0  0  0  0  0  0  0  0  0  0  0  0
   14.1503   -8.9345   17.0214 O   0  0  0  0  0  0  0  0  0  0  0  0
   15.4314   -7.1664   18.8692 H   0  0  0  0  0  0  0  0  0  0  0  0
   17.0087   -7.5752   18.5236 H   0  0  0  0  0  0  0  0  0  0  0  0
   17.6492   -9.6348   12.3301 C   0  0  0  0  0  0  0  0  0  0  0  0
   17.6962   -9.4884   10.8514 C   0  0  0  0  0  0  0  0  0  0  0  0
   16.7747  -10.1625   10.0557 C   0  0  0  0  0  0  0  0  0  0  0  0
   16.8228   -9.9846    8.6739 C   0  0  0  0  0  0  0  0  0  0  0  0
   15.9911  -10.5983    7.9503 O   0  0  0  0  0  0  0  0  0  0  0  0
   17.7599   -9.1540    8.1201 N   0  0  0  0  0  0  0  0  0  0  0  0
   17.8059   -8.9801    6.7654 C   0  0  0  0  0  0  0  0  0  0  0  0
   18.7530   -8.1345    6.1862 C   0  0  0  0  0  0  0  0  0  0  0  0
   18.8002   -7.9215    4.4499 Cl  0  0  0  0  0  0  0  0  0  0  0  0
   19.6601   -7.4610    7.0016 C   0  0  0  0  0  0  0  0  0  0  0  0
   19.6125   -7.6386    8.3830 C   0  0  0  0  0  0  0  0  0  0  0  0
   18.6537   -8.4925    8.9336 C   0  0  0  0  0  0  0  0  0  0  0  0
   18.6094   -8.6637   10.2802 N   0  0  0  0  0  0  0  0  0  0  0  0
  9 10  1  0  0  0
 10 11  2  0  0  0
 10 12  2  0  0  0
 10  4  1  0  0  0
  4  5  2  0  0  0
  5  6  1  0  0  0
  6  7  2  0  0  0
  6  2  1  0  0  0
  7  8  1  0  0  0
  8  4  1  0  0  0
  2  3  2  0  0  0
  2  1  1  0  0  0
  1 15  1  0  0  0
 15 16  1  0  0  0
 16 17  2  0  0  0
 17 18  1  0  0  0
 18 19  2  0  0  0
 18 20  1  0  0  0
 20 21  1  0  0  0
 21 22  2  0  0  0
 22 23  1  0  0  0
 22 24  1  0  0  0
 24 25  2  0  0  0
 25 26  1  0  0  0
 26 27  2  0  0  0
 26 20  1  0  0  0
 27 16  1  0  0  0
  9 13  1  0  0  0
  9 14  1  0  0  0
M  END
>  <minimizedAffinity>
-6.13751

>  <minimizedRMSD>
1.16494

$$$$
245053640 CSSS03436954956 MCULE-3951047360 MolPort-039-074-989 ZINC000245053640


 26 28  0  0  0  0  0  0  0  0999 V2000
   15.7208  -10.3025    9.8720 C   0  0  0  0  0  0  0  0  0  0  0  0
   19.2391   -8.1615    7.3559 C   0  0  0  0  0  0  0  0  0  0  0  0
   19.8563   -7.5572    8.4175 N   0  0  0  0  0  0  0  0  0  0  0  0
   19.3821   -7.6854    9.6963 C   0  0  0  0  0  0  0  0  0  0  0  0
   18.2322   -8.4535    9.9397 C   0  0  0  0  0  0  0  0  0  0  0  0
   17.6440   -9.0356    8.8666 N   0  0  0  0  0  0  0  0  0  0  0  0
   16.5632   -9.8195    8.7419 C   0  0  0  0  0  0  0  0  0  0  0  0
   16.3803  -10.1769    7.4506 N   0  0  0  0  0  0  0  0  0  0  0  0
   17.3477   -9.6037    6.7376 N   0  0  0  0  0  0  0  0  0  0  0  0
   18.1012   -8.9175    7.6173 C   0  0  0  0  0  0  0  0  0  0  0  0
   19.7280   -8.0315    6.0550 O   0  0  0  0  0  0  0  0  0  0  0  0
   21.4971   -6.9796    4.8267 C   0  0  0  0  0  0  0  0  0  0  0  0
   20.1771   -6.7858    5.5433 C   0  0  0  0  0  0  0  0  0  0  0  0
   16.3763   -9.9949   11.1322 N   0  0  0  0  0  0  0  0  0  0  0  0
   15.6596   -9.9419   12.3681 C   0  0  0  0  0  0  0  0  0  0  0  0
   14.4192  -10.1715   12.3876 O   0  0  0  0  0  0  0  0  0  0  0  0
   17.3447   -9.8175   11.1349 H   0  0  0  0  0  0  0  0  0  0  0  0
   16.3695   -9.6185   13.6173 C   0  0  0  0  0  0  0  0  0  0  0  0
   16.4416   -8.2981   14.0787 C   0  0  0  0  0  0  0  0  0  0  0  0
   17.0998   -8.0088   15.2332 N   0  0  0  0  0  0  0  0  0  0  0  0
   17.7047   -8.9764   15.9732 C   0  0  0  0  0  0  0  0  0  0  0  0
   18.3653   -8.6317   17.1459 O   0  0  0  0  0  0  0  0  0  0  0  0
   17.6580  -10.3104   15.5497 C   0  0  0  0  0  0  0  0  0  0  0  0
   18.4256  -11.5870   16.4759 Cl  0  0  0  0  0  0  0  0  0  0  0  0
   16.9870  -10.6255   14.3675 C   0  0  0  0  0  0  0  0  0  0  0  0
   18.3922   -7.7369   17.4228 H   0  0  0  0  0  0  0  0  0  0  0  0
 12 13  1  0  0  0
 13 11  1  0  0  0
 11  2  1  0  0  0
  2  3  2  0  0  0
  3  4  1  0  0  0
  4  5  2  0  0  0
  5  6  1  0  0  0
  6  7  1  0  0  0
  7  1  1  0  0  0
  1 14  1  0  0  0
 14 15  1  0  0  0
 15 16  2  0  0  0
 15 18  1  0  0  0
 18 19  2  0  0  0
 19 20  1  0  0  0
 20 21  2  0  0  0
 21 22  1  0  0  0
 21 23  1  0  0  0
 23 24  1  0  0  0
 23 25  2  0  0  0
  7  8  2  0  0  0
  8  9  1  0  0  0
  9 10  2  0  0  0
 10  2  1  0  0  0
 10  6  1  0  0  0
 25 18  1  0  0  0
 14 17  1  0  0  0
 22 26  1  0  0  0
M  END
>  <minimizedAffinity>
-6.12089

>  <minimizedRMSD>
2.47089

$$$$
CSSS00231715093 Z6366861374


 25 27  0  0  0  0  0  0  0  0999 V2000
   17.2849   -9.1819   11.9300 N   0  0  0  0  0  0  0  0  0  0  0  0
   17.6618  -10.2270   12.8331 C   0  0  0  0  0  0  0  0  0  0  0  0
   18.1348  -11.3032   12.3816 O   0  0  0  0  0  0  0  0  0  0  0  0
   17.1990   -8.2740   12.3009 H   0  0  0  0  0  0  0  0  0  0  0  0
   15.9126   -9.9283    9.9243 C   0  0  0  0  0  0  0  0  0  0  0  0
   16.0041   -9.7895    8.5765 N   0  0  0  0  0  0  0  0  0  0  0  0
   17.1637   -9.1197    8.4064 C   0  0  0  0  0  0  0  0  0  0  0  0
   17.7005   -8.7204    7.1849 C   0  0  0  0  0  0  0  0  0  0  0  0
   18.9113   -8.0092    7.2131 C   0  0  0  0  0  0  0  0  0  0  0  0
   19.5427   -7.7164    8.4374 C   0  0  0  0  0  0  0  0  0  0  0  0
   18.9542   -8.1425    9.6368 C   0  0  0  0  0  0  0  0  0  0  0  0
   17.7867   -8.8292    9.5616 N   0  0  0  0  0  0  0  0  0  0  0  0
   17.0221   -9.3475   10.5300 C   0  0  0  0  0  0  0  0  0  0  0  0
   13.4463  -10.1087    9.9174 C   0  0  0  0  0  0  0  0  0  0  0  0
   14.7273  -10.5237   10.6146 C   0  0  0  0  0  0  0  0  0  0  0  0
   14.6856  -10.0881   12.0662 C   0  0  0  0  0  0  0  0  0  0  0  0
   17.5720   -9.9847   14.2903 C   0  0  0  0  0  0  0  0  0  0  0  0
   17.2247   -8.7343   14.7015 N   0  0  0  0  0  0  0  0  0  0  0  0
   17.1242   -8.4157   16.0158 C   0  0  0  0  0  0  0  0  0  0  0  0
   17.3685   -9.3546   16.9620 N   0  0  0  0  0  0  0  0  0  0  0  0
   17.7102  -10.6214   16.6167 C   0  0  0  0  0  0  0  0  0  0  0  0
   17.9446  -11.5584   17.6159 O   0  0  0  0  0  0  0  0  0  0  0  0
   17.8201  -10.9798   15.2659 C   0  0  0  0  0  0  0  0  0  0  0  0
   18.2435  -12.8085   14.8403 Br  0  0  0  0  0  0  0  0  0  0  0  0
   17.8693  -11.3116   18.5167 H   0  0  0  0  0  0  0  0  0  0  0  0
 14 15  1  0  0  0
 15 16  1  0  0  0
 15  5  1  0  0  0
  5  6  1  0  0  0
  6  7  2  0  0  0
  7  8  1  0  0  0
  8  9  2  0  0  0
  9 10  1  0  0  0
 10 11  2  0  0  0
 11 12  1  0  0  0
 12 13  1  0  0  0
 13  1  1  0  0  0
  1  2  1  0  0  0
  2  3  2  0  0  0
  2 17  1  0  0  0
 17 18  2  0  0  0
 18 19  1  0  0  0
 19 20  2  0  0  0
 20 21  1  0  0  0
 21 22  1  0  0  0
 21 23  2  0  0  0
 23 24  1  0  0  0
 13  5  2  0  0  0
 23 17  1  0  0  0
 12  7  1  0  0  0
  1  4  1  0  0  0
 22 25  1  0  0  0
M  END
>  <minimizedAffinity>
-6.10197

>  <minimizedRMSD>
2.10701

$$$$
23141436 CSSS03437073686 MCULE-1838093132 MolPort-009-735-544 PubChem-30864861 ZINC000023141436


 27 30  0  0  0  0  0  0  0  0999 V2000
   17.2325   -9.9601   12.6249 C   0  0  0  0  0  0  0  0  0  0  0  0
   17.9951  -11.0160   12.9746 N   0  0  0  0  0  0  0  0  0  0  0  0
   18.2512  -10.9031   14.2705 N   0  0  0  0  0  0  0  0  0  0  0  0
   17.6339   -9.7843   14.6926 C   0  0  0  0  0  0  0  0  0  0  0  0
   16.9899   -9.1666   13.6876 N   0  0  0  0  0  0  0  0  0  0  0  0
   16.1036   -8.0179   13.7894 C   0  0  0  0  0  0  0  0  0  0  0  0
   16.7169   -9.7551   11.2556 C   0  0  0  0  0  0  0  0  0  0  0  0
   15.4467  -10.0749   10.7673 C   0  0  0  0  0  0  0  0  0  0  0  0
   14.3157  -10.6244   11.5653 C   0  0  0  0  0  0  0  0  0  0  0  0
   15.3598   -9.8220    9.4324 N   0  0  0  0  0  0  0  0  0  0  0  0
   16.5946   -9.3570    9.1671 C   0  0  0  0  0  0  0  0  0  0  0  0
   17.3422   -8.9153    7.7420 S   0  0  0  0  0  0  0  0  0  0  0  0
   18.8378   -8.6561    8.5430 C   0  0  0  0  0  0  0  0  0  0  0  0
   18.6795   -8.9434    9.9110 C   0  0  0  0  0  0  0  0  0  0  0  0
   17.4104   -9.3123   10.1989 N   0  0  0  0  0  0  0  0  0  0  0  0
   17.6503   -9.2238   16.3934 S   0  0  0  0  0  0  0  0  0  0  0  0
   15.8399   -9.3121   16.5171 C   0  0  0  0  0  0  0  0  0  0  0  0
   15.3423   -8.2907   17.4779 C   0  0  0  0  0  0  0  0  0  0  0  0
   14.7232   -7.2848   17.0412 O   0  0  0  0  0  0  0  0  0  0  0  0
   15.5597   -8.4736   18.8823 N   0  0  0  0  0  0  0  0  0  0  0  0
   16.0352   -9.2891   19.1616 H   0  0  0  0  0  0  0  0  0  0  0  0
   15.1445   -7.5717   19.9143 C   0  0  0  0  0  0  0  0  0  0  0  0
   13.8366   -7.2907   20.2766 C   0  0  0  0  0  0  0  0  0  0  0  0
   14.0268   -6.3785   21.2959 C   0  0  0  0  0  0  0  0  0  0  0  0
   15.3064   -6.1679   21.4870 O   0  0  0  0  0  0  0  0  0  0  0  0
   16.0182   -6.8767   20.6644 N   0  0  0  0  0  0  0  0  0  0  0  0
   12.9461   -5.7197   22.0754 C   0  0  0  0  0  0  0  0  0  0  0  0
  1  2  2  0  0  0
  2  3  1  0  0  0
  3  4  2  0  0  0
  4 16  1  0  0  0
 16 17  1  0  0  0
 17 18  1  0  0  0
 18 19  2  0  0  0
 18 20  1  0  0  0
 20 22  1  0  0  0
 22 23  1  0  0  0
 23 24  2  0  0  0
 24 25  1  0  0  0
 25 26  1  0  0  0
 24 27  1  0  0  0
  4  5  1  0  0  0
  5  6  1  0  0  0
  1  7  1  0  0  0
  7  8  2  0  0  0
  8  9  1  0  0  0
  8 10  1  0  0  0
 10 11  2  0  0  0
 11 12  1  0  0  0
 12 13  1  0  0  0
 13 14  2  0  0  0
 14 15  1  0  0  0
  5  1  1  0  0  0
 15  7  1  0  0  0
 26 22  2  0  0  0
 15 11  1  0  0  0
 20 21  1  0  0  0
M  END
>  <minimizedAffinity>
-6.09963

>  <minimizedRMSD>
1.62170

$$$$
CSC026742495 65522418 CSSS00026742495 MCULE-1158338797 MolPort-019-683-747 PubChem-53543019 Z1099511527 ZINC000065522418 ZINC65522418


 28 30  0  0  0  0  0  0  0  0999 V2000
   17.5808  -10.5840   11.6872 N   0  0  0  0  0  0  0  0  0  0  0  0
   17.9467   -9.5333   10.7899 C   0  0  0  0  0  0  0  0  0  0  0  0
   19.1577   -9.3035   10.5290 O   0  0  0  0  0  0  0  0  0  0  0  0
   16.6245  -10.7628   11.8381 H   0  0  0  0  0  0  0  0  0  0  0  0
   18.5617  -11.4017   12.3882 C   0  0  0  0  0  0  0  0  0  0  0  0
   17.6852  -10.1481   15.8627 C   0  0  0  0  0  0  0  0  0  0  0  0
   17.9459  -10.1794   14.4828 C   0  0  0  0  0  0  0  0  0  0  0  0
   18.3066  -11.3762   13.8571 C   0  0  0  0  0  0  0  0  0  0  0  0
   18.4038  -12.5521   14.6070 C   0  0  0  0  0  0  0  0  0  0  0  0
   18.1473  -12.5288   15.9803 C   0  0  0  0  0  0  0  0  0  0  0  0
   17.7896  -11.3316   16.6082 C   0  0  0  0  0  0  0  0  0  0  0  0
   17.5370  -11.3235   17.9743 O   0  0  0  0  0  0  0  0  0  0  0  0
   17.6079  -12.1164   18.4685 H   0  0  0  0  0  0  0  0  0  0  0  0
   17.3214   -8.9607   16.5072 O   0  0  0  0  0  0  0  0  0  0  0  0
   16.0877   -7.6359   14.9342 C   0  0  0  0  0  0  0  0  0  0  0  0
   16.0733   -8.3177   16.2863 C   0  0  0  0  0  0  0  0  0  0  0  0
   16.8833   -8.7269   10.1254 C   0  0  0  0  0  0  0  0  0  0  0  0
   16.5504   -9.2937    8.7520 C   0  0  0  0  0  0  0  0  0  0  0  0
   17.5320   -8.8310    7.7271 C   0  0  0  0  0  0  0  0  0  0  0  0
   17.4612   -9.1988    6.4204 N   0  0  0  0  0  0  0  0  0  0  0  0
   18.5134   -8.5631    5.8866 C   0  0  0  0  0  0  0  0  0  0  0  0
   18.9312   -8.5782    4.5583 C   0  0  0  0  0  0  0  0  0  0  0  0
   20.0749   -7.8255    4.2319 C   0  0  0  0  0  0  0  0  0  0  0  0
   20.7584   -7.0904    5.2265 C   0  0  0  0  0  0  0  0  0  0  0  0
   20.3064   -7.0991    6.5595 C   0  0  0  0  0  0  0  0  0  0  0  0
   19.1720   -7.8547    6.8452 C   0  0  0  0  0  0  0  0  0  0  0  0
   18.5687   -8.0078    8.0321 N   0  0  0  0  0  0  0  0  0  0  0  0
   18.8144   -7.6217    8.9037 H   0  0  0  0  0  0  0  0  0  0  0  0
 15 16  1  0  0  0
 16 14  1  0  0  0
 14  6  1  0  0  0
  6  7  2  0  0  0
  7  8  1  0  0  0
  8  5  1  0  0  0
  8  9  2  0  0  0
  5  1  1  0  0  0
  1  2  1  0  0  0
  2  3  2  0  0  0
  2 17  1  0  0  0
 17 18  1  0  0  0
 18 19  1  0  0  0
 19 20  2  0  0  0
 20 21  1  0  0  0
 21 22  2  0  0  0
 22 23  1  0  0  0
 23 24  2  0  0  0
 24 25  1  0  0  0
 25 26  2  0  0  0
 26 27  1  0  0  0
 26 21  1  0  0  0
 27 19  1  0  0  0
  9 10  1  0  0  0
 10 11  2  0  0  0
 11 12  1  0  0  0
 11  6  1  0  0  0
  1  4  1  0  0  0
 27 28  1  0  0  0
 12 13  1  0  0  0
M  END
>  <minimizedAffinity>
-6.09178

>  <minimizedRMSD>
2.43941

$$$$
CSSS00160462652 MCULE-8095028678 MolPort-046-821-198 PubChem-145903378 Z3992152602


 26 28  0  0  0  0  0  0  0  0999 V2000
   18.0661   -9.6445   11.9433 N   0  0  0  0  0  0  0  0  0  0  0  0
   18.6885   -8.8854   12.0182 H   0  0  0  0  0  0  0  0  0  0  0  0
   18.6054   -8.2978    9.2112 C   0  0  0  0  0  0  0  0  0  0  0  0
   18.3415   -7.9317    7.8944 C   0  0  0  0  0  0  0  0  0  0  0  0
   17.1716   -8.4799    7.4759 N   0  0  0  0  0  0  0  0  0  0  0  0
   16.7175   -9.1744    8.5337 C   0  0  0  0  0  0  0  0  0  0  0  0
   15.5626   -9.8821    8.5773 N   0  0  0  0  0  0  0  0  0  0  0  0
   15.2338  -10.5231    9.7381 C   0  0  0  0  0  0  0  0  0  0  0  0
   16.0549  -10.4450   10.8320 N   0  0  0  0  0  0  0  0  0  0  0  0
   17.2202   -9.7318   10.7963 C   0  0  0  0  0  0  0  0  0  0  0  0
   17.5502   -9.0886    9.6063 C   0  0  0  0  0  0  0  0  0  0  0  0
   16.7487   -8.3886    6.5916 H   0  0  0  0  0  0  0  0  0  0  0  0
   21.0706   -8.3685    9.3721 C   0  0  0  0  0  0  0  0  0  0  0  0
   19.7892   -7.8698   10.0129 C   0  0  0  0  0  0  0  0  0  0  0  0
   18.0399  -10.6379   13.0041 C   0  0  0  0  0  0  0  0  0  0  0  0
   18.1854   -9.9637   14.3218 C   0  0  0  0  0  0  0  0  0  0  0  0
   19.4524   -9.8108   14.8933 C   0  0  0  0  0  0  0  0  0  0  0  0
   19.5920   -9.1520   16.1175 C   0  0  0  0  0  0  0  0  0  0  0  0
   18.4658   -8.6401   16.7685 C   0  0  0  0  0  0  0  0  0  0  0  0
   17.1918   -8.7814   16.1991 C   0  0  0  0  0  0  0  0  0  0  0  0
   17.0602   -9.4438   14.9697 C   0  0  0  0  0  0  0  0  0  0  0  0
   16.0056   -8.2375   16.8831 C   0  0  0  0  0  0  0  0  0  0  0  0
   15.9151   -8.2674   18.3047 N   0  0  0  0  0  0  0  0  0  0  0  0
   15.0589   -7.7403   16.2167 O   0  0  0  0  0  0  0  0  0  0  0  0
   16.6482   -8.6533   18.8366 H   0  0  0  0  0  0  0  0  0  0  0  0
   15.1195   -7.9022   18.7551 H   0  0  0  0  0  0  0  0  0  0  0  0
 13 14  1  0  0  0
 14  3  1  0  0  0
  3  4  2  0  0  0
  4  5  1  0  0  0
  5  6  1  0  0  0
  6  7  2  0  0  0
  7  8  1  0  0  0
  8  9  2  0  0  0
  9 10  1  0  0  0
 10  1  1  0  0  0
  1 15  1  0  0  0
 15 16  1  0  0  0
 16 17  2  0  0  0
 17 18  1  0  0  0
 18 19  2  0  0  0
 19 20  1  0  0  0
 20 21  2  0  0  0
 20 22  1  0  0  0
 22 23  1  0  0  0
 22 24  2  0  0  0
 10 11  2  0  0  0
 11  3  1  0  0  0
 11  6  1  0  0  0
 21 16  1  0  0  0
  5 12  1  0  0  0
  1  2  1  0  0  0
 23 25  1  0  0  0
 23 26  1  0  0  0
M  END
>  <minimizedAffinity>
-6.07848

>  <minimizedRMSD>
1.43090

$$$$
CSC026818454 21895640 CSSS00026818454 MCULE-4636851087 MolPort-019-642-360 PubChem-53515882 Z73294551 ZINC000021895640 ZINC21895640


 34 37  0  0  0  0  0  0  0  0999 V2000
   17.1862   -9.3701   17.0058 C   0  0  0  0  0  0  0  0  0  0  0  0
   16.5034   -8.9457   18.1560 C   0  0  0  0  0  0  0  0  0  0  0  0
   15.3837   -8.1080   18.0689 C   0  0  0  0  0  0  0  0  0  0  0  0
   14.9477   -7.6718   16.8095 C   0  0  0  0  0  0  0  0  0  0  0  0
   15.6229   -8.1002   15.6567 C   0  0  0  0  0  0  0  0  0  0  0  0
   16.7182   -8.9633   15.7402 C   0  0  0  0  0  0  0  0  0  0  0  0
   14.6812   -7.6709   19.2426 N   0  0  0  0  0  0  0  0  0  0  0  0
   15.2429   -7.0296   20.3980 C   0  0  0  0  0  0  0  0  0  0  0  0
   16.4808   -6.7978   20.4659 O   0  0  0  0  0  0  0  0  0  0  0  0
   13.7094   -7.8280   19.2566 H   0  0  0  0  0  0  0  0  0  0  0  0
   14.3646   -6.6402   21.5154 C   0  0  0  0  0  0  0  0  0  0  0  0
   14.8554   -6.6141   22.8296 C   0  0  0  0  0  0  0  0  0  0  0  0
   14.0210   -6.2445   23.8887 C   0  0  0  0  0  0  0  0  0  0  0  0
   12.6899   -5.8982   23.6417 C   0  0  0  0  0  0  0  0  0  0  0  0
   12.1929   -5.9214   22.3359 C   0  0  0  0  0  0  0  0  0  0  0  0
   13.0272   -6.2910   21.2767 C   0  0  0  0  0  0  0  0  0  0  0  0
   17.3671   -9.3524   14.5232 N   0  0  0  0  0  0  0  0  0  0  0  0
   16.7255   -9.9562   13.3952 C   0  0  0  0  0  0  0  0  0  0  0  0
   15.4705   -9.9531   13.2872 O   0  0  0  0  0  0  0  0  0  0  0  0
   18.3360   -9.1907   14.4574 H   0  0  0  0  0  0  0  0  0  0  0  0
   17.5562  -10.5032   12.2872 C   0  0  0  0  0  0  0  0  0  0  0  0
   16.9679  -10.1505   11.0040 N   0  0  0  0  0  0  0  0  0  0  0  0
   15.7426  -10.4855   10.6132 N   0  0  0  0  0  0  0  0  0  0  0  0
   15.4675   -9.9676    9.4157 N   0  0  0  0  0  0  0  0  0  0  0  0
   16.5657   -9.2773    9.0560 C   0  0  0  0  0  0  0  0  0  0  0  0
   16.7907   -8.5368    7.9001 C   0  0  0  0  0  0  0  0  0  0  0  0
   18.0393   -7.8928    7.7864 C   0  0  0  0  0  0  0  0  0  0  0  0
   19.0065   -8.0042    8.8144 C   0  0  0  0  0  0  0  0  0  0  0  0
   18.7411   -8.7624    9.9716 C   0  0  0  0  0  0  0  0  0  0  0  0
   17.4973   -9.3850   10.0413 C   0  0  0  0  0  0  0  0  0  0  0  0
   18.3022  -11.5801   17.1051 C   0  0  0  0  0  0  0  0  0  0  0  0
   18.3373  -10.1593   17.1102 O   0  0  0  0  0  0  0  0  0  0  0  0
   13.8433   -6.8163   16.7241 O   0  0  0  0  0  0  0  0  0  0  0  0
   12.6694   -6.9941   17.5053 C   0  0  0  0  0  0  0  0  0  0  0  0
 31 32  1  0  0  0
 32  1  1  0  0  0
  1  2  2  0  0  0
  2  3  1  0  0  0
  3  7  1  0  0  0
  3  4  2  0  0  0
  7  8  1  0  0  0
  8  9  2  0  0  0
  8 11  1  0  0  0
 11 12  2  0  0  0
 12 13  1  0  0  0
 13 14  2  0  0  0
 14 15  1  0  0  0
 15 16  2  0  0  0
 16 11  1  0  0  0
  4 33  1  0  0  0
  4  5  1  0  0  0
 33 34  1  0  0  0
  5  6  2  0  0  0
  6 17  1  0  0  0
  6  1  1  0  0  0
 17 18  1  0  0  0
 18 19  2  0  0  0
 18 21  1  0  0  0
 21 22  1  0  0  0
 22 23  1  0  0  0
 23 24  2  0  0  0
 24 25  1  0  0  0
 25 26  2  0  0  0
 26 27  1  0  0  0
 27 28  2  0  0  0
 28 29  1  0  0  0
 29 30  2  0  0  0
 30 22  1  0  0  0
 30 25  1  0  0  0
  7 10  1  0  0  0
 17 20  1  0  0  0
M  END
>  <minimizedAffinity>
-6.05822

>  <minimizedRMSD>
2.71622

$$$$
CSC047451912 CSSS00047451912 MCULE-1230659906 MolPort-039-116-943 PubChem-136930435


 28 30  0  0  0  0  0  0  0  0999 V2000
   15.9941   -9.0016   11.0682 N   0  0  0  0  0  0  0  0  0  0  0  0
   15.6687   -9.2148   12.4409 C   0  0  0  0  0  0  0  0  0  0  0  0
   14.8484  -10.1116   12.7742 O   0  0  0  0  0  0  0  0  0  0  0  0
   16.6279   -8.2855   10.8342 H   0  0  0  0  0  0  0  0  0  0  0  0
   15.4190   -9.8083   10.0040 C   0  0  0  0  0  0  0  0  0  0  0  0
   16.5022  -10.6437    9.3441 C   0  0  0  0  0  0  0  0  0  0  0  0
   18.2299   -8.9327    8.6940 N   0  0  0  0  0  0  0  0  0  0  0  0
   17.2660   -9.8252    8.3543 C   0  0  0  0  0  0  0  0  0  0  0  0
   17.0272   -9.8811    7.0170 N   0  0  0  0  0  0  0  0  0  0  0  0
   17.9019   -8.9868    6.5189 C   0  0  0  0  0  0  0  0  0  0  0  0
   18.0964   -8.6453    5.1830 C   0  0  0  0  0  0  0  0  0  0  0  0
   19.0821   -7.6817    4.8972 C   0  0  0  0  0  0  0  0  0  0  0  0
   19.8374   -7.0945    5.9374 C   0  0  0  0  0  0  0  0  0  0  0  0
   19.6164   -7.4615    7.2776 C   0  0  0  0  0  0  0  0  0  0  0  0
   18.6301   -8.4163    7.5230 C   0  0  0  0  0  0  0  0  0  0  0  0
   20.1564   -8.0957    9.9408 C   0  0  0  0  0  0  0  0  0  0  0  0
   18.7432   -8.6425   10.0278 C   0  0  0  0  0  0  0  0  0  0  0  0
   16.3291   -8.3876   13.4908 C   0  0  0  0  0  0  0  0  0  0  0  0
   16.8274   -9.2552   14.6106 C   0  0  0  0  0  0  0  0  0  0  0  0
   17.7542  -10.2867   14.3807 C   0  0  0  0  0  0  0  0  0  0  0  0
   18.3051  -10.5494   13.0200 C   0  0  0  0  0  0  0  0  0  0  0  0
   18.1681  -11.0640   15.4151 N   0  0  0  0  0  0  0  0  0  0  0  0
   17.7005  -10.8662   16.6741 C   0  0  0  0  0  0  0  0  0  0  0  0
   18.1714  -11.7331   17.7853 C   0  0  0  0  0  0  0  0  0  0  0  0
   16.8032   -9.8775   16.9191 N   0  0  0  0  0  0  0  0  0  0  0  0
   16.3575   -9.0720   15.9206 C   0  0  0  0  0  0  0  0  0  0  0  0
   15.5242   -8.1641   16.1829 O   0  0  0  0  0  0  0  0  0  0  0  0
   16.4700   -9.7421   17.8356 H   0  0  0  0  0  0  0  0  0  0  0  0
 16 17  1  0  0  0
 17  7  1  0  0  0
  7  8  1  0  0  0
  8  6  1  0  0  0
  6  5  1  0  0  0
  5  1  1  0  0  0
  1  2  1  0  0  0
  2  3  2  0  0  0
  2 18  1  0  0  0
 18 19  1  0  0  0
 19 20  2  0  0  0
 20 21  1  0  0  0
 20 22  1  0  0  0
 22 23  2  0  0  0
 23 24  1  0  0  0
 23 25  1  0  0  0
 25 26  1  0  0  0
 26 27  2  0  0  0
  8  9  2  0  0  0
  9 10  1  0  0  0
 10 11  2  0  0  0
 11 12  1  0  0  0
 12 13  2  0  0  0
 13 14  1  0  0  0
 14 15  2  0  0  0
 15  7  1  0  0  0
 26 19  1  0  0  0
 15 10  1  0  0  0
  1  4  1  0  0  0
 25 28  1  0  0  0
M  END
>  <minimizedAffinity>
-6.05673

>  <minimizedRMSD>
2.00016

$$$$
CSSS06359877332 MCULE-1147322495 MolPort-047-946-604 PubChem-163348453


 26 29  0  0  0  0  0  0  0  0999 V2000
   16.3589   -8.4873   14.9404 C   0  0  0  0  0  0  0  0  0  0  0  0
   16.3448   -9.8236   14.2138 C   0  0  0  0  0  0  0  0  0  0  0  0
   15.4660   -9.7270   13.0186 C   0  0  0  0  0  0  0  0  0  0  0  0
   16.5466   -9.7508   12.0214 N   0  0  0  0  0  0  0  0  0  0  0  0
   17.4272   -9.8577   13.1928 C   0  0  0  0  0  0  0  0  0  0  0  0
   16.7006   -9.6985   10.6031 C   0  0  0  0  0  0  0  0  0  0  0  0
   17.7206   -8.9673    9.9984 C   0  0  0  0  0  0  0  0  0  0  0  0
   18.9423   -8.0307   10.6580 S   0  0  0  0  0  0  0  0  0  0  0  0
   19.6367   -7.5805    9.1780 C   0  0  0  0  0  0  0  0  0  0  0  0
   18.8993   -8.1739    8.1479 C   0  0  0  0  0  0  0  0  0  0  0  0
   17.8357   -8.9427    8.6270 C   0  0  0  0  0  0  0  0  0  0  0  0
   16.9614   -9.6273    7.8479 N   0  0  0  0  0  0  0  0  0  0  0  0
   15.9603  -10.3454    8.4352 C   0  0  0  0  0  0  0  0  0  0  0  0
   15.8362  -10.3773    9.7964 N   0  0  0  0  0  0  0  0  0  0  0  0
   17.7966   -9.3653   16.7817 C   0  0  0  0  0  0  0  0  0  0  0  0
   16.5809   -8.6834   16.3676 N   0  0  0  0  0  0  0  0  0  0  0  0
   15.6835   -8.1343   17.3460 C   0  0  0  0  0  0  0  0  0  0  0  0
   14.4145   -7.7864   16.9949 N   0  0  0  0  0  0  0  0  0  0  0  0
   13.5490   -7.2668   17.9035 C   0  0  0  0  0  0  0  0  0  0  0  0
   12.1704   -6.9009   17.4776 C   0  0  0  0  0  0  0  0  0  0  0  0
   13.9596   -7.0812   19.2262 C   0  0  0  0  0  0  0  0  0  0  0  0
   13.1139   -6.5635   20.1542 F   0  0  0  0  0  0  0  0  0  0  0  0
   15.2636   -7.4412   19.5729 C   0  0  0  0  0  0  0  0  0  0  0  0
   15.6721   -7.2894   20.7539 O   0  0  0  0  0  0  0  0  0  0  0  0
   16.0956   -7.9578   18.6319 N   0  0  0  0  0  0  0  0  0  0  0  0
   17.0135   -8.2092   18.8840 H   0  0  0  0  0  0  0  0  0  0  0  0
 15 16  1  0  0  0
 16  1  1  0  0  0
  1  2  1  0  0  0
  2  3  1  0  0  0
  3  4  1  0  0  0
  4  5  1  0  0  0
  4  6  1  0  0  0
  6  7  2  0  0  0
  7  8  1  0  0  0
  8  9  1  0  0  0
  9 10  2  0  0  0
 10 11  1  0  0  0
 11 12  2  0  0  0
 12 13  1  0  0  0
 13 14  2  0  0  0
 16 17  1  0  0  0
 17 18  2  0  0  0
 18 19  1  0  0  0
 19 20  1  0  0  0
 19 21  2  0  0  0
 21 22  1  0  0  0
 21 23  1  0  0  0
 23 24  2  0  0  0
 23 25  1  0  0  0
  5  2  1  0  0  0
 14  6  1  0  0  0
 25 17  1  0  0  0
 11  7  1  0  0  0
 25 26  1  0  0  0
M  END
>  <minimizedAffinity>
-6.05150

>  <minimizedRMSD>
1.63888

$$$$
244708137 CSSS02125452088 MCULE-4978664287 MolPort-021-753-365 ZINC000102155825 ZINC000244708137


 25 27  0  0  0  0  0  0  0  0999 V2000
   18.4728  -10.0850   12.5598 N   0  0  0  0  0  0  0  0  0  0  0  0
   19.3117   -9.6059   12.7493 H   0  0  0  0  0  0  0  0  0  0  0  0
   15.8000   -9.8582    9.9381 C   0  0  0  0  0  0  0  0  0  0  0  0
   16.4631   -9.1360    8.9875 N   0  0  0  0  0  0  0  0  0  0  0  0
   17.7386   -8.7480    9.2320 C   0  0  0  0  0  0  0  0  0  0  0  0
   18.5679   -8.0187    8.4111 C   0  0  0  0  0  0  0  0  0  0  0  0
   19.7372   -7.9278    9.1766 C   0  0  0  0  0  0  0  0  0  0  0  0
   19.5809   -8.5679   10.3617 N   0  0  0  0  0  0  0  0  0  0  0  0
   18.3575   -9.0582   10.3714 N   0  0  0  0  0  0  0  0  0  0  0  0
   17.7640   -9.7774   11.3561 C   0  0  0  0  0  0  0  0  0  0  0  0
   16.4409  -10.2013   11.1471 C   0  0  0  0  0  0  0  0  0  0  0  0
   13.5887  -10.2892   10.9573 C   0  0  0  0  0  0  0  0  0  0  0  0
   14.4023  -10.3057    9.6766 C   0  0  0  0  0  0  0  0  0  0  0  0
   18.0044  -11.0772   13.5158 C   0  0  0  0  0  0  0  0  0  0  0  0
   18.7967  -10.9678   14.8122 C   0  0  0  0  0  0  0  0  0  0  0  0
   19.2131   -9.5211   15.1050 C   0  0  0  0  0  0  0  0  0  0  0  0
   18.0107   -8.6559   15.4810 C   0  0  0  0  0  0  0  0  0  0  0  0
   17.2805   -9.2583   16.6793 C   0  0  0  0  0  0  0  0  0  0  0  0
   16.8147  -10.6771   16.3590 C   0  0  0  0  0  0  0  0  0  0  0  0
   18.0090  -11.5557   15.9863 C   0  0  0  0  0  0  0  0  0  0  0  0
   16.1189   -8.4035   17.0646 C   0  0  0  0  0  0  0  0  0  0  0  0
   15.8357   -8.1816   18.4407 N   0  0  0  0  0  0  0  0  0  0  0  0
   15.3879   -7.8774   16.1833 O   0  0  0  0  0  0  0  0  0  0  0  0
   16.4043   -8.5908   19.1325 H   0  0  0  0  0  0  0  0  0  0  0  0
   15.0711   -7.6189   18.7014 H   0  0  0  0  0  0  0  0  0  0  0  0
 12 13  1  0  0  0
 13  3  1  0  0  0
  3  4  2  0  0  0
  4  5  1  0  0  0
  5  6  2  0  0  0
  6  7  1  0  0  0
  7  8  2  0  0  0
  8  9  1  0  0  0
  9 10  1  0  0  0
  9  5  1  0  0  0
 10  1  1  0  0  0
 10 11  2  0  0  0
  1 14  1  0  0  0
 15 14  1  0  0  0
 15 16  1  0  0  0
 16 17  1  0  0  0
 17 18  1  0  0  0
 18 19  1  0  0  0
 18 21  1  0  0  0
 19 20  1  0  0  0
 20 15  1  0  0  0
 21 22  1  0  0  0
 21 23  2  0  0  0
 11  3  1  0  0  0
  1  2  1  0  0  0
 22 24  1  0  0  0
 22 25  1  0  0  0
M  END
>  <minimizedAffinity>
-6.04812

>  <minimizedRMSD>
1.15530

$$$$
CSC026697228 CSSS00026697228 MolPort-039-252-928 Z131323804


 25 26  0  0  0  0  0  0  0  0999 V2000
   14.1347  -10.5472   10.5060 S   0  0  0  0  0  0  0  0  0  0  0  0
   15.7588   -9.8580   10.1670 C   0  0  0  0  0  0  0  0  0  0  0  0
   15.9901   -9.3361    8.9344 N   0  0  0  0  0  0  0  0  0  0  0  0
   17.1921   -8.8028    8.6096 C   0  0  0  0  0  0  0  0  0  0  0  0
   17.4016   -8.2719    7.3334 C   0  0  0  0  0  0  0  0  0  0  0  0
   18.6430   -7.7218    7.0001 C   0  0  0  0  0  0  0  0  0  0  0  0
   19.6769   -7.7012    7.9414 C   0  0  0  0  0  0  0  0  0  0  0  0
   19.4724   -8.2309    9.2191 C   0  0  0  0  0  0  0  0  0  0  0  0
   18.2292   -8.7844    9.5598 C   0  0  0  0  0  0  0  0  0  0  0  0
   17.9802   -9.3258   10.8280 C   0  0  0  0  0  0  0  0  0  0  0  0
   18.8921   -9.3239   11.7026 O   0  0  0  0  0  0  0  0  0  0  0  0
   16.7498   -9.8557   11.1148 N   0  0  0  0  0  0  0  0  0  0  0  0
   13.3495  -10.4214    9.4026 H   0  0  0  0  0  0  0  0  0  0  0  0
   16.4942  -10.4051   12.4458 C   0  0  0  0  0  0  0  0  0  0  0  0
   16.1725   -9.2862   13.4196 C   0  0  0  0  0  0  0  0  0  0  0  0
   16.9492   -9.4967   14.7049 C   0  0  0  0  0  0  0  0  0  0  0  0
   16.0357   -9.3355   15.9065 C   0  0  0  0  0  0  0  0  0  0  0  0
   15.8509   -7.8642   16.2380 C   0  0  0  0  0  0  0  0  0  0  0  0
   15.0407   -7.7149   17.4780 C   0  0  0  0  0  0  0  0  0  0  0  0
   13.8346   -7.3614   17.3920 O   0  0  0  0  0  0  0  0  0  0  0  0
   15.6377   -7.9569   18.7529 N   0  0  0  0  0  0  0  0  0  0  0  0
   16.5845   -8.2239   18.7940 H   0  0  0  0  0  0  0  0  0  0  0  0
   14.8894   -7.8207   19.9911 C   0  0  0  0  0  0  0  0  0  0  0  0
   15.7122   -7.1324   20.9861 C   0  0  0  0  0  0  0  0  0  0  0  0
   16.3894   -6.5655   21.8068 C   0  0  0  0  0  0  0  0  0  0  0  0
  1  2  1  0  0  0
  2  3  2  0  0  0
  3  4  1  0  0  0
  4  5  2  0  0  0
  5  6  1  0  0  0
  6  7  2  0  0  0
  7  8  1  0  0  0
  8  9  2  0  0  0
  9 10  1  0  0  0
 10 11  2  0  0  0
 10 12  1  0  0  0
 12 14  1  0  0  0
 14 15  1  0  0  0
 15 16  1  0  0  0
 16 17  1  0  0  0
 17 18  1  0  0  0
 18 19  1  0  0  0
 19 20  2  0  0  0
 19 21  1  0  0  0
 21 23  1  0  0  0
 23 24  1  0  0  0
 24 25  3  0  0  0
 12  2  1  0  0  0
  9  4  1  0  0  0
  1 13  1  0  0  0
 21 22  1  0  0  0
M  END
>  <minimizedAffinity>
-6.04634

>  <minimizedRMSD>
1.43228

$$$$
CSC028075627 CSSS00028075627 MCULE-4294019716 MolPort-005-726-588 PubChem-135870958 Z55001790


 30 32  0  0  0  0  0  0  0  0999 V2000
   17.7819   -8.0261   15.4583 C   0  0  0  0  0  0  0  0  0  0  0  0
   16.5394   -8.8055   15.0710 C   0  0  0  0  0  0  0  0  0  0  0  0
   16.7773   -9.5356   13.7938 C   0  0  0  0  0  0  0  0  0  0  0  0
   15.7903   -9.9429   13.1242 O   0  0  0  0  0  0  0  0  0  0  0  0
   18.0854   -9.7564   13.3489 O   0  0  0  0  0  0  0  0  0  0  0  0
   18.3893  -10.6383   12.2749 C   0  0  0  0  0  0  0  0  0  0  0  0
   18.0716   -9.9914   10.9698 C   0  0  0  0  0  0  0  0  0  0  0  0
   18.9478   -9.0954   10.4223 N   0  0  0  0  0  0  0  0  0  0  0  0
   18.6430   -8.5002    9.2422 C   0  0  0  0  0  0  0  0  0  0  0  0
   17.4654   -8.7937    8.5959 C   0  0  0  0  0  0  0  0  0  0  0  0
   17.3800   -7.9019    7.1824 S   0  0  0  0  0  0  0  0  0  0  0  0
   18.8711   -7.1177    7.3894 C   0  0  0  0  0  0  0  0  0  0  0  0
   19.4446   -7.5642    8.5852 C   0  0  0  0  0  0  0  0  0  0  0  0
   16.5729   -9.7051    9.1468 C   0  0  0  0  0  0  0  0  0  0  0  0
   15.4875   -9.9859    8.5736 O   0  0  0  0  0  0  0  0  0  0  0  0
   16.8975  -10.2890   10.3338 N   0  0  0  0  0  0  0  0  0  0  0  0
   16.2770  -10.9359   10.7408 H   0  0  0  0  0  0  0  0  0  0  0  0
   16.0959   -9.9813   16.3883 S   0  0  0  0  0  0  0  0  0  0  0  0
   16.5289   -8.8258   17.7288 C   0  0  0  0  0  0  0  0  0  0  0  0
   15.3517   -7.9970   18.1137 C   0  0  0  0  0  0  0  0  0  0  0  0
   14.7421   -7.3461   17.2239 O   0  0  0  0  0  0  0  0  0  0  0  0
   14.9440   -7.9412   19.4882 N   0  0  0  0  0  0  0  0  0  0  0  0
   15.4665   -8.4792   20.1261 H   0  0  0  0  0  0  0  0  0  0  0  0
   13.8532   -7.1820   20.0284 C   0  0  0  0  0  0  0  0  0  0  0  0
   12.5751   -7.1994   19.4464 C   0  0  0  0  0  0  0  0  0  0  0  0
   11.5374   -6.4408   19.9969 C   0  0  0  0  0  0  0  0  0  0  0  0
   11.7710   -5.6585   21.1321 C   0  0  0  0  0  0  0  0  0  0  0  0
   10.6689   -4.8517   21.7183 C   0  0  0  0  0  0  0  0  0  0  0  0
   13.0405   -5.6379   21.7183 C   0  0  0  0  0  0  0  0  0  0  0  0
   14.0773   -6.3976   21.1667 C   0  0  0  0  0  0  0  0  0  0  0  0
  2  1  1  0  0  0
  2 18  1  0  0  0
  2  3  1  0  0  0
 18 19  1  0  0  0
 19 20  1  0  0  0
 20 21  2  0  0  0
 20 22  1  0  0  0
 22 24  1  0  0  0
 24 25  2  0  0  0
 25 26  1  0  0  0
 26 27  2  0  0  0
 27 28  1  0  0  0
 27 29  1  0  0  0
 29 30  2  0  0  0
 30 24  1  0  0  0
  3  4  2  0  0  0
  3  5  1  0  0  0
  5  6  1  0  0  0
  6  7  1  0  0  0
  7  8  2  0  0  0
  8  9  1  0  0  0
  9 10  2  0  0  0
 10 11  1  0  0  0
 10 14  1  0  0  0
 11 12  1  0  0  0
 12 13  2  0  0  0
 13  9  1  0  0  0
 14 15  2  0  0  0
 14 16  1  0  0  0
 16  7  1  0  0  0
 22 23  1  0  0  0
 16 17  1  0  0  0
M  END
>  <minimizedAffinity>
-6.03866

>  <minimizedRMSD>
2.06545

$$$$
CSC026967545 89962788 CSSS00026967545 MCULE-4177673023 MolPort-027-896-193 PubChem-71931408 Z1193295434 ZINC000089962788


 27 29  0  0  0  0  0  0  0  0999 V2000
   18.9041  -10.0347   12.4394 C   0  0  0  0  0  0  0  0  0  0  0  0
   17.8049  -11.3835   16.3640 C   0  0  0  0  0  0  0  0  0  0  0  0
   17.6456  -10.0307   16.0171 C   0  0  0  0  0  0  0  0  0  0  0  0
   18.0141   -9.6004   14.7331 C   0  0  0  0  0  0  0  0  0  0  0  0
   18.5404  -10.5011   13.8040 C   0  0  0  0  0  0  0  0  0  0  0  0
   18.6909  -11.8460   14.1469 C   0  0  0  0  0  0  0  0  0  0  0  0
   18.3276  -12.2850   15.4213 C   0  0  0  0  0  0  0  0  0  0  0  0
   17.1062   -9.1186   16.9865 N   0  0  0  0  0  0  0  0  0  0  0  0
   15.7945   -8.5411   16.9871 C   0  0  0  0  0  0  0  0  0  0  0  0
   15.4109   -7.6101   18.0796 C   0  0  0  0  0  0  0  0  0  0  0  0
   14.9607   -8.8067   16.0816 O   0  0  0  0  0  0  0  0  0  0  0  0
   17.7001   -8.8630   17.7289 H   0  0  0  0  0  0  0  0  0  0  0  0
   18.3469  -11.8392   18.7373 C   0  0  0  0  0  0  0  0  0  0  0  0
   17.4378  -11.8105   17.6454 O   0  0  0  0  0  0  0  0  0  0  0  0
   17.7709   -9.3496   11.8358 N   0  0  0  0  0  0  0  0  0  0  0  0
   17.2448   -8.7617   12.4247 H   0  0  0  0  0  0  0  0  0  0  0  0
   17.3419   -9.4439   10.4676 C   0  0  0  0  0  0  0  0  0  0  0  0
   17.9989   -8.8126    9.3810 C   0  0  0  0  0  0  0  0  0  0  0  0
   17.4732   -8.9845    8.0748 C   0  0  0  0  0  0  0  0  0  0  0  0
   18.0944   -8.3772    6.9797 C   0  0  0  0  0  0  0  0  0  0  0  0
   19.2372   -7.5967    7.1643 C   0  0  0  0  0  0  0  0  0  0  0  0
   19.7634   -7.4203    8.4453 C   0  0  0  0  0  0  0  0  0  0  0  0
   19.1479   -8.0242    9.5444 C   0  0  0  0  0  0  0  0  0  0  0  0
   19.8356   -7.0103    6.1001 F   0  0  0  0  0  0  0  0  0  0  0  0
   16.3620   -9.7403    7.8784 N   0  0  0  0  0  0  0  0  0  0  0  0
   15.7235  -10.3496    8.9095 C   0  0  0  0  0  0  0  0  0  0  0  0
   16.2021  -10.2105   10.2115 C   0  0  0  0  0  0  0  0  0  0  0  0
 13 14  1  0  0  0
 14  2  1  0  0  0
  2  3  2  0  0  0
  3  8  1  0  0  0
  8  9  1  0  0  0
  9 10  1  0  0  0
  9 11  2  0  0  0
  3  4  1  0  0  0
  4  5  2  0  0  0
  5  1  1  0  0  0
  1 15  1  0  0  0
 15 17  1  0  0  0
 17 18  1  0  0  0
 18 19  1  0  0  0
 19 20  2  0  0  0
 20 21  1  0  0  0
 21 22  2  0  0  0
 22 23  1  0  0  0
 21 24  1  0  0  0
 19 25  1  0  0  0
 25 26  2  0  0  0
 26 27  1  0  0  0
  5  6  1  0  0  0
  6  7  2  0  0  0
  7  2  1  0  0  0
 27 17  2  0  0  0
 23 18  2  0  0  0
  8 12  1  0  0  0
 15 16  1  0  0  0
M  END
>  <minimizedAffinity>
-6.02853

>  <minimizedRMSD>
1.03985

$$$$
CSC026549011 CSSS00026549011 MCULE-6529895390 MolPort-009-333-163 Z466758814


 35 39  0  0  0  0  0  0  0  0999 V2000
   16.6242  -10.2622   13.7030 C   0  0  0  0  0  0  0  0  0  0  0  0
   16.5833  -10.2254   15.1370 N   0  0  0  0  0  0  0  0  0  0  0  0
   15.5683   -9.4309   15.8245 C   0  0  0  0  0  0  0  0  0  0  0  0
   16.2091   -8.6636   16.9796 C   0  0  0  0  0  0  0  0  0  0  0  0
   16.9884   -9.6161   17.8853 C   0  0  0  0  0  0  0  0  0  0  0  0
   18.0601  -10.3464   17.0818 C   0  0  0  0  0  0  0  0  0  0  0  0
   17.4189  -11.1212   15.9343 C   0  0  0  0  0  0  0  0  0  0  0  0
   15.7703   -9.6259   13.0283 O   0  0  0  0  0  0  0  0  0  0  0  0
   15.1677   -7.9353   17.7614 C   0  0  0  0  0  0  0  0  0  0  0  0
   15.2836   -7.6760   19.0920 N   0  0  0  0  0  0  0  0  0  0  0  0
   14.1442   -7.0228   19.3577 C   0  0  0  0  0  0  0  0  0  0  0  0
   13.3935   -6.9059   18.2276 C   0  0  0  0  0  0  0  0  0  0  0  0
   12.1558   -6.2674   18.2235 C   0  0  0  0  0  0  0  0  0  0  0  0
   11.6977   -5.7376   19.4443 C   0  0  0  0  0  0  0  0  0  0  0  0
   12.4767   -5.8591   20.6170 C   0  0  0  0  0  0  0  0  0  0  0  0
   13.7233   -6.5115   20.5828 C   0  0  0  0  0  0  0  0  0  0  0  0
   14.0213   -7.4801   17.1920 N   0  0  0  0  0  0  0  0  0  0  0  0
   16.0184   -7.9093   19.7043 H   0  0  0  0  0  0  0  0  0  0  0  0
   17.6880  -11.0312   12.9854 C   0  0  0  0  0  0  0  0  0  0  0  0
   18.4056   -9.5774   11.0315 C   0  0  0  0  0  0  0  0  0  0  0  0
   17.6868  -10.6940   11.5681 N   0  0  0  0  0  0  0  0  0  0  0  0
   19.1215   -8.8723   11.7931 O   0  0  0  0  0  0  0  0  0  0  0  0
   17.1682  -11.2593   10.9510 H   0  0  0  0  0  0  0  0  0  0  0  0
   20.3275   -7.8997    9.5979 O   0  0  0  0  0  0  0  0  0  0  0  0
   19.2455   -8.4518    8.9157 C   0  0  0  0  0  0  0  0  0  0  0  0
   19.0870   -8.1938    7.5460 C   0  0  0  0  0  0  0  0  0  0  0  0
   17.9871   -8.7542    6.8609 C   0  0  0  0  0  0  0  0  0  0  0  0
   17.8153   -8.5096    5.4953 C   0  0  0  0  0  0  0  0  0  0  0  0
   18.7316   -7.7092    4.8069 C   0  0  0  0  0  0  0  0  0  0  0  0
   19.8218   -7.1517    5.4815 C   0  0  0  0  0  0  0  0  0  0  0  0
   20.0001   -7.3924    6.8470 C   0  0  0  0  0  0  0  0  0  0  0  0
   17.0967   -9.5314    7.5278 N   0  0  0  0  0  0  0  0  0  0  0  0
   17.2328   -9.7921    8.8540 C   0  0  0  0  0  0  0  0  0  0  0  0
   18.3051   -9.2640    9.5870 C   0  0  0  0  0  0  0  0  0  0  0  0
   20.9446   -7.3625    9.1412 H   0  0  0  0  0  0  0  0  0  0  0  0
 24 25  1  0  0  0
 25 26  2  0  0  0
 26 27  1  0  0  0
 27 28  1  0  0  0
 28 29  2  0  0  0
 29 30  1  0  0  0
 30 31  2  0  0  0
 27 32  2  0  0  0
 32 33  1  0  0  0
 33 34  2  0  0  0
 34 20  1  0  0  0
 20 21  1  0  0  0
 21 19  1  0  0  0
 19  1  1  0  0  0
  1  2  1  0  0  0
  2  3  1  0  0  0
  3  4  1  0  0  0
  4  9  1  0  0  0
  9 10  1  0  0  0
 10 11  1  0  0  0
 11 12  2  0  0  0
 12 13  1  0  0  0
 13 14  2  0  0  0
 14 15  1  0  0  0
 15 16  2  0  0  0
 12 17  1  0  0  0
  4  5  1  0  0  0
  5  6  1  0  0  0
  6  7  1  0  0  0
  1  8  2  0  0  0
 20 22  2  0  0  0
 34 25  1  0  0  0
  7  2  1  0  0  0
 31 26  1  0  0  0
 17  9  2  0  0  0
 16 11  1  0  0  0
 24 35  1  0  0  0
 21 23  1  0  0  0
 10 18  1  0  0  0
M  END
>  <minimizedAffinity>
-6.01482

>  <minimizedRMSD>
1.69612

$$$$
CSC026748223 156152835 CSSS00026748223 MCULE-4204887400 MolPort-044-501-249 PubChem-126782406 Z161956362 ZINC000156152835


 29 31  0  0  0  0  0  0  0  0999 V2000
   16.9920   -9.7872   13.7934 N   0  0  0  0  0  0  0  0  0  0  0  0
   16.3153   -9.1881   13.4030 H   0  0  0  0  0  0  0  0  0  0  0  0
   16.3271   -8.9418   17.3558 C   0  0  0  0  0  0  0  0  0  0  0  0
   16.8287  -10.0579   18.0253 C   0  0  0  0  0  0  0  0  0  0  0  0
   17.3971  -11.1117   17.3096 C   0  0  0  0  0  0  0  0  0  0  0  0
   17.4742  -11.0694   15.9139 C   0  0  0  0  0  0  0  0  0  0  0  0
   18.2120  -12.4602   15.1327 Cl  0  0  0  0  0  0  0  0  0  0  0  0
   16.9669   -9.9394   15.2206 C   0  0  0  0  0  0  0  0  0  0  0  0
   16.4006   -8.8933   15.9578 C   0  0  0  0  0  0  0  0  0  0  0  0
   14.3515   -7.6225   18.3181 C   0  0  0  0  0  0  0  0  0  0  0  0
   13.4733   -8.3477   17.7784 O   0  0  0  0  0  0  0  0  0  0  0  0
   15.7484   -7.8778   18.1237 N   0  0  0  0  0  0  0  0  0  0  0  0
   16.3754   -7.2586   18.5626 H   0  0  0  0  0  0  0  0  0  0  0  0
   13.9372   -6.4659   19.1595 C   0  0  0  0  0  0  0  0  0  0  0  0
   12.6391   -5.7544   21.1419 C   0  0  0  0  0  0  0  0  0  0  0  0
   12.9510   -6.9144   20.2206 C   0  0  0  0  0  0  0  0  0  0  0  0
   17.9101  -10.4233   12.8632 C   0  0  0  0  0  0  0  0  0  0  0  0
   17.6001   -9.9859   11.4764 C   0  0  0  0  0  0  0  0  0  0  0  0
   16.3680  -10.2921   10.9089 C   0  0  0  0  0  0  0  0  0  0  0  0
   16.0948   -9.8485    9.6166 C   0  0  0  0  0  0  0  0  0  0  0  0
   14.9786  -10.1292    9.0994 O   0  0  0  0  0  0  0  0  0  0  0  0
   17.0271   -9.1193    8.9272 N   0  0  0  0  0  0  0  0  0  0  0  0
   16.7514   -8.6878    7.6604 C   0  0  0  0  0  0  0  0  0  0  0  0
   17.6830   -7.9416    6.9390 C   0  0  0  0  0  0  0  0  0  0  0  0
   18.9094   -7.6341    7.5219 C   0  0  0  0  0  0  0  0  0  0  0  0
   19.1966   -8.0709    8.8136 C   0  0  0  0  0  0  0  0  0  0  0  0
   20.5165   -7.7293    9.4177 C   0  0  0  0  0  0  0  0  0  0  0  0
   18.2383   -8.8220    9.5153 C   0  0  0  0  0  0  0  0  0  0  0  0
   18.5044   -9.2558   10.7774 N   0  0  0  0  0  0  0  0  0  0  0  0
 15 16  1  0  0  0
 16 14  1  0  0  0
 14 10  1  0  0  0
 10 11  2  0  0  0
 10 12  1  0  0  0
 12  3  1  0  0  0
  3  4  2  0  0  0
  4  5  1  0  0  0
  5  6  2  0  0  0
  6  7  1  0  0  0
  6  8  1  0  0  0
  8  1  1  0  0  0
  1 17  1  0  0  0
 17 18  1  0  0  0
 18 19  2  0  0  0
 19 20  1  0  0  0
 20 21  2  0  0  0
 20 22  1  0  0  0
 22 23  1  0  0  0
 23 24  2  0  0  0
 24 25  1  0  0  0
 25 26  2  0  0  0
 26 27  1  0  0  0
 26 28  1  0  0  0
 28 29  2  0  0  0
  8  9  2  0  0  0
  9  3  1  0  0  0
 29 18  1  0  0  0
 28 22  1  0  0  0
 12 13  1  0  0  0
  1  2  1  0  0  0
M  END
>  <minimizedAffinity>
-6.01426

>  <minimizedRMSD>
1.21946

$$$$
244852830 CSSS00159908650 MCULE-1663217697 MolPort-039-038-881 ZINC000244852830


 28 31  0  0  0  0  0  0  0  0999 V2000
   16.4749  -10.8189   14.7393 O   0  0  0  0  0  0  0  0  0  0  0  0
   16.1278   -9.6119   14.8527 C   0  0  0  0  0  0  0  0  0  0  0  0
   15.8032   -8.8424   13.6951 N   0  0  0  0  0  0  0  0  0  0  0  0
   15.5629   -7.8941   13.8058 H   0  0  0  0  0  0  0  0  0  0  0  0
   16.0466   -8.9908   16.1780 C   0  0  0  0  0  0  0  0  0  0  0  0
   17.1028   -8.8268   17.0572 C   0  0  0  0  0  0  0  0  0  0  0  0
   16.5593   -8.2075   18.1721 C   0  0  0  0  0  0  0  0  0  0  0  0
   15.2193   -8.0463   17.8793 C   0  0  0  0  0  0  0  0  0  0  0  0
   14.9394   -8.5171   16.6911 O   0  0  0  0  0  0  0  0  0  0  0  0
   14.2143   -7.4288   18.7894 C   0  0  0  0  0  0  0  0  0  0  0  0
   12.9559   -6.5309   17.8290 S   0  0  0  0  0  0  0  0  0  0  0  0
   11.6918   -7.7579   18.1404 C   0  0  0  0  0  0  0  0  0  0  0  0
   10.5434   -7.8341   17.4506 N   0  0  0  0  0  0  0  0  0  0  0  0
    9.8741   -8.8515   17.9624 N   0  0  0  0  0  0  0  0  0  0  0  0
   10.6256   -9.3722   18.9524 C   0  0  0  0  0  0  0  0  0  0  0  0
   11.7869   -8.7013   19.0940 N   0  0  0  0  0  0  0  0  0  0  0  0
   12.5184   -8.8614   19.7330 H   0  0  0  0  0  0  0  0  0  0  0  0
   15.8156   -9.4131   12.3574 C   0  0  0  0  0  0  0  0  0  0  0  0
   17.2215   -9.8625   11.9953 C   0  0  0  0  0  0  0  0  0  0  0  0
   17.6034   -9.3764   10.6369 C   0  0  0  0  0  0  0  0  0  0  0  0
   17.0032   -9.8174    9.5000 N   0  0  0  0  0  0  0  0  0  0  0  0
   17.6600   -9.1240    8.5550 C   0  0  0  0  0  0  0  0  0  0  0  0
   17.4675   -9.1661    7.1766 C   0  0  0  0  0  0  0  0  0  0  0  0
   18.2868   -8.3389    6.3847 C   0  0  0  0  0  0  0  0  0  0  0  0
   19.2602   -7.5058    6.9827 C   0  0  0  0  0  0  0  0  0  0  0  0
   19.4277   -7.4890    8.3803 C   0  0  0  0  0  0  0  0  0  0  0  0
   18.5992   -8.3204    9.1284 C   0  0  0  0  0  0  0  0  0  0  0  0
   18.5578   -8.4849   10.4218 O   0  0  0  0  0  0  0  0  0  0  0  0
  1  2  2  0  0  0
  2  3  1  0  0  0
  3 18  1  0  0  0
 18 19  1  0  0  0
 19 20  1  0  0  0
 20 21  2  0  0  0
 21 22  1  0  0  0
 22 23  2  0  0  0
 23 24  1  0  0  0
 24 25  2  0  0  0
 25 26  1  0  0  0
 26 27  2  0  0  0
 27 28  1  0  0  0
  2  5  1  0  0  0
  5  6  2  0  0  0
  6  7  1  0  0  0
  7  8  2  0  0  0
  8 10  1  0  0  0
 10 11  1  0  0  0
 11 12  1  0  0  0
 12 13  2  0  0  0
 13 14  1  0  0  0
 14 15  2  0  0  0
 15 16  1  0  0  0
  8  9  1  0  0  0
 28 20  1  0  0  0
  9  5  1  0  0  0
 27 22  1  0  0  0
 16 12  1  0  0  0
  3  4  1  0  0  0
 16 17  1  0  0  0
M  END
>  <minimizedAffinity>
-5.97495

>  <minimizedRMSD>
4.10591

$$$$
CSC026100297 40466043 CSSS00026100297 MCULE-2005878056 MolPort-009-133-087 PubChem-45797056 Z134882438 ZINC000040466043


 26 28  0  0  0  0  0  0  0  0999 V2000
   17.5096  -10.2382   12.9418 C   0  0  0  0  0  0  0  0  0  0  0  0
   18.8218   -7.8835    7.5008 C   0  0  0  0  0  0  0  0  0  0  0  0
   19.7078   -7.7831    8.9445 S   0  0  0  0  0  0  0  0  0  0  0  0
   18.5422   -8.7067    9.7253 C   0  0  0  0  0  0  0  0  0  0  0  0
   17.5403   -9.0596    8.8927 N   0  0  0  0  0  0  0  0  0  0  0  0
   16.4934   -9.8087    9.3289 C   0  0  0  0  0  0  0  0  0  0  0  0
   16.4665  -10.2161   10.6673 C   0  0  0  0  0  0  0  0  0  0  0  0
   17.5267   -9.8401   11.5090 C   0  0  0  0  0  0  0  0  0  0  0  0
   18.5523   -9.0818   11.0278 N   0  0  0  0  0  0  0  0  0  0  0  0
   15.5599  -10.1325    8.5478 O   0  0  0  0  0  0  0  0  0  0  0  0
   17.6857   -8.6086    7.6491 N   0  0  0  0  0  0  0  0  0  0  0  0
   19.1955   -8.3024    5.1020 C   0  0  0  0  0  0  0  0  0  0  0  0
   19.2457   -7.2710    6.2119 C   0  0  0  0  0  0  0  0  0  0  0  0
   16.4952   -9.4726   13.6504 N   0  0  0  0  0  0  0  0  0  0  0  0
   15.8049   -9.0070   13.1250 H   0  0  0  0  0  0  0  0  0  0  0  0
   16.4562   -9.3666   15.0749 C   0  0  0  0  0  0  0  0  0  0  0  0
   15.6989   -8.3492   15.6633 C   0  0  0  0  0  0  0  0  0  0  0  0
   15.6396   -8.2177   17.0592 C   0  0  0  0  0  0  0  0  0  0  0  0
   16.3484   -9.1177   17.8619 C   0  0  0  0  0  0  0  0  0  0  0  0
   17.1076  -10.1374   17.2814 C   0  0  0  0  0  0  0  0  0  0  0  0
   17.1621  -10.2624   15.8910 C   0  0  0  0  0  0  0  0  0  0  0  0
   14.8720   -7.1849   17.6926 N   0  0  0  0  0  0  0  0  0  0  0  0
   13.5357   -7.2980   18.1981 C   0  0  0  0  0  0  0  0  0  0  0  0
   12.8942   -6.1149   18.8276 C   0  0  0  0  0  0  0  0  0  0  0  0
   12.8948   -8.3791   18.1198 O   0  0  0  0  0  0  0  0  0  0  0  0
   15.3080   -6.3076   17.7901 H   0  0  0  0  0  0  0  0  0  0  0  0
 12 13  1  0  0  0
 13  2  1  0  0  0
  2  3  1  0  0  0
  3  4  1  0  0  0
  4  5  1  0  0  0
  5  6  1  0  0  0
  6  7  1  0  0  0
  7  8  2  0  0  0
  8  9  1  0  0  0
  8  1  1  0  0  0
  1 14  1  0  0  0
 14 16  1  0  0  0
 16 17  2  0  0  0
 17 18  1  0  0  0
 18 22  1  0  0  0
 22 23  1  0  0  0
 23 24  1  0  0  0
 23 25  2  0  0  0
 18 19  2  0  0  0
 19 20  1  0  0  0
 20 21  2  0  0  0
  6 10  2  0  0  0
  5 11  1  0  0  0
 11  2  2  0  0  0
  9  4  2  0  0  0
 21 16  1  0  0  0
 14 15  1  0  0  0
 22 26  1  0  0  0
M  END
>  <minimizedAffinity>
-5.96902

>  <minimizedRMSD>
1.53753

$$$$
CSSS00159258461 MolPort-046-764-292 PubChem-71313043


 33 35  0  0  0  0  0  0  0  0999 V2000
   16.6684   -9.2959   10.9149 C   0  0  0  0  0  0  0  0  0  0  0  0
   15.7533  -10.4074   11.3559 C   0  0  0  0  0  0  0  0  0  0  0  0
   16.1529  -10.6220   12.7877 C   0  0  0  0  0  0  0  0  0  0  0  0
   17.5703  -10.0809   12.8396 C   0  0  0  0  0  0  0  0  0  0  0  0
   17.8629   -9.3784   11.6523 O   0  0  0  0  0  0  0  0  0  0  0  0
   15.3540   -9.8712   13.6550 O   0  0  0  0  0  0  0  0  0  0  0  0
   14.4161  -10.0207   11.2334 O   0  0  0  0  0  0  0  0  0  0  0  0
   15.4138   -8.9324   13.4184 H   0  0  0  0  0  0  0  0  0  0  0  0
   14.2657   -9.2102   11.7447 H   0  0  0  0  0  0  0  0  0  0  0  0
   19.4412   -7.0844    8.2896 C   0  0  0  0  0  0  0  0  0  0  0  0
   18.6448   -7.7060    9.2120 N   0  0  0  0  0  0  0  0  0  0  0  0
   17.8081   -8.6769    8.7717 C   0  0  0  0  0  0  0  0  0  0  0  0
   17.7309   -9.0431    7.4747 C   0  0  0  0  0  0  0  0  0  0  0  0
   18.5337   -8.4183    6.5313 C   0  0  0  0  0  0  0  0  0  0  0  0
   19.3831   -7.4402    6.9651 N   0  0  0  0  0  0  0  0  0  0  0  0
   18.4785   -8.7753    5.1546 N   0  0  0  0  0  0  0  0  0  0  0  0
   16.8110  -10.0127    7.3124 N   0  0  0  0  0  0  0  0  0  0  0  0
   16.3405  -10.2090    8.5773 C   0  0  0  0  0  0  0  0  0  0  0  0
   16.9470   -9.4036    9.4886 N   0  0  0  0  0  0  0  0  0  0  0  0
   17.8624   -9.4817    4.8536 H   0  0  0  0  0  0  0  0  0  0  0  0
   19.0564   -8.3157    4.5033 H   0  0  0  0  0  0  0  0  0  0  0  0
   18.5708  -11.2135   13.0116 C   0  0  0  0  0  0  0  0  0  0  0  0
   19.4636  -11.0445   14.5859 S   0  0  0  0  0  0  0  0  0  0  0  0
   18.0228  -11.6037   15.5422 C   0  0  0  0  0  0  0  0  0  0  0  0
   17.7474  -10.6454   16.6893 C   0  0  0  0  0  0  0  0  0  0  0  0
   18.0082   -9.2032   16.2748 C   0  0  0  0  0  0  0  0  0  0  0  0
   18.8985   -8.5754   17.2349 N   0  0  0  0  0  0  0  0  0  0  0  0
   18.4594   -8.5741   18.1556 H   0  0  0  0  0  0  0  0  0  0  0  0
   19.0867   -7.6152   16.9468 H   0  0  0  0  0  0  0  0  0  0  0  0
   16.7327   -8.4285   16.1857 C   0  0  0  0  0  0  0  0  0  0  0  0
   15.7656   -8.6958   16.9475 O   0  0  0  0  0  0  0  0  0  0  0  0
   16.6150   -7.4031   15.2575 O   0  0  0  0  0  0  0  0  0  0  0  0
   17.3320   -7.2012   14.6891 H   0  0  0  0  0  0  0  0  0  0  0  0
 10 11  2  0  0  0
 11 12  1  0  0  0
 12 13  2  0  0  0
 13 14  1  0  0  0
 13 17  1  0  0  0
 14 15  2  0  0  0
 14 16  1  0  0  0
 15 10  1  0  0  0
 17 18  2  0  0  0
 18 19  1  0  0  0
 19 12  1  0  0  0
  1 19  1  0  0  0
  1  2  1  0  0  0
  2  3  1  0  0  0
  2  7  1  0  0  0
  3  4  1  0  0  0
  3  6  1  0  0  0
  4  5  1  0  0  0
  4 22  1  0  0  0
  5  1  1  0  0  0
 22 23  1  0  0  0
 23 24  1  0  0  0
 24 25  1  0  0  0
 26 25  1  0  0  0
 26 30  1  0  0  0
 26 27  1  0  0  0
 30 31  2  0  0  0
 30 32  1  0  0  0
 16 20  1  0  0  0
 16 21  1  0  0  0
 32 33  1  0  0  0
 27 28  1  0  0  0
 27 29  1  0  0  0
  6  8  1  0  0  0
  7  9  1  0  0  0
M  ISO 1   1  13
M  ISO 1   2  13
M  ISO 1   3  13
M  ISO 1   4  13
M  ISO 1  22  13
M  END
>  <minimizedAffinity>
-5.94747

>  <minimizedRMSD>
2.16336

$$$$
CSSS00133127493 MCULE-8359037226 MolPort-046-146-341 PubChem-136580206 Z990856240


 25 28  0  0  0  0  0  0  0  0999 V2000
   16.7903  -10.4476   14.2859 N   0  0  0  0  0  0  0  0  0  0  0  0
   16.3158   -9.2287   13.6127 C   0  0  0  0  0  0  0  0  0  0  0  0
   16.2570   -9.4631   12.1066 C   0  0  0  0  0  0  0  0  0  0  0  0
   17.5694   -9.9057   11.6449 N   0  0  0  0  0  0  0  0  0  0  0  0
   18.1837  -11.0262   12.3531 C   0  0  0  0  0  0  0  0  0  0  0  0
   18.1595  -10.7428   13.8534 C   0  0  0  0  0  0  0  0  0  0  0  0
   18.2193   -9.2260   10.5537 C   0  0  0  0  0  0  0  0  0  0  0  0
   17.7714   -9.3035    9.2306 C   0  0  0  0  0  0  0  0  0  0  0  0
   16.7246   -9.9721    8.7066 N   0  0  0  0  0  0  0  0  0  0  0  0
   16.7872   -9.6747    7.3780 C   0  0  0  0  0  0  0  0  0  0  0  0
   17.8270   -8.8583    7.0831 N   0  0  0  0  0  0  0  0  0  0  0  0
   18.1910   -8.3381    5.7771 C   0  0  0  0  0  0  0  0  0  0  0  0
   18.4301   -8.6388    8.2537 C   0  0  0  0  0  0  0  0  0  0  0  0
   19.5281   -7.8821    8.4887 N   0  0  0  0  0  0  0  0  0  0  0  0
   19.9784   -7.7964    9.7752 C   0  0  0  0  0  0  0  0  0  0  0  0
   19.3307   -8.4597   10.7856 N   0  0  0  0  0  0  0  0  0  0  0  0
   18.1173  -10.6691   16.4101 C   0  0  0  0  0  0  0  0  0  0  0  0
   16.7888  -10.2918   15.7502 C   0  0  0  0  0  0  0  0  0  0  0  0
   16.3388   -8.9249   16.1800 C   0  0  0  0  0  0  0  0  0  0  0  0
   16.4504   -7.9365   15.4036 O   0  0  0  0  0  0  0  0  0  0  0  0
   15.7641   -8.7561   17.4770 N   0  0  0  0  0  0  0  0  0  0  0  0
   15.6654   -9.5425   18.0610 H   0  0  0  0  0  0  0  0  0  0  0  0
   15.3208   -7.4597   17.9609 C   0  0  0  0  0  0  0  0  0  0  0  0
   13.8144   -7.4763   18.1176 C   0  0  0  0  0  0  0  0  0  0  0  0
   14.7020   -7.6262   19.3336 C   0  0  0  0  0  0  0  0  0  0  0  0
 17 18  1  0  0  0
 18  1  1  0  0  0
  1  2  1  0  0  0
  2  3  1  0  0  0
  3  4  1  0  0  0
  4  5  1  0  0  0
  5  6  1  0  0  0
  4  7  1  0  0  0
  7  8  2  0  0  0
  8  9  1  0  0  0
  9 10  2  0  0  0
 10 11  1  0  0  0
 11 12  1  0  0  0
 11 13  1  0  0  0
 13 14  2  0  0  0
 14 15  1  0  0  0
 15 16  2  0  0  0
 18 19  1  0  0  0
 19 20  2  0  0  0
 19 21  1  0  0  0
 21 23  1  0  0  0
 23 24  1  0  0  0
 24 25  1  0  0  0
  6  1  1  0  0  0
 16  7  1  0  0  0
 25 23  1  0  0  0
 13  8  1  0  0  0
 21 22  1  0  0  0
M  END
>  <minimizedAffinity>
-5.93759

>  <minimizedRMSD>
1.78239

$$$$
CSC028037368 CSSS00028037368 MCULE-1684439438 MolPort-004-503-484 PubChem-16288364 Z45245752


 31 33  0  0  0  0  0  0  0  0999 V2000
   17.4272   -9.4538   14.3706 O   0  0  0  0  0  0  0  0  0  0  0  0
   18.6330  -11.4413   13.7719 C   0  0  0  0  0  0  0  0  0  0  0  0
   17.4338  -10.5613   13.4763 C   0  0  0  0  0  0  0  0  0  0  0  0
   17.4858  -10.0881   12.0592 C   0  0  0  0  0  0  0  0  0  0  0  0
   18.5643   -9.3846   11.6070 N   0  0  0  0  0  0  0  0  0  0  0  0
   18.5748   -8.9576   10.3227 C   0  0  0  0  0  0  0  0  0  0  0  0
   17.5321   -9.2058    9.4509 C   0  0  0  0  0  0  0  0  0  0  0  0
   17.7530   -8.6696    8.1701 C   0  0  0  0  0  0  0  0  0  0  0  0
   16.7981   -8.7830    7.0279 C   0  0  0  0  0  0  0  0  0  0  0  0
   18.9811   -8.0084    8.0797 C   0  0  0  0  0  0  0  0  0  0  0  0
   19.5195   -7.3311    6.8676 C   0  0  0  0  0  0  0  0  0  0  0  0
   19.7885   -8.0828    9.5646 S   0  0  0  0  0  0  0  0  0  0  0  0
   16.4316   -9.9268    9.9283 C   0  0  0  0  0  0  0  0  0  0  0  0
   15.4470  -10.1874    9.1878 O   0  0  0  0  0  0  0  0  0  0  0  0
   16.4362  -10.3499   11.2241 N   0  0  0  0  0  0  0  0  0  0  0  0
   15.6646  -10.8563   11.5667 H   0  0  0  0  0  0  0  0  0  0  0  0
   16.2583   -8.7617   14.7058 C   0  0  0  0  0  0  0  0  0  0  0  0
   15.4673   -8.3732   13.8021 O   0  0  0  0  0  0  0  0  0  0  0  0
   15.9527   -8.4894   16.1190 C   0  0  0  0  0  0  0  0  0  0  0  0
   16.9052   -8.7589   17.1082 C   0  0  0  0  0  0  0  0  0  0  0  0
   16.6199   -8.4998   18.4502 C   0  0  0  0  0  0  0  0  0  0  0  0
   15.3810   -7.9685   18.8205 C   0  0  0  0  0  0  0  0  0  0  0  0
   15.0875   -7.6664   20.5267 Cl  0  0  0  0  0  0  0  0  0  0  0  0
   14.4149   -7.6928   17.8320 C   0  0  0  0  0  0  0  0  0  0  0  0
   14.7112   -7.9567   16.4893 C   0  0  0  0  0  0  0  0  0  0  0  0
   12.8363   -7.0237   18.2377 S   0  0  0  0  0  0  0  0  0  0  0  0
   12.0937   -7.9875   19.4639 N   0  0  0  0  0  0  0  0  0  0  0  0
   11.9551   -7.0215   17.0198 O   0  0  0  0  0  0  0  0  0  0  0  0
   12.9952   -5.6120   18.7270 O   0  0  0  0  0  0  0  0  0  0  0  0
   11.9882   -8.9444   19.1268 H   0  0  0  0  0  0  0  0  0  0  0  0
   11.1761   -7.6033   19.6892 H   0  0  0  0  0  0  0  0  0  0  0  0
  3  2  1  0  0  0
  3  1  1  0  0  0
  3  4  1  0  0  0
  1 17  1  0  0  0
 17 18  2  0  0  0
 17 19  1  0  0  0
 19 20  2  0  0  0
 20 21  1  0  0  0
 21 22  2  0  0  0
 22 23  1  0  0  0
 22 24  1  0  0  0
 24 25  2  0  0  0
 24 26  1  0  0  0
 25 19  1  0  0  0
 26 27  1  0  0  0
 26 28  2  0  0  0
 26 29  2  0  0  0
  4  5  2  0  0  0
  5  6  1  0  0  0
  6  7  2  0  0  0
  7  8  1  0  0  0
  7 13  1  0  0  0
  8  9  1  0  0  0
  8 10  2  0  0  0
 10 11  1  0  0  0
 10 12  1  0  0  0
 12  6  1  0  0  0
 13 14  2  0  0  0
 13 15  1  0  0  0
 15  4  1  0  0  0
 27 30  1  0  0  0
 27 31  1  0  0  0
 15 16  1  0  0  0
M  END
>  <minimizedAffinity>
-5.93607

>  <minimizedRMSD>
2.71892

$$$$
CSC027116287 95455804 CSSS00027116287 MCULE-7550871936 MolPort-028-785-278 PubChem-75439855 Z1571162741 ZINC000095455804 ZINC95455804


 26 29  0  0  0  0  0  0  0  0999 V2000
   17.9095  -10.2446   12.8390 O   0  0  0  0  0  0  0  0  0  0  0  0
   17.0225   -9.5478   13.6622 C   0  0  0  0  0  0  0  0  0  0  0  0
   16.2219   -8.7094   13.1639 O   0  0  0  0  0  0  0  0  0  0  0  0
   17.0324   -9.8009   15.1162 C   0  0  0  0  0  0  0  0  0  0  0  0
   17.7368  -10.9041   15.6373 C   0  0  0  0  0  0  0  0  0  0  0  0
   17.7593  -11.1629   17.0222 C   0  0  0  0  0  0  0  0  0  0  0  0
   17.0704  -10.3102   17.8957 C   0  0  0  0  0  0  0  0  0  0  0  0
   16.4058   -9.2612   17.3537 N   0  0  0  0  0  0  0  0  0  0  0  0
   15.6698   -8.2871   17.9032 C   0  0  0  0  0  0  0  0  0  0  0  0
   15.4495   -8.1703   19.1376 O   0  0  0  0  0  0  0  0  0  0  0  0
   15.1907   -7.4417   16.9672 N   0  0  0  0  0  0  0  0  0  0  0  0
   15.6292   -7.8831   15.7902 N   0  0  0  0  0  0  0  0  0  0  0  0
   16.3644   -8.9870   16.0426 C   0  0  0  0  0  0  0  0  0  0  0  0
   14.6257   -6.6509   17.1244 H   0  0  0  0  0  0  0  0  0  0  0  0
   18.6278   -9.6034   11.7949 C   0  0  0  0  0  0  0  0  0  0  0  0
   14.2828  -10.5323    9.5463 C   0  0  0  0  0  0  0  0  0  0  0  0
   15.6396   -9.9273    9.5137 C   0  0  0  0  0  0  0  0  0  0  0  0
   16.4731  -10.0292   10.6292 C   0  0  0  0  0  0  0  0  0  0  0  0
   17.7467   -9.4561   10.5982 C   0  0  0  0  0  0  0  0  0  0  0  0
   18.1792   -8.7947    9.4347 C   0  0  0  0  0  0  0  0  0  0  0  0
   19.4526   -8.2122    9.3456 C   0  0  0  0  0  0  0  0  0  0  0  0
   19.8481   -7.5611    8.1736 C   0  0  0  0  0  0  0  0  0  0  0  0
   18.9763   -7.4866    7.0836 C   0  0  0  0  0  0  0  0  0  0  0  0
   17.7054   -8.0632    7.1601 C   0  0  0  0  0  0  0  0  0  0  0  0
   17.3016   -8.7167    8.3279 C   0  0  0  0  0  0  0  0  0  0  0  0
   16.0662   -9.2794    8.3972 N   0  0  0  0  0  0  0  0  0  0  0  0
 16 17  1  0  0  0
 17 18  2  0  0  0
 18 19  1  0  0  0
 19 15  1  0  0  0
 19 20  2  0  0  0
 15  1  1  0  0  0
  1  2  1  0  0  0
  2  3  2  0  0  0
  2  4  1  0  0  0
  4  5  2  0  0  0
  5  6  1  0  0  0
  6  7  2  0  0  0
  7  8  1  0  0  0
  8  9  1  0  0  0
  9 10  2  0  0  0
  9 11  1  0  0  0
 11 12  1  0  0  0
 12 13  2  0  0  0
 13  4  1  0  0  0
 13  8  1  0  0  0
 20 21  1  0  0  0
 21 22  2  0  0  0
 22 23  1  0  0  0
 23 24  2  0  0  0
 24 25  1  0  0  0
 25 26  2  0  0  0
 25 20  1  0  0  0
 26 17  1  0  0  0
 11 14  1  0  0  0
M  END
>  <minimizedAffinity>
-5.93049

>  <minimizedRMSD>
1.60507

$$$$
CSC027732454 3233260 CSSS00027732454 MCULE-1462232590 MolPort-004-002-814 PubChem-2351228 Z19092311 ZINC000003233260


 29 32  0  0  0  0  0  0  0  0999 V2000
   18.9287  -11.5762   13.8522 C   0  0  0  0  0  0  0  0  0  0  0  0
   18.1032  -11.6432   15.0927 C   0  0  0  0  0  0  0  0  0  0  0  0
   18.1443  -12.6910   15.7915 O   0  0  0  0  0  0  0  0  0  0  0  0
   17.2261  -10.5229   15.4867 C   0  0  0  0  0  0  0  0  0  0  0  0
   17.0864  -10.1819   16.8404 C   0  0  0  0  0  0  0  0  0  0  0  0
   16.2542   -9.1260   17.2192 C   0  0  0  0  0  0  0  0  0  0  0  0
   15.5560   -8.3959   16.2468 C   0  0  0  0  0  0  0  0  0  0  0  0
   14.7388   -7.3249   16.6282 O   0  0  0  0  0  0  0  0  0  0  0  0
   14.2986   -7.1217   17.9756 C   0  0  0  0  0  0  0  0  0  0  0  0
   15.2605   -7.6954   18.9750 C   0  0  0  0  0  0  0  0  0  0  0  0
   16.1466   -8.7487   18.5911 N   0  0  0  0  0  0  0  0  0  0  0  0
   15.2401   -7.2958   20.1679 O   0  0  0  0  0  0  0  0  0  0  0  0
   15.6991   -8.7230   14.8960 C   0  0  0  0  0  0  0  0  0  0  0  0
   16.5281   -9.7835   14.5181 C   0  0  0  0  0  0  0  0  0  0  0  0
   16.6828   -9.2141   19.2731 H   0  0  0  0  0  0  0  0  0  0  0  0
   18.0768  -11.4518   12.7231 O   0  0  0  0  0  0  0  0  0  0  0  0
   18.9681   -9.4231   12.0708 O   0  0  0  0  0  0  0  0  0  0  0  0
   18.1155  -10.3336   11.8904 C   0  0  0  0  0  0  0  0  0  0  0  0
   17.1299  -10.2069   10.7773 C   0  0  0  0  0  0  0  0  0  0  0  0
   16.9674   -8.7518   10.3562 C   0  0  0  0  0  0  0  0  0  0  0  0
   17.7324   -8.4608    9.1096 C   0  0  0  0  0  0  0  0  0  0  0  0
   19.1714   -7.5705    9.0684 S   0  0  0  0  0  0  0  0  0  0  0  0
   19.3030   -7.7372    7.4043 C   0  0  0  0  0  0  0  0  0  0  0  0
   18.2286   -8.4760    6.9336 C   0  0  0  0  0  0  0  0  0  0  0  0
   18.1051   -8.7556    5.5727 C   0  0  0  0  0  0  0  0  0  0  0  0
   19.0897   -8.2701    4.6958 C   0  0  0  0  0  0  0  0  0  0  0  0
   20.1764   -7.5189    5.1852 C   0  0  0  0  0  0  0  0  0  0  0  0
   20.2924   -7.2453    6.5574 C   0  0  0  0  0  0  0  0  0  0  0  0
   17.3468   -8.8839    7.8808 N   0  0  0  0  0  0  0  0  0  0  0  0
 17 18  2  0  0  0
 18 16  1  0  0  0
 16  1  1  0  0  0
  1  2  1  0  0  0
  2  4  1  0  0  0
  4  5  2  0  0  0
  5  6  1  0  0  0
  6  7  2  0  0  0
  7  8  1  0  0  0
  8  9  1  0  0  0
  9 10  1  0  0  0
 10 11  1  0  0  0
 10 12  2  0  0  0
  7 13  1  0  0  0
 13 14  2  0  0  0
  2  3  2  0  0  0
 18 19  1  0  0  0
 19 20  1  0  0  0
 20 21  1  0  0  0
 21 22  1  0  0  0
 22 23  1  0  0  0
 23 24  2  0  0  0
 24 25  1  0  0  0
 25 26  2  0  0  0
 26 27  1  0  0  0
 27 28  2  0  0  0
 24 29  1  0  0  0
 14  4  1  0  0  0
 29 21  2  0  0  0
 11  6  1  0  0  0
 28 23  1  0  0  0
 11 15  1  0  0  0
M  END
>  <minimizedAffinity>
-5.93044

>  <minimizedRMSD>
2.10106

$$$$
CSC028003148 225487010 CHEMBL4984389 CSSS00028003148 MCULE-2748410405 MolPort-038-971-104 PubChem-100651813 Z1874259388 ZINC000225487010


 24 26  0  0  0  0  0  0  0  0999 V2000
   15.7884   -9.7383   11.7854 C   0  0  0  0  0  0  0  0  0  0  0  0
   16.7205  -10.3218   12.7348 N   0  0  0  0  0  0  0  0  0  0  0  0
   17.3759  -10.9824   12.4135 H   0  0  0  0  0  0  0  0  0  0  0  0
   16.7177   -9.9687   14.1200 C   0  0  0  0  0  0  0  0  0  0  0  0
   16.0874   -8.8371   14.5374 N   0  0  0  0  0  0  0  0  0  0  0  0
   16.0734   -8.4840   15.8483 C   0  0  0  0  0  0  0  0  0  0  0  0
   16.6947   -9.2640   16.7696 N   0  0  0  0  0  0  0  0  0  0  0  0
   17.3374  -10.4031   16.4031 C   0  0  0  0  0  0  0  0  0  0  0  0
   17.9784  -11.1969   17.3967 N   0  0  0  0  0  0  0  0  0  0  0  0
   17.3644  -10.7863   15.0562 C   0  0  0  0  0  0  0  0  0  0  0  0
   18.1903  -12.2582   14.5523 Cl  0  0  0  0  0  0  0  0  0  0  0  0
   17.9535  -10.9185   18.3407 H   0  0  0  0  0  0  0  0  0  0  0  0
   18.4465  -12.0239   17.1395 H   0  0  0  0  0  0  0  0  0  0  0  0
   15.8906  -10.4709   10.4630 C   0  0  0  0  0  0  0  0  0  0  0  0
   16.8414   -7.8103    6.4145 C   0  0  0  0  0  0  0  0  0  0  0  0
   17.0275   -8.4508    7.7053 N   0  0  0  0  0  0  0  0  0  0  0  0
   16.1132   -9.2122    8.2960 N   0  0  0  0  0  0  0  0  0  0  0  0
   16.6284   -9.6329    9.4770 C   0  0  0  0  0  0  0  0  0  0  0  0
   17.8940   -9.1040    9.6280 C   0  0  0  0  0  0  0  0  0  0  0  0
   18.8395   -9.2002   10.6459 C   0  0  0  0  0  0  0  0  0  0  0  0
   20.0516   -8.5076   10.4637 C   0  0  0  0  0  0  0  0  0  0  0  0
   20.2801   -7.7500    9.2917 C   0  0  0  0  0  0  0  0  0  0  0  0
   19.2998   -7.6724    8.2840 C   0  0  0  0  0  0  0  0  0  0  0  0
   18.1118   -8.3713    8.4952 C   0  0  0  0  0  0  0  0  0  0  0  0
 15 16  1  0  0  0
 16 17  1  0  0  0
 17 18  2  0  0  0
 18 14  1  0  0  0
 14  1  1  0  0  0
  1  2  1  0  0  0
  2  4  1  0  0  0
  4  5  2  0  0  0
  5  6  1  0  0  0
  6  7  2  0  0  0
  7  8  1  0  0  0
  8  9  1  0  0  0
  8 10  2  0  0  0
 10 11  1  0  0  0
 18 19  1  0  0  0
 19 20  2  0  0  0
 20 21  1  0  0  0
 21 22  2  0  0  0
 22 23  1  0  0  0
 23 24  2  0  0  0
 24 16  1  0  0  0
 10  4  1  0  0  0
 24 19  1  0  0  0
  2  3  1  0  0  0
  9 12  1  0  0  0
  9 13  1  0  0  0
M  END
>  <minimizedAffinity>
-5.93008

>  <minimizedRMSD>
1.99254

$$$$
CSC102902408 CSSS00102902408 MCULE-4970603646 MolPort-046-501-061 PubChem-138033794 Z2615242645


 26 28  0  0  0  0  0  0  0  0999 V2000
   18.8761   -8.1185    8.0579 N   0  0  0  0  0  0  0  0  0  0  0  0
   19.8307   -7.8186    8.9374 N   0  0  0  0  0  0  0  0  0  0  0  0
   19.4961   -8.3162   10.1584 C   0  0  0  0  0  0  0  0  0  0  0  0
   18.2774   -8.9494   10.0120 C   0  0  0  0  0  0  0  0  0  0  0  0
   17.4440   -9.6325   10.8858 C   0  0  0  0  0  0  0  0  0  0  0  0
   16.2795  -10.1444   10.3824 N   0  0  0  0  0  0  0  0  0  0  0  0
   15.9449   -9.9895    9.0608 C   0  0  0  0  0  0  0  0  0  0  0  0
   16.7741   -9.3143    8.2086 N   0  0  0  0  0  0  0  0  0  0  0  0
   17.9272   -8.8086    8.7116 C   0  0  0  0  0  0  0  0  0  0  0  0
   18.4537   -8.9243    5.7849 C   0  0  0  0  0  0  0  0  0  0  0  0
   18.8908   -7.7456    6.6360 C   0  0  0  0  0  0  0  0  0  0  0  0
   20.2846   -7.3295    6.1930 C   0  0  0  0  0  0  0  0  0  0  0  0
   17.9480   -6.5804    6.3944 C   0  0  0  0  0  0  0  0  0  0  0  0
   17.7931   -9.7934   12.2611 N   0  0  0  0  0  0  0  0  0  0  0  0
   18.5863   -9.3261   12.6099 H   0  0  0  0  0  0  0  0  0  0  0  0
   17.0133  -10.6259   13.1615 C   0  0  0  0  0  0  0  0  0  0  0  0
   17.1196  -10.0964   14.5466 C   0  0  0  0  0  0  0  0  0  0  0  0
   16.1533   -9.3746   15.1468 N   0  0  0  0  0  0  0  0  0  0  0  0
   16.5278   -8.9656   16.3910 C   0  0  0  0  0  0  0  0  0  0  0  0
   17.8097   -9.3458   16.7967 C   0  0  0  0  0  0  0  0  0  0  0  0
   18.4726  -10.2286   15.5240 S   0  0  0  0  0  0  0  0  0  0  0  0
   15.6327   -8.1684   17.2401 C   0  0  0  0  0  0  0  0  0  0  0  0
   15.8519   -8.0879   18.6452 N   0  0  0  0  0  0  0  0  0  0  0  0
   14.6628   -7.5496   16.7283 O   0  0  0  0  0  0  0  0  0  0  0  0
   16.6077   -8.5685   19.0538 H   0  0  0  0  0  0  0  0  0  0  0  0
   15.2476   -7.5517   19.2078 H   0  0  0  0  0  0  0  0  0  0  0  0
 10 11  1  0  0  0
 11 12  1  0  0  0
 11 13  1  0  0  0
 11  1  1  0  0  0
  1  2  1  0  0  0
  2  3  2  0  0  0
  3  4  1  0  0  0
  4  5  2  0  0  0
  5 14  1  0  0  0
 14 16  1  0  0  0
 16 17  1  0  0  0
 17 18  2  0  0  0
 18 19  1  0  0  0
 19 20  2  0  0  0
 20 21  1  0  0  0
 19 22  1  0  0  0
 22 23  1  0  0  0
 22 24  2  0  0  0
  5  6  1  0  0  0
  6  7  2  0  0  0
  7  8  1  0  0  0
  8  9  2  0  0  0
  9  1  1  0  0  0
  9  4  1  0  0  0
 21 17  1  0  0  0
 14 15  1  0  0  0
 23 25  1  0  0  0
 23 26  1  0  0  0
M  END
>  <minimizedAffinity>
-5.92655

>  <minimizedRMSD>
0.90830

$$$$
CSC026126040 170612320 CSSS00026126040 MCULE-6295053017 MolPort-035-850-038 PubChem-99796070 Z1855611504 ZINC000170612320


 26 28  0  0  0  0  0  0  0  0999 V2000
   16.7021   -9.4309   12.5797 N   0  0  0  0  0  0  0  0  0  0  0  0
   15.8033   -9.2744   12.2096 H   0  0  0  0  0  0  0  0  0  0  0  0
   16.8323   -9.6589   13.9843 C   0  0  0  0  0  0  0  0  0  0  0  0
   17.7421  -10.6011   14.4876 C   0  0  0  0  0  0  0  0  0  0  0  0
   17.8521  -10.8058   15.8658 C   0  0  0  0  0  0  0  0  0  0  0  0
   17.0551  -10.0699   16.7469 C   0  0  0  0  0  0  0  0  0  0  0  0
   16.1486   -9.1265   16.2517 C   0  0  0  0  0  0  0  0  0  0  0  0
   16.0378   -8.9255   14.8713 C   0  0  0  0  0  0  0  0  0  0  0  0
   15.1409   -8.2103   17.3567 S   0  0  0  0  0  0  0  0  0  0  0  0
   16.0494   -7.7941   18.7663 N   0  0  0  0  0  0  0  0  0  0  0  0
   14.6763   -6.9467   16.6889 O   0  0  0  0  0  0  0  0  0  0  0  0
   13.9500   -9.0358   17.7538 O   0  0  0  0  0  0  0  0  0  0  0  0
   16.8578   -7.2337   18.4965 H   0  0  0  0  0  0  0  0  0  0  0  0
   16.3655   -8.6454   19.2307 H   0  0  0  0  0  0  0  0  0  0  0  0
   17.8395   -9.4197   11.6726 C   0  0  0  0  0  0  0  0  0  0  0  0
   18.8104   -7.9447    5.2163 C   0  0  0  0  0  0  0  0  0  0  0  0
   18.5035   -8.3418    6.6149 C   0  0  0  0  0  0  0  0  0  0  0  0
   17.3927   -9.0881    6.8796 N   0  0  0  0  0  0  0  0  0  0  0  0
   17.1275   -9.4425    8.1612 C   0  0  0  0  0  0  0  0  0  0  0  0
   16.0624  -10.1677    8.5518 N   0  0  0  0  0  0  0  0  0  0  0  0
   16.2053  -10.2624    9.8972 C   0  0  0  0  0  0  0  0  0  0  0  0
   17.3628   -9.5954   10.2708 C   0  0  0  0  0  0  0  0  0  0  0  0
   17.9321   -9.0742    9.1683 N   0  0  0  0  0  0  0  0  0  0  0  0
   19.0544   -8.3281    8.9678 C   0  0  0  0  0  0  0  0  0  0  0  0
   19.9543   -7.9206   10.0842 C   0  0  0  0  0  0  0  0  0  0  0  0
   19.3609   -7.9444    7.6567 C   0  0  0  0  0  0  0  0  0  0  0  0
 16 17  1  0  0  0
 17 18  2  0  0  0
 18 19  1  0  0  0
 19 20  2  0  0  0
 20 21  1  0  0  0
 21 22  2  0  0  0
 22 15  1  0  0  0
 15  1  1  0  0  0
  1  3  1  0  0  0
  3  4  2  0  0  0
  4  5  1  0  0  0
  5  6  2  0  0  0
  6  7  1  0  0  0
  7  8  2  0  0  0
  7  9  1  0  0  0
  9 10  1  0  0  0
  9 11  2  0  0  0
  9 12  2  0  0  0
 22 23  1  0  0  0
 23 24  1  0  0  0
 24 25  1  0  0  0
 24 26  2  0  0  0
 26 17  1  0  0  0
 23 19  1  0  0  0
  8  3  1  0  0  0
  1  2  1  0  0  0
 10 13  1  0  0  0
 10 14  1  0  0  0
M  END
>  <minimizedAffinity>
-5.89519

>  <minimizedRMSD>
0.91643

$$$$
CSC026553499 24658660 CHEMBL2113973 CSSS00026553499 MCULE-5014528181 MolPort-009-539-442 PubChem-31981178 Z367550756 ZINC000024658660


 24 26  0  0  0  0  0  0  0  0999 V2000
   17.1160   -9.0380   15.9328 C   0  0  0  0  0  0  0  0  0  0  0  0
   17.0230   -9.5971   14.6533 C   0  0  0  0  0  0  0  0  0  0  0  0
   18.1738  -10.0503   13.9998 C   0  0  0  0  0  0  0  0  0  0  0  0
   19.4213   -9.9343   14.6222 C   0  0  0  0  0  0  0  0  0  0  0  0
   19.5158   -9.3788   15.9017 C   0  0  0  0  0  0  0  0  0  0  0  0
   18.3641   -8.9330   16.5570 C   0  0  0  0  0  0  0  0  0  0  0  0
   16.0535   -8.0627   18.3880 N   0  0  0  0  0  0  0  0  0  0  0  0
   15.6704   -8.4838   16.7566 S   0  0  0  0  0  0  0  0  0  0  0  0
   14.6378   -9.5749   16.7501 O   0  0  0  0  0  0  0  0  0  0  0  0
   15.1238   -7.2703   16.0586 O   0  0  0  0  0  0  0  0  0  0  0  0
   16.4257   -8.8800   18.8717 H   0  0  0  0  0  0  0  0  0  0  0  0
   15.2102   -7.7413   18.8633 H   0  0  0  0  0  0  0  0  0  0  0  0
   18.0758  -10.6188   12.6288 C   0  0  0  0  0  0  0  0  0  0  0  0
   18.3171   -9.5742   11.6469 N   0  0  0  0  0  0  0  0  0  0  0  0
   18.9825   -8.8767   11.8467 H   0  0  0  0  0  0  0  0  0  0  0  0
   17.6194   -9.5280   10.4016 C   0  0  0  0  0  0  0  0  0  0  0  0
   18.1118   -8.7842    9.3370 C   0  0  0  0  0  0  0  0  0  0  0  0
   17.4317   -8.7464    8.1423 C   0  0  0  0  0  0  0  0  0  0  0  0
   18.0372   -7.9615    7.1583 C   0  0  0  0  0  0  0  0  0  0  0  0
   19.2254   -7.3710    7.6038 C   0  0  0  0  0  0  0  0  0  0  0  0
   19.4898   -7.8428    9.2120 S   0  0  0  0  0  0  0  0  0  0  0  0
   16.2725   -9.4337    7.9860 N   0  0  0  0  0  0  0  0  0  0  0  0
   15.7826  -10.1670    9.0284 C   0  0  0  0  0  0  0  0  0  0  0  0
   16.4515  -10.2109   10.2207 N   0  0  0  0  0  0  0  0  0  0  0  0
  7  8  1  0  0  0
  8  1  1  0  0  0
  1  2  2  0  0  0
  2  3  1  0  0  0
  3 13  1  0  0  0
 13 14  1  0  0  0
 14 16  1  0  0  0
 16 17  1  0  0  0
 17 18  2  0  0  0
 18 19  1  0  0  0
 19 20  2  0  0  0
 20 21  1  0  0  0
 18 22  1  0  0  0
 22 23  2  0  0  0
 23 24  1  0  0  0
  3  4  2  0  0  0
  4  5  1  0  0  0
  5  6  2  0  0  0
  8  9  2  0  0  0
  8 10  2  0  0  0
  6  1  1  0  0  0
 24 16  2  0  0  0
 21 17  1  0  0  0
  7 11  1  0  0  0
  7 12  1  0  0  0
 14 15  1  0  0  0
M  END
>  <minimizedAffinity>
-5.89262

>  <minimizedRMSD>
1.26908

$$$$
CSC090436504 CSSS00090436504


 28 29  0  0  0  0  0  0  0  0999 V2000
   16.5696  -10.0023   12.0329 N   0  0  0  0  0  0  0  0  0  0  0  0
   15.9136  -10.0340   10.7634 C   0  0  0  0  0  0  0  0  0  0  0  0
   14.7046  -10.3907   10.6988 O   0  0  0  0  0  0  0  0  0  0  0  0
   17.5141   -9.7275   12.0733 H   0  0  0  0  0  0  0  0  0  0  0  0
   16.6326   -9.6547    9.5226 C   0  0  0  0  0  0  0  0  0  0  0  0
   16.2177  -10.2199    8.3074 C   0  0  0  0  0  0  0  0  0  0  0  0
   16.8404   -9.9078    7.1411 N   0  0  0  0  0  0  0  0  0  0  0  0
   17.8837   -9.0414    7.1021 C   0  0  0  0  0  0  0  0  0  0  0  0
   18.4996   -8.7447    5.8828 C   0  0  0  0  0  0  0  0  0  0  0  0
   19.5746   -7.8520    5.8404 C   0  0  0  0  0  0  0  0  0  0  0  0
   20.0367   -7.2538    7.0165 C   0  0  0  0  0  0  0  0  0  0  0  0
   19.4254   -7.5462    8.2394 C   0  0  0  0  0  0  0  0  0  0  0  0
   18.3468   -8.4400    8.2924 C   0  0  0  0  0  0  0  0  0  0  0  0
   17.7170   -8.7488    9.5078 C   0  0  0  0  0  0  0  0  0  0  0  0
   18.1716   -8.1557   10.6830 O   0  0  0  0  0  0  0  0  0  0  0  0
   18.8918   -7.5569   10.6574 H   0  0  0  0  0  0  0  0  0  0  0  0
   15.8898  -10.3621   13.2662 C   0  0  0  0  0  0  0  0  0  0  0  0
   16.1672  -10.0379   15.7503 N   0  0  0  0  0  0  0  0  0  0  0  0
   16.5859   -9.7319   14.4185 C   0  0  0  0  0  0  0  0  0  0  0  0
   17.5202   -8.9127   14.2105 O   0  0  0  0  0  0  0  0  0  0  0  0
   15.4484  -10.6983   15.8781 H   0  0  0  0  0  0  0  0  0  0  0  0
   18.1681   -8.9382   16.6181 C   0  0  0  0  0  0  0  0  0  0  0  0
   16.7583   -9.4145   16.9267 C   0  0  0  0  0  0  0  0  0  0  0  0
   15.9133   -8.2682   17.3726 C   0  0  0  0  0  0  0  0  0  0  0  0
   15.8414   -7.9434   18.7556 N   0  0  0  0  0  0  0  0  0  0  0  0
   15.2593   -7.5898   16.5362 O   0  0  0  0  0  0  0  0  0  0  0  0
   16.3509   -8.4710   19.4123 H   0  0  0  0  0  0  0  0  0  0  0  0
   15.2822   -7.1909   19.0561 H   0  0  0  0  0  0  0  0  0  0  0  0
 22 23  1  0  0  0
 23 18  1  0  0  0
 18 19  1  0  0  0
 19 20  2  0  0  0
 19 17  1  0  0  0
 17  1  1  0  0  0
  1  2  1  0  0  0
  2  3  2  0  0  0
  2  5  1  0  0  0
  5  6  2  0  0  0
  6  7  1  0  0  0
  7  8  2  0  0  0
  8  9  1  0  0  0
  9 10  2  0  0  0
 10 11  1  0  0  0
 11 12  2  0  0  0
 12 13  1  0  0  0
 13 14  2  0  0  0
 14 15  1  0  0  0
 23 24  1  0  0  0
 24 25  1  0  0  0
 24 26  2  0  0  0
 14  5  1  0  0  0
 13  8  1  0  0  0
 18 21  1  0  0  0
  1  4  1  0  0  0
 15 16  1  0  0  0
 25 27  1  0  0  0
 25 28  1  0  0  0
M  END
>  <minimizedAffinity>
-5.89227

>  <minimizedRMSD>
1.34476

$$$$
CSC100012898 641660406 CSSS00100012898 MCULE-3686685542 MolPort-046-919-051 PubChem-146108964 Z2851819030


 25 27  0  0  0  0  0  0  0  0999 V2000
   18.2216   -9.9528   12.1823 N   0  0  0  0  0  0  0  0  0  0  0  0
   19.0367   -9.4066   12.1019 H   0  0  0  0  0  0  0  0  0  0  0  0
   18.6108   -8.2984    8.1858 C   0  0  0  0  0  0  0  0  0  0  0  0
   18.7134   -8.7791    9.4919 C   0  0  0  0  0  0  0  0  0  0  0  0
   17.4822   -9.2614    9.9485 C   0  0  0  0  0  0  0  0  0  0  0  0
   17.1982   -9.8175   11.1945 C   0  0  0  0  0  0  0  0  0  0  0  0
   15.9208  -10.2295   11.4486 N   0  0  0  0  0  0  0  0  0  0  0  0
   14.9307  -10.1063   10.5138 C   0  0  0  0  0  0  0  0  0  0  0  0
   13.5540  -10.5670   10.8308 C   0  0  0  0  0  0  0  0  0  0  0  0
   15.1995   -9.5629    9.2927 N   0  0  0  0  0  0  0  0  0  0  0  0
   16.4619   -9.1510    9.0276 C   0  0  0  0  0  0  0  0  0  0  0  0
   17.0228   -8.4562    7.6106 S   0  0  0  0  0  0  0  0  0  0  0  0
   19.4650   -7.7745    5.9321 C   0  0  0  0  0  0  0  0  0  0  0  0
   19.7390   -7.6977    7.4214 C   0  0  0  0  0  0  0  0  0  0  0  0
   18.0979  -10.8711   13.3020 C   0  0  0  0  0  0  0  0  0  0  0  0
   18.0066  -10.1002   14.5698 C   0  0  0  0  0  0  0  0  0  0  0  0
   16.8548   -9.6034   15.0609 N   0  0  0  0  0  0  0  0  0  0  0  0
   17.0591   -8.8901   16.2033 C   0  0  0  0  0  0  0  0  0  0  0  0
   18.3853   -8.7963   16.6335 C   0  0  0  0  0  0  0  0  0  0  0  0
   19.3126   -9.6521   15.5171 S   0  0  0  0  0  0  0  0  0  0  0  0
   15.9465   -8.2578   16.9244 C   0  0  0  0  0  0  0  0  0  0  0  0
   15.9159   -8.2575   18.3484 N   0  0  0  0  0  0  0  0  0  0  0  0
   15.0102   -7.7105   16.2848 O   0  0  0  0  0  0  0  0  0  0  0  0
   16.6438   -8.6832   18.8565 H   0  0  0  0  0  0  0  0  0  0  0  0
   15.1668   -7.8317   18.8246 H   0  0  0  0  0  0  0  0  0  0  0  0
 13 14  1  0  0  0
 14  3  1  0  0  0
  3  4  2  0  0  0
  4  5  1  0  0  0
  5  6  2  0  0  0
  6  1  1  0  0  0
  1 15  1  0  0  0
 15 16  1  0  0  0
 16 17  2  0  0  0
 17 18  1  0  0  0
 18 19  2  0  0  0
 19 20  1  0  0  0
 18 21  1  0  0  0
 21 22  1  0  0  0
 21 23  2  0  0  0
  6  7  1  0  0  0
  7  8  2  0  0  0
  8  9  1  0  0  0
  8 10  1  0  0  0
 10 11  2  0  0  0
 11 12  1  0  0  0
 12  3  1  0  0  0
 11  5  1  0  0  0
 20 16  1  0  0  0
  1  2  1  0  0  0
 22 24  1  0  0  0
 22 25  1  0  0  0
M  END
>  <minimizedAffinity>
-5.89096

>  <minimizedRMSD>
1.82709

$$$$
CSC066739097 CSSS00066739097 MCULE-3185454881 MolPort-044-872-281 PubChem-132369234 Z2636886388


 25 27  0  0  0  0  0  0  0  0999 V2000
   17.1156   -8.0574   15.6518 C   0  0  0  0  0  0  0  0  0  0  0  0
   18.5733   -8.3864   15.2756 C   0  0  0  0  0  0  0  0  0  0  0  0
   18.6649   -9.7442   14.5840 C   0  0  0  0  0  0  0  0  0  0  0  0
   17.7659   -9.7622   13.4350 N   0  0  0  0  0  0  0  0  0  0  0  0
   16.3587   -9.4614   13.6805 C   0  0  0  0  0  0  0  0  0  0  0  0
   16.2399   -8.1101   14.3848 C   0  0  0  0  0  0  0  0  0  0  0  0
   18.2490  -10.1795   12.1452 C   0  0  0  0  0  0  0  0  0  0  0  0
   19.3563  -10.7798   12.0714 O   0  0  0  0  0  0  0  0  0  0  0  0
   17.4915   -9.9053   10.8981 C   0  0  0  0  0  0  0  0  0  0  0  0
   17.9824   -9.0656    9.8926 C   0  0  0  0  0  0  0  0  0  0  0  0
   19.1639   -8.3697    9.7606 C   0  0  0  0  0  0  0  0  0  0  0  0
   19.0455   -7.7316    8.5229 C   0  0  0  0  0  0  0  0  0  0  0  0
   17.8640   -8.0142    7.9194 N   0  0  0  0  0  0  0  0  0  0  0  0
   17.2402   -8.8298    8.7791 C   0  0  0  0  0  0  0  0  0  0  0  0
   16.0161   -9.3800    8.5984 N   0  0  0  0  0  0  0  0  0  0  0  0
   15.5211  -10.1959    9.5740 C   0  0  0  0  0  0  0  0  0  0  0  0
   16.2516  -10.4481   10.7042 N   0  0  0  0  0  0  0  0  0  0  0  0
   17.5390   -7.6927    7.0475 H   0  0  0  0  0  0  0  0  0  0  0  0
   16.6087   -8.9510   16.7069 N   0  0  0  0  0  0  0  0  0  0  0  0
   15.3462   -8.4095   17.1953 C   0  0  0  0  0  0  0  0  0  0  0  0
   16.2691  -10.2382   16.1031 C   0  0  0  0  0  0  0  0  0  0  0  0
   17.9471  -12.0666   15.7215 C   0  0  0  0  0  0  0  0  0  0  0  0
   17.0577  -11.3796   16.7401 C   0  0  0  0  0  0  0  0  0  0  0  0
   17.8278  -10.9110   17.8051 O   0  0  0  0  0  0  0  0  0  0  0  0
   18.4702  -10.2617   17.4785 H   0  0  0  0  0  0  0  0  0  0  0  0
 22 23  1  0  0  0
 23 24  1  0  0  0
 23 21  1  0  0  0
 21 19  1  0  0  0
 19 20  1  0  0  0
 19  1  1  0  0  0
  1  2  1  0  0  0
  2  3  1  0  0  0
  3  4  1  0  0  0
  4  5  1  0  0  0
  5  6  1  0  0  0
  4  7  1  0  0  0
  7  8  2  0  0  0
  7  9  1  0  0  0
  9 10  2  0  0  0
 10 11  1  0  0  0
 11 12  2  0  0  0
 12 13  1  0  0  0
 13 14  1  0  0  0
 14 15  2  0  0  0
 15 16  1  0  0  0
 16 17  2  0  0  0
  6  1  1  0  0  0
 17  9  1  0  0  0
 14 10  1  0  0  0
 24 25  1  0  0  0
 13 18  1  0  0  0
M  END
>  <minimizedAffinity>
-5.89087

>  <minimizedRMSD>
2.59260

$$$$
2325898529 CSSS03636351442 PubChem-166434588 Z5016192263


 28 30  0  0  0  0  0  0  0  0999 V2000
   16.7172  -10.2920   12.0529 N   0  0  0  0  0  0  0  0  0  0  0  0
   15.6956  -10.3973   11.0531 C   0  0  0  0  0  0  0  0  0  0  0  0
   14.5085  -10.0504   11.2909 O   0  0  0  0  0  0  0  0  0  0  0  0
   17.6200  -10.5877   11.7947 H   0  0  0  0  0  0  0  0  0  0  0  0
   16.2995   -8.9390   16.0209 C   0  0  0  0  0  0  0  0  0  0  0  0
   16.7512  -10.1925   15.7423 N   0  0  0  0  0  0  0  0  0  0  0  0
   16.8872  -10.6337   14.4628 C   0  0  0  0  0  0  0  0  0  0  0  0
   16.5594   -9.8003   13.3903 C   0  0  0  0  0  0  0  0  0  0  0  0
   16.0888   -8.5091   13.6610 C   0  0  0  0  0  0  0  0  0  0  0  0
   15.9557   -8.0740   14.9801 C   0  0  0  0  0  0  0  0  0  0  0  0
   16.1593   -8.4867   17.4363 C   0  0  0  0  0  0  0  0  0  0  0  0
   14.7955   -7.8547   17.6829 C   0  0  0  0  0  0  0  0  0  0  0  0
   15.8077   -6.8215   21.2767 C   0  0  0  0  0  0  0  0  0  0  0  0
   15.8553   -7.3011   19.9059 N   0  0  0  0  0  0  0  0  0  0  0  0
   14.6938   -7.3341   19.0765 C   0  0  0  0  0  0  0  0  0  0  0  0
   13.5778   -6.9512   19.5192 O   0  0  0  0  0  0  0  0  0  0  0  0
   16.7139   -7.6124   19.5383 H   0  0  0  0  0  0  0  0  0  0  0  0
   16.0549  -10.8882    9.6940 C   0  0  0  0  0  0  0  0  0  0  0  0
   16.7746   -9.8540    8.9669 N   0  0  0  0  0  0  0  0  0  0  0  0
   16.3422   -9.2862    7.8452 N   0  0  0  0  0  0  0  0  0  0  0  0
   17.2403   -8.3319    7.4925 C   0  0  0  0  0  0  0  0  0  0  0  0
   17.1123   -7.4633    6.2911 C   0  0  0  0  0  0  0  0  0  0  0  0
   18.2532   -8.2989    8.4286 C   0  0  0  0  0  0  0  0  0  0  0  0
   17.9225   -9.2617    9.3315 C   0  0  0  0  0  0  0  0  0  0  0  0
   18.6761   -9.5248   10.4282 N   0  0  0  0  0  0  0  0  0  0  0  0
   19.8157   -8.7942   10.6263 C   0  0  0  0  0  0  0  0  0  0  0  0
   20.1953   -7.7854    9.7084 C   0  0  0  0  0  0  0  0  0  0  0  0
   19.3973   -7.5237    8.5784 C   0  0  0  0  0  0  0  0  0  0  0  0
 13 14  1  0  0  0
 14 15  1  0  0  0
 15 16  2  0  0  0
 15 12  1  0  0  0
 12 11  1  0  0  0
 11  5  1  0  0  0
  5  6  2  0  0  0
  6  7  1  0  0  0
  7  8  2  0  0  0
  8  1  1  0  0  0
  1  2  1  0  0  0
  2  3  2  0  0  0
  2 18  1  0  0  0
 18 19  1  0  0  0
 19 20  1  0  0  0
 20 21  2  0  0  0
 21 22  1  0  0  0
 21 23  1  0  0  0
 23 24  2  0  0  0
 24 25  1  0  0  0
 25 26  2  0  0  0
 26 27  1  0  0  0
 27 28  2  0  0  0
  8  9  1  0  0  0
  9 10  2  0  0  0
 10  5  1  0  0  0
 24 19  1  0  0  0
 28 23  1  0  0  0
 14 17  1  0  0  0
  1  4  1  0  0  0
M  END
>  <minimizedAffinity>
-5.87368

>  <minimizedRMSD>
2.16357

$$$$
CSC026453613 14094007 CSSS00026453613 MCULE-8763981886 MolPort-005-777-733 PubChem-16314751 Z33255878 ZINC000014094007 ZINC14094007


 36 39  0  0  0  0  0  0  0  0999 V2000
   17.2905   -9.1871   16.1973 C   0  0  0  0  0  0  0  0  0  0  0  0
   17.4377   -8.4638   17.3928 C   0  0  0  0  0  0  0  0  0  0  0  0
   16.3178   -7.9693   18.0638 C   0  0  0  0  0  0  0  0  0  0  0  0
   15.0397   -8.1910   17.5473 C   0  0  0  0  0  0  0  0  0  0  0  0
   14.8868   -8.9111   16.3596 C   0  0  0  0  0  0  0  0  0  0  0  0
   16.0049   -9.4134   15.6771 C   0  0  0  0  0  0  0  0  0  0  0  0
   15.8658  -10.1528   14.4544 N   0  0  0  0  0  0  0  0  0  0  0  0
   15.6710   -9.6145   13.1403 C   0  0  0  0  0  0  0  0  0  0  0  0
   15.5962   -8.3724   12.9459 O   0  0  0  0  0  0  0  0  0  0  0  0
   15.9087  -11.1337   14.5261 H   0  0  0  0  0  0  0  0  0  0  0  0
   15.5940  -10.5426   11.9761 C   0  0  0  0  0  0  0  0  0  0  0  0
   16.2362   -9.9460   10.8101 N   0  0  0  0  0  0  0  0  0  0  0  0
   15.5306   -9.8796    9.6476 C   0  0  0  0  0  0  0  0  0  0  0  0
   16.0771   -9.3195    8.5377 N   0  0  0  0  0  0  0  0  0  0  0  0
   17.3345   -8.8125    8.5609 C   0  0  0  0  0  0  0  0  0  0  0  0
   17.8804   -8.2382    7.4092 C   0  0  0  0  0  0  0  0  0  0  0  0
   19.1770   -7.7154    7.4356 C   0  0  0  0  0  0  0  0  0  0  0  0
   19.9307   -7.7654    8.6125 C   0  0  0  0  0  0  0  0  0  0  0  0
   19.3905   -8.3386    9.7679 C   0  0  0  0  0  0  0  0  0  0  0  0
   18.0908   -8.8650    9.7488 C   0  0  0  0  0  0  0  0  0  0  0  0
   17.5087   -9.4485   10.8830 C   0  0  0  0  0  0  0  0  0  0  0  0
   18.1575   -9.5146   11.9649 O   0  0  0  0  0  0  0  0  0  0  0  0
   13.6358   -7.5709   18.3953 S   0  0  0  0  0  0  0  0  0  0  0  0
   13.4947   -6.1023   18.1093 O   0  0  0  0  0  0  0  0  0  0  0  0
   12.4036   -8.2941   17.9276 O   0  0  0  0  0  0  0  0  0  0  0  0
   13.8461   -7.8279   20.0959 N   0  0  0  0  0  0  0  0  0  0  0  0
   14.1617   -8.7107   20.3964 H   0  0  0  0  0  0  0  0  0  0  0  0
   13.5870   -6.8295   21.0893 C   0  0  0  0  0  0  0  0  0  0  0  0
   12.2765   -6.4055   21.3581 C   0  0  0  0  0  0  0  0  0  0  0  0
   12.0329   -5.4308   22.3289 C   0  0  0  0  0  0  0  0  0  0  0  0
   13.0978   -4.8720   23.0390 C   0  0  0  0  0  0  0  0  0  0  0  0
   14.4057   -5.2878   22.7780 C   0  0  0  0  0  0  0  0  0  0  0  0
   14.6544   -6.2632   21.8069 C   0  0  0  0  0  0  0  0  0  0  0  0
   16.3122   -6.7573   21.5072 Cl  0  0  0  0  0  0  0  0  0  0  0  0
   19.7186   -9.1835   15.7098 C   0  0  0  0  0  0  0  0  0  0  0  0
   18.4044   -9.6871   15.5132 O   0  0  0  0  0  0  0  0  0  0  0  0
 35 36  1  0  0  0
 36  1  1  0  0  0
  1  2  2  0  0  0
  2  3  1  0  0  0
  3  4  2  0  0  0
  4  5  1  0  0  0
  4 23  1  0  0  0
  5  6  2  0  0  0
  6  7  1  0  0  0
  6  1  1  0  0  0
  7  8  1  0  0  0
  8  9  2  0  0  0
  8 11  1  0  0  0
 11 12  1  0  0  0
 12 13  1  0  0  0
 13 14  2  0  0  0
 14 15  1  0  0  0
 15 16  2  0  0  0
 16 17  1  0  0  0
 17 18  2  0  0  0
 18 19  1  0  0  0
 19 20  2  0  0  0
 20 21  1  0  0  0
 20 15  1  0  0  0
 21 22  2  0  0  0
 21 12  1  0  0  0
 23 24  2  0  0  0
 23 25  2  0  0  0
 23 26  1  0  0  0
 26 28  1  0  0  0
 28 29  2  0  0  0
 29 30  1  0  0  0
 30 31  2  0  0  0
 31 32  1  0  0  0
 32 33  2  0  0  0
 33 34  1  0  0  0
 33 28  1  0  0  0
  7 10  1  0  0  0
 26 27  1  0  0  0
M  END
>  <minimizedAffinity>
-5.87105

>  <minimizedRMSD>
2.48905

$$$$
CSC027538954 CSSS00027538954 MCULE-5218289198 MolPort-029-934-253 PubChem-75520978 Z1661110260


 26 28  0  0  0  0  0  0  0  0999 V2000
   18.4142   -8.3624    8.5690 N   0  0  0  0  0  0  0  0  0  0  0  0
   17.7110   -9.0923    9.4577 C   0  0  0  0  0  0  0  0  0  0  0  0
   18.4697   -9.3293   10.5562 C   0  0  0  0  0  0  0  0  0  0  0  0
   17.9571  -10.0658   11.6146 C   0  0  0  0  0  0  0  0  0  0  0  0
   16.6765  -10.5318   11.5003 N   0  0  0  0  0  0  0  0  0  0  0  0
   15.9241  -10.2821   10.3817 C   0  0  0  0  0  0  0  0  0  0  0  0
   16.4409   -9.5552    9.3457 N   0  0  0  0  0  0  0  0  0  0  0  0
   19.6865   -8.7203   10.3314 C   0  0  0  0  0  0  0  0  0  0  0  0
   19.6134   -8.1394    9.1049 N   0  0  0  0  0  0  0  0  0  0  0  0
   16.5544   -7.4981    7.2438 C   0  0  0  0  0  0  0  0  0  0  0  0
   18.0283   -7.8581    7.2397 C   0  0  0  0  0  0  0  0  0  0  0  0
   18.2633   -8.8695    6.1292 C   0  0  0  0  0  0  0  0  0  0  0  0
   18.8319   -6.6119    6.9187 C   0  0  0  0  0  0  0  0  0  0  0  0
   18.7472  -10.3240   12.7821 N   0  0  0  0  0  0  0  0  0  0  0  0
   19.6608  -10.6660   12.6494 H   0  0  0  0  0  0  0  0  0  0  0  0
   18.2939  -10.1161   14.1539 C   0  0  0  0  0  0  0  0  0  0  0  0
   16.8865   -9.5192   14.1772 C   0  0  0  0  0  0  0  0  0  0  0  0
   16.4263   -9.4147   15.5586 N   0  0  0  0  0  0  0  0  0  0  0  0
   15.9828   -8.1610   16.0929 C   0  0  0  0  0  0  0  0  0  0  0  0
   15.5529   -8.0663   17.4480 N   0  0  0  0  0  0  0  0  0  0  0  0
   15.9689   -7.1303   15.3684 O   0  0  0  0  0  0  0  0  0  0  0  0
   16.4653  -10.6127   16.3920 C   0  0  0  0  0  0  0  0  0  0  0  0
   17.8779  -11.1911   16.3856 C   0  0  0  0  0  0  0  0  0  0  0  0
   18.3466  -11.4223   14.9504 C   0  0  0  0  0  0  0  0  0  0  0  0
   15.5595   -8.8651   18.0235 H   0  0  0  0  0  0  0  0  0  0  0  0
   15.2493   -7.2022   17.8089 H   0  0  0  0  0  0  0  0  0  0  0  0
 10 11  1  0  0  0
 11  1  1  0  0  0
  1  2  1  0  0  0
  2  3  2  0  0  0
  3  4  1  0  0  0
  4  5  2  0  0  0
  5  6  1  0  0  0
  6  7  2  0  0  0
  4 14  1  0  0  0
 14 16  1  0  0  0
 16 17  1  0  0  0
 17 18  1  0  0  0
 18 19  1  0  0  0
 19 20  1  0  0  0
 19 21  2  0  0  0
 18 22  1  0  0  0
 22 23  1  0  0  0
 23 24  1  0  0  0
  3  8  1  0  0  0
  8  9  2  0  0  0
 11 12  1  0  0  0
 11 13  1  0  0  0
  9  1  1  0  0  0
  7  2  1  0  0  0
 24 16  1  0  0  0
 14 15  1  0  0  0
 20 25  1  0  0  0
 20 26  1  0  0  0
M  END
>  <minimizedAffinity>
-5.86040

>  <minimizedRMSD>
1.45598

$$$$
CSC025889951 5936545 CSSS00025889951 MCULE-4473805055 MolPort-004-083-440 PubChem-4781020 Z16519600 ZINC000005936545


 27 30  0  0  0  0  0  0  0  0999 V2000
   18.0569  -10.8482   13.0863 C   0  0  0  0  0  0  0  0  0  0  0  0
   18.6378  -10.3081   14.3503 C   0  0  0  0  0  0  0  0  0  0  0  0
   19.8858  -10.3632   14.5142 O   0  0  0  0  0  0  0  0  0  0  0  0
   16.1576   -8.5147   17.3606 C   0  0  0  0  0  0  0  0  0  0  0  0
   16.9524   -9.6241   17.6651 C   0  0  0  0  0  0  0  0  0  0  0  0
   17.7586  -10.2081   16.6840 C   0  0  0  0  0  0  0  0  0  0  0  0
   17.7808   -9.6896   15.3816 C   0  0  0  0  0  0  0  0  0  0  0  0
   16.9828   -8.5771   15.0768 C   0  0  0  0  0  0  0  0  0  0  0  0
   16.1776   -7.9941   16.0584 C   0  0  0  0  0  0  0  0  0  0  0  0
   13.3553   -6.7941   19.4277 C   0  0  0  0  0  0  0  0  0  0  0  0
   14.0564   -7.3358   18.2350 C   0  0  0  0  0  0  0  0  0  0  0  0
   15.3445   -7.9435   18.3947 N   0  0  0  0  0  0  0  0  0  0  0  0
   13.5072   -7.2514   17.1050 O   0  0  0  0  0  0  0  0  0  0  0  0
   15.7088   -7.9717   19.3088 H   0  0  0  0  0  0  0  0  0  0  0  0
   17.9329   -9.8004   12.1365 O   0  0  0  0  0  0  0  0  0  0  0  0
   16.9699   -9.8254   11.1270 C   0  0  0  0  0  0  0  0  0  0  0  0
   17.2481   -9.2942    9.8708 C   0  0  0  0  0  0  0  0  0  0  0  0
   16.2693   -9.3347    8.8905 C   0  0  0  0  0  0  0  0  0  0  0  0
   16.8147   -8.6290    7.4467 S   0  0  0  0  0  0  0  0  0  0  0  0
   18.3259   -8.2809    8.1213 C   0  0  0  0  0  0  0  0  0  0  0  0
   18.4100   -8.6877    9.4046 C   0  0  0  0  0  0  0  0  0  0  0  0
   19.7168   -8.3793   10.0135 C   0  0  0  0  0  0  0  0  0  0  0  0
   20.4746   -7.6861    8.8567 C   0  0  0  0  0  0  0  0  0  0  0  0
   19.5448   -7.6272    7.6233 C   0  0  0  0  0  0  0  0  0  0  0  0
   15.0499   -9.8764    9.1215 N   0  0  0  0  0  0  0  0  0  0  0  0
   14.7846  -10.3953   10.3550 C   0  0  0  0  0  0  0  0  0  0  0  0
   15.7337  -10.3676   11.3401 N   0  0  0  0  0  0  0  0  0  0  0  0
 10 11  1  0  0  0
 11 12  1  0  0  0
 12  4  1  0  0  0
  4  5  2  0  0  0
  5  6  1  0  0  0
  6  7  2  0  0  0
  7  2  1  0  0  0
  2  1  1  0  0  0
  1 15  1  0  0  0
 15 16  1  0  0  0
 16 17  1  0  0  0
 17 18  2  0  0  0
 18 19  1  0  0  0
 19 20  1  0  0  0
 20 21  2  0  0  0
 21 22  1  0  0  0
 22 23  1  0  0  0
 23 24  1  0  0  0
 18 25  1  0  0  0
 25 26  2  0  0  0
 26 27  1  0  0  0
  2  3  2  0  0  0
  7  8  1  0  0  0
  8  9  2  0  0  0
 11 13  2  0  0  0
  9  4  1  0  0  0
 27 16  2  0  0  0
 21 17  1  0  0  0
 24 20  1  0  0  0
 12 14  1  0  0  0
M  END
>  <minimizedAffinity>
-5.86013

>  <minimizedRMSD>
1.75686

$$$$
CSC026364743 9723417 CSSS00026364743 LN00407294 MCULE-1191584239 MolPort-005-531-586 PubChem-17408746 Z29950844 ZINC000009723417


 28 30  0  0  0  0  0  0  0  0999 V2000
   16.6383   -9.4681   13.3854 N   0  0  0  0  0  0  0  0  0  0  0  0
   17.5799   -9.6504   12.3189 C   0  0  0  0  0  0  0  0  0  0  0  0
   18.7980   -9.8327   12.5888 O   0  0  0  0  0  0  0  0  0  0  0  0
   15.7568   -9.0978   13.1507 H   0  0  0  0  0  0  0  0  0  0  0  0
   17.1148   -9.5671   10.9092 C   0  0  0  0  0  0  0  0  0  0  0  0
   17.8498   -8.9398    9.8712 C   0  0  0  0  0  0  0  0  0  0  0  0
   17.3069   -8.9205    8.5612 C   0  0  0  0  0  0  0  0  0  0  0  0
   18.0080   -8.3107    7.5169 C   0  0  0  0  0  0  0  0  0  0  0  0
   19.2492   -7.7175    7.7561 C   0  0  0  0  0  0  0  0  0  0  0  0
   19.7951   -7.7323    9.0408 C   0  0  0  0  0  0  0  0  0  0  0  0
   19.1005   -8.3394   10.0900 C   0  0  0  0  0  0  0  0  0  0  0  0
   16.1030   -9.4966    8.3110 N   0  0  0  0  0  0  0  0  0  0  0  0
   15.3866  -10.1036    9.2907 C   0  0  0  0  0  0  0  0  0  0  0  0
   14.0737  -10.7232    8.9737 C   0  0  0  0  0  0  0  0  0  0  0  0
   15.8789  -10.1478   10.5939 C   0  0  0  0  0  0  0  0  0  0  0  0
   17.4880  -10.9849   15.1681 C   0  0  0  0  0  0  0  0  0  0  0  0
   16.8737   -9.7802   14.7644 C   0  0  0  0  0  0  0  0  0  0  0  0
   16.4184   -8.8799   15.7330 C   0  0  0  0  0  0  0  0  0  0  0  0
   16.6068   -9.1324   17.0985 C   0  0  0  0  0  0  0  0  0  0  0  0
   17.2482  -10.3084   17.4924 C   0  0  0  0  0  0  0  0  0  0  0  0
   17.6814  -11.2297   16.5376 C   0  0  0  0  0  0  0  0  0  0  0  0
   16.1615   -8.2170   18.1087 N   0  0  0  0  0  0  0  0  0  0  0  0
   14.8331   -7.7059   18.2765 C   0  0  0  0  0  0  0  0  0  0  0  0
   14.5533   -6.7594   19.3871 C   0  0  0  0  0  0  0  0  0  0  0  0
   13.8988   -8.0426   17.5023 O   0  0  0  0  0  0  0  0  0  0  0  0
   16.8382   -7.9078   18.7535 H   0  0  0  0  0  0  0  0  0  0  0  0
   18.2074  -13.2735   14.5467 C   0  0  0  0  0  0  0  0  0  0  0  0
   17.8675  -11.9346   14.2125 O   0  0  0  0  0  0  0  0  0  0  0  0
 27 28  1  0  0  0
 28 16  1  0  0  0
 16 17  2  0  0  0
 17  1  1  0  0  0
  1  2  1  0  0  0
  2  5  1  0  0  0
  5  6  1  0  0  0
  6  7  1  0  0  0
  7  8  2  0  0  0
  8  9  1  0  0  0
  9 10  2  0  0  0
 10 11  1  0  0  0
  7 12  1  0  0  0
 12 13  2  0  0  0
 13 14  1  0  0  0
 13 15  1  0  0  0
  2  3  2  0  0  0
 17 18  1  0  0  0
 18 19  2  0  0  0
 19 22  1  0  0  0
 22 23  1  0  0  0
 23 24  1  0  0  0
 23 25  2  0  0  0
 19 20  1  0  0  0
 20 21  2  0  0  0
 21 16  1  0  0  0
 15  5  2  0  0  0
 11  6  2  0  0  0
  1  4  1  0  0  0
 22 26  1  0  0  0
M  END
>  <minimizedAffinity>
-5.85854

>  <minimizedRMSD>
1.01127

$$$$
CSC102899864 664663493 CSSS00102899864 MCULE-4268370113 MolPort-044-807-296 PubChem-132972656 Z2616049623 ZINC000664663493


 32 36  0  0  0  0  0  0  0  0999 V2000
   16.9658   -8.7716   16.2242 C   0  0  0  0  0  0  0  0  0  0  0  0
   18.2687   -9.0156   16.6842 C   0  0  0  0  0  0  0  0  0  0  0  0
   19.2293   -9.5969   15.8585 C   0  0  0  0  0  0  0  0  0  0  0  0
   18.9031   -9.9464   14.5509 C   0  0  0  0  0  0  0  0  0  0  0  0
   17.6161   -9.7228   14.0605 C   0  0  0  0  0  0  0  0  0  0  0  0
   16.6326   -9.1354   14.8917 C   0  0  0  0  0  0  0  0  0  0  0  0
   15.2687   -8.8711   14.3181 C   0  0  0  0  0  0  0  0  0  0  0  0
   14.8940   -9.9771   13.3481 C   0  0  0  0  0  0  0  0  0  0  0  0
   15.9025  -10.0525   12.2949 N   0  0  0  0  0  0  0  0  0  0  0  0
   15.4976  -10.0490   10.9194 C   0  0  0  0  0  0  0  0  0  0  0  0
   14.2728   -9.9933   10.6212 O   0  0  0  0  0  0  0  0  0  0  0  0
   16.4826  -10.1104    9.8822 N   0  0  0  0  0  0  0  0  0  0  0  0
   17.3296  -10.1041   12.6308 C   0  0  0  0  0  0  0  0  0  0  0  0
   17.4292  -10.1997   10.1375 H   0  0  0  0  0  0  0  0  0  0  0  0
   16.1803   -8.3107   18.5763 N   0  0  0  0  0  0  0  0  0  0  0  0
   16.0058   -8.1462   17.1711 C   0  0  0  0  0  0  0  0  0  0  0  0
   15.0267   -7.4694   16.7607 O   0  0  0  0  0  0  0  0  0  0  0  0
   15.5443   -7.8963   19.2032 H   0  0  0  0  0  0  0  0  0  0  0  0
   16.9369   -8.8388   18.9198 H   0  0  0  0  0  0  0  0  0  0  0  0
   16.1469  -10.0467    8.4668 C   0  0  0  0  0  0  0  0  0  0  0  0
   17.2620   -9.4130    7.6995 C   0  0  0  0  0  0  0  0  0  0  0  0
   17.3564   -9.5044    6.3470 N   0  0  0  0  0  0  0  0  0  0  0  0
   18.4264   -8.7380    6.0679 C   0  0  0  0  0  0  0  0  0  0  0  0
   18.9602   -8.4548    4.8133 C   0  0  0  0  0  0  0  0  0  0  0  0
   20.0672   -7.5874    4.7603 C   0  0  0  0  0  0  0  0  0  0  0  0
   20.5995   -7.0277    5.9436 C   0  0  0  0  0  0  0  0  0  0  0  0
   20.0337   -7.3304    7.1956 C   0  0  0  0  0  0  0  0  0  0  0  0
   18.9445   -8.2021    7.2116 C   0  0  0  0  0  0  0  0  0  0  0  0
   18.2260   -8.6342    8.2604 N   0  0  0  0  0  0  0  0  0  0  0  0
   18.3489   -8.2217    9.6596 C   0  0  0  0  0  0  0  0  0  0  0  0
   19.2540   -9.1836   10.4116 C   0  0  0  0  0  0  0  0  0  0  0  0
   19.7872   -7.8414    9.9708 C   0  0  0  0  0  0  0  0  0  0  0  0
 15 16  1  0  0  0
 16 17  2  0  0  0
 16  1  1  0  0  0
  1  2  2  0  0  0
  2  3  1  0  0  0
  3  4  2  0  0  0
  4  5  1  0  0  0
  5  6  2  0  0  0
  6  7  1  0  0  0
  7  8  1  0  0  0
  8  9  1  0  0  0
  9 10  1  0  0  0
 10 11  2  0  0  0
 10 12  1  0  0  0
 12 20  1  0  0  0
 20 21  1  0  0  0
 21 22  2  0  0  0
 22 23  1  0  0  0
 23 24  2  0  0  0
 24 25  1  0  0  0
 25 26  2  0  0  0
 26 27  1  0  0  0
 27 28  2  0  0  0
 28 29  1  0  0  0
 29 30  1  0  0  0
 30 31  1  0  0  0
 31 32  1  0  0  0
  9 13  1  0  0  0
  6  1  1  0  0  0
 29 21  1  0  0  0
 32 30  1  0  0  0
 13  5  1  0  0  0
 28 23  1  0  0  0
 15 18  1  0  0  0
 15 19  1  0  0  0
 12 14  1  0  0  0
M  END
>  <minimizedAffinity>
-5.83479

>  <minimizedRMSD>
2.07262

$$$$
CSSS01394111541 PubChem-4795584 Z31176746


 28 31  0  0  0  0  0  0  0  0999 V2000
   19.0211  -10.8685   14.0773 C   0  0  0  0  0  0  0  0  0  0  0  0
   17.6046  -10.4246   13.7611 C   0  0  0  0  0  0  0  0  0  0  0  0
   16.9718   -9.7479   14.9344 C   0  0  0  0  0  0  0  0  0  0  0  0
   16.2484   -8.5554   14.7809 C   0  0  0  0  0  0  0  0  0  0  0  0
   15.6554   -7.9469   15.8906 C   0  0  0  0  0  0  0  0  0  0  0  0
   15.7814   -8.5250   17.1584 C   0  0  0  0  0  0  0  0  0  0  0  0
   16.4966   -9.7177   17.3112 C   0  0  0  0  0  0  0  0  0  0  0  0
   17.0901  -10.3270   16.2021 C   0  0  0  0  0  0  0  0  0  0  0  0
   15.0274   -7.7674   18.5489 S   0  0  0  0  0  0  0  0  0  0  0  0
   14.1536   -6.6321   18.0950 O   0  0  0  0  0  0  0  0  0  0  0  0
   14.1950   -8.7794   19.2838 O   0  0  0  0  0  0  0  0  0  0  0  0
   16.2446   -7.1454   19.6060 N   0  0  0  0  0  0  0  0  0  0  0  0
   16.8096   -6.4584   19.1068 H   0  0  0  0  0  0  0  0  0  0  0  0
   16.8409   -7.9091   19.9245 H   0  0  0  0  0  0  0  0  0  0  0  0
   17.6077   -9.5389   12.6072 N   0  0  0  0  0  0  0  0  0  0  0  0
   18.2442   -8.7881   12.5849 H   0  0  0  0  0  0  0  0  0  0  0  0
   16.7170   -9.7230   11.5051 C   0  0  0  0  0  0  0  0  0  0  0  0
   17.0882   -9.3486   10.2154 C   0  0  0  0  0  0  0  0  0  0  0  0
   18.2735   -8.7759    9.7622 C   0  0  0  0  0  0  0  0  0  0  0  0
   18.2840   -8.5419    8.4337 C   0  0  0  0  0  0  0  0  0  0  0  0
   19.5287   -7.9305    7.9462 C   0  0  0  0  0  0  0  0  0  0  0  0
   20.3607   -7.8047    9.2426 C   0  0  0  0  0  0  0  0  0  0  0  0
   19.5256   -8.3598   10.4203 C   0  0  0  0  0  0  0  0  0  0  0  0
   16.8378   -9.0163    7.6978 S   0  0  0  0  0  0  0  0  0  0  0  0
   16.1914   -9.5423    9.1757 C   0  0  0  0  0  0  0  0  0  0  0  0
   14.9672  -10.0840    9.3800 N   0  0  0  0  0  0  0  0  0  0  0  0
   14.6122  -10.4472   10.6460 C   0  0  0  0  0  0  0  0  0  0  0  0
   15.4777  -10.2669   11.6896 N   0  0  0  0  0  0  0  0  0  0  0  0
  1  2  1  0  0  0
  2  3  1  0  0  0
  3  4  2  0  0  0
  4  5  1  0  0  0
  5  6  2  0  0  0
  6  7  1  0  0  0
  7  8  2  0  0  0
  6  9  1  0  0  0
  9 10  2  0  0  0
  9 11  2  0  0  0
  9 12  1  0  0  0
  2 15  1  0  0  0
 15 17  1  0  0  0
 17 18  2  0  0  0
 18 19  1  0  0  0
 19 20  2  0  0  0
 20 21  1  0  0  0
 21 22  1  0  0  0
 22 23  1  0  0  0
 20 24  1  0  0  0
 24 25  1  0  0  0
 25 26  2  0  0  0
 26 27  1  0  0  0
 27 28  2  0  0  0
  8  3  1  0  0  0
 28 17  1  0  0  0
 25 18  1  0  0  0
 23 19  1  0  0  0
 12 13  1  0  0  0
 12 14  1  0  0  0
 15 16  1  0  0  0
M  END
>  <minimizedAffinity>
-5.80859

>  <minimizedRMSD>
2.06594

$$$$
CSC027166159 CSSS00027166159 MCULE-9251453447 MolPort-039-273-147 PubChem-121560831 Z2080362792


 33 36  0  0  0  0  0  0  0  0999 V2000
   17.4758   -9.4582   12.0580 N   0  0  0  0  0  0  0  0  0  0  0  0
   16.6695   -9.8937   10.9571 C   0  0  0  0  0  0  0  0  0  0  0  0
   15.6029  -10.5339   11.1629 O   0  0  0  0  0  0  0  0  0  0  0  0
   18.2364   -8.8634   11.8656 H   0  0  0  0  0  0  0  0  0  0  0  0
   17.0806   -9.5729    9.5843 C   0  0  0  0  0  0  0  0  0  0  0  0
   18.1731   -8.8531    9.1644 C   0  0  0  0  0  0  0  0  0  0  0  0
   19.1370   -8.2675    9.9153 N   0  0  0  0  0  0  0  0  0  0  0  0
   20.1389   -7.5944    9.2831 C   0  0  0  0  0  0  0  0  0  0  0  0
   20.1680   -7.5111    7.8800 C   0  0  0  0  0  0  0  0  0  0  0  0
   19.1505   -8.1304    7.1285 C   0  0  0  0  0  0  0  0  0  0  0  0
   18.1777   -8.7879    7.8281 N   0  0  0  0  0  0  0  0  0  0  0  0
   17.1269   -9.4388    7.3534 N   0  0  0  0  0  0  0  0  0  0  0  0
   16.4299   -9.9340    8.4072 C   0  0  0  0  0  0  0  0  0  0  0  0
   19.1683   -8.0498    5.6410 C   0  0  0  0  0  0  0  0  0  0  0  0
   20.2172   -7.3822    4.9843 C   0  0  0  0  0  0  0  0  0  0  0  0
   20.2498   -7.2973    3.5896 C   0  0  0  0  0  0  0  0  0  0  0  0
   19.2324   -7.8798    2.8313 C   0  0  0  0  0  0  0  0  0  0  0  0
   18.1838   -8.5464    3.4681 C   0  0  0  0  0  0  0  0  0  0  0  0
   18.1536   -8.6300    4.8630 C   0  0  0  0  0  0  0  0  0  0  0  0
   16.5881   -8.9801   14.3465 C   0  0  0  0  0  0  0  0  0  0  0  0
   17.2457   -9.8333   13.4209 C   0  0  0  0  0  0  0  0  0  0  0  0
   17.7283  -11.0737   13.8425 C   0  0  0  0  0  0  0  0  0  0  0  0
   17.6196  -11.4609   15.1748 C   0  0  0  0  0  0  0  0  0  0  0  0
   18.2372  -13.0155   15.6882 Cl  0  0  0  0  0  0  0  0  0  0  0  0
   17.0437  -10.5986   16.1040 C   0  0  0  0  0  0  0  0  0  0  0  0
   16.5329   -9.3532   15.7129 C   0  0  0  0  0  0  0  0  0  0  0  0
   15.9194   -8.4908   16.7523 C   0  0  0  0  0  0  0  0  0  0  0  0
   16.3890   -8.5463   18.0969 N   0  0  0  0  0  0  0  0  0  0  0  0
   14.9866   -7.6937   16.4688 O   0  0  0  0  0  0  0  0  0  0  0  0
   17.1174   -9.1628   18.3389 H   0  0  0  0  0  0  0  0  0  0  0  0
   15.9849   -7.9681   18.7837 H   0  0  0  0  0  0  0  0  0  0  0  0
   14.9397   -7.7447   12.9646 C   0  0  0  0  0  0  0  0  0  0  0  0
   15.9717   -7.7884   13.9404 O   0  0  0  0  0  0  0  0  0  0  0  0
 32 33  1  0  0  0
 33 20  1  0  0  0
 20 21  2  0  0  0
 21  1  1  0  0  0
  1  2  1  0  0  0
  2  3  2  0  0  0
  2  5  1  0  0  0
  5  6  2  0  0  0
  6  7  1  0  0  0
  7  8  2  0  0  0
  8  9  1  0  0  0
  9 10  2  0  0  0
 10 11  1  0  0  0
 11 12  1  0  0  0
 12 13  2  0  0  0
 10 14  1  0  0  0
 14 15  2  0  0  0
 15 16  1  0  0  0
 16 17  2  0  0  0
 17 18  1  0  0  0
 18 19  2  0  0  0
 21 22  1  0  0  0
 22 23  2  0  0  0
 23 24  1  0  0  0
 23 25  1  0  0  0
 25 26  2  0  0  0
 26 27  1  0  0  0
 27 28  1  0  0  0
 27 29  2  0  0  0
 26 20  1  0  0  0
 13  5  1  0  0  0
 19 14  1  0  0  0
 11  6  1  0  0  0
  1  4  1  0  0  0
 28 30  1  0  0  0
 28 31  1  0  0  0
M  END
>  <minimizedAffinity>
-5.78614

>  <minimizedRMSD>
1.61711

$$$$
CSC077729273 CSSS00077729273 Z2347875114


 27 29  0  0  0  0  0  0  0  0999 V2000
   18.3341  -11.1252   12.5357 C   0  0  0  0  0  0  0  0  0  0  0  0
   17.1766   -9.8627   15.9123 C   0  0  0  0  0  0  0  0  0  0  0  0
   17.3821  -10.9938   16.7108 C   0  0  0  0  0  0  0  0  0  0  0  0
   17.8950  -12.1660   16.1478 C   0  0  0  0  0  0  0  0  0  0  0  0
   18.1999  -12.2111   14.7842 C   0  0  0  0  0  0  0  0  0  0  0  0
   17.9864  -11.0854   13.9816 C   0  0  0  0  0  0  0  0  0  0  0  0
   17.4799   -9.9108   14.5474 C   0  0  0  0  0  0  0  0  0  0  0  0
   16.5278   -8.3910   16.6120 S   0  0  0  0  0  0  0  0  0  0  0  0
   17.4282   -7.9205   17.7210 O   0  0  0  0  0  0  0  0  0  0  0  0
   16.4576   -7.3258   15.5529 O   0  0  0  0  0  0  0  0  0  0  0  0
   14.9459   -8.7109   17.2384 N   0  0  0  0  0  0  0  0  0  0  0  0
   14.2548   -8.6351   16.4921 H   0  0  0  0  0  0  0  0  0  0  0  0
   13.2799   -7.1622   18.0711 C   0  0  0  0  0  0  0  0  0  0  0  0
   14.6713   -7.7246   18.2690 C   0  0  0  0  0  0  0  0  0  0  0  0
   18.1480   -9.8076   11.9500 N   0  0  0  0  0  0  0  0  0  0  0  0
   18.4146   -9.0133   12.4671 H   0  0  0  0  0  0  0  0  0  0  0  0
   17.5904   -9.6308   10.6475 C   0  0  0  0  0  0  0  0  0  0  0  0
   16.4089  -10.2224   10.2916 N   0  0  0  0  0  0  0  0  0  0  0  0
   15.8760  -10.0545    9.0379 C   0  0  0  0  0  0  0  0  0  0  0  0
   16.5181   -9.2851    8.1072 N   0  0  0  0  0  0  0  0  0  0  0  0
   17.6866   -8.7020    8.4687 C   0  0  0  0  0  0  0  0  0  0  0  0
   18.4758   -7.9189    7.7284 N   0  0  0  0  0  0  0  0  0  0  0  0
   19.5175   -7.6140    8.5427 C   0  0  0  0  0  0  0  0  0  0  0  0
   19.3938   -8.1772    9.7788 N   0  0  0  0  0  0  0  0  0  0  0  0
   18.2319   -8.8527    9.6944 C   0  0  0  0  0  0  0  0  0  0  0  0
   18.3030   -7.5304    6.3380 C   0  0  0  0  0  0  0  0  0  0  0  0
   19.0882   -8.4645    5.4375 C   0  0  0  0  0  0  0  0  0  0  0  0
 13 14  1  0  0  0
 14 11  1  0  0  0
 11  8  1  0  0  0
  8  9  2  0  0  0
  8 10  2  0  0  0
  8  2  1  0  0  0
  2  3  2  0  0  0
  3  4  1  0  0  0
  4  5  2  0  0  0
  5  6  1  0  0  0
  6  1  1  0  0  0
  1 15  1  0  0  0
 15 17  1  0  0  0
 17 18  2  0  0  0
 18 19  1  0  0  0
 19 20  2  0  0  0
 20 21  1  0  0  0
 21 22  1  0  0  0
 22 26  1  0  0  0
 26 27  1  0  0  0
 22 23  1  0  0  0
 23 24  2  0  0  0
 24 25  1  0  0  0
  6  7  2  0  0  0
  7  2  1  0  0  0
 25 17  1  0  0  0
 25 21  2  0  0  0
 11 12  1  0  0  0
 15 16  1  0  0  0
M  END
>  <minimizedAffinity>
-5.75863

>  <minimizedRMSD>
0.93597

$$$$
CSC027182327 CSSS00027182327 MCULE-5354801705 MolPort-005-748-065 PubChem-42919250 Z135290964


 33 36  0  0  0  0  0  0  0  0999 V2000
   18.6130   -8.1230    7.4883 C   0  0  0  0  0  0  0  0  0  0  0  0
   19.8878   -7.6917    7.8682 C   0  0  0  0  0  0  0  0  0  0  0  0
   20.8805   -7.0216    6.9829 C   0  0  0  0  0  0  0  0  0  0  0  0
   20.1626   -8.0557    9.4963 S   0  0  0  0  0  0  0  0  0  0  0  0
   18.6548   -8.7519    9.7255 C   0  0  0  0  0  0  0  0  0  0  0  0
   17.9151   -8.7172    8.5582 C   0  0  0  0  0  0  0  0  0  0  0  0
   16.6171   -9.2434    8.5868 C   0  0  0  0  0  0  0  0  0  0  0  0
   15.8797   -9.2296    7.5667 O   0  0  0  0  0  0  0  0  0  0  0  0
   16.1496   -9.7746    9.7519 N   0  0  0  0  0  0  0  0  0  0  0  0
   16.9112   -9.7927   10.8862 C   0  0  0  0  0  0  0  0  0  0  0  0
   18.1743   -9.2818   10.8750 N   0  0  0  0  0  0  0  0  0  0  0  0
   15.2416  -10.1543    9.7766 H   0  0  0  0  0  0  0  0  0  0  0  0
   18.0773   -7.9509    6.0982 C   0  0  0  0  0  0  0  0  0  0  0  0
   19.0940   -8.3935    5.0565 C   0  0  0  0  0  0  0  0  0  0  0  0
   18.3569   -8.8435    3.8095 C   0  0  0  0  0  0  0  0  0  0  0  0
   20.6950   -7.4843    3.3736 C   0  0  0  0  0  0  0  0  0  0  0  0
   20.0327   -7.2457    4.7172 C   0  0  0  0  0  0  0  0  0  0  0  0
   16.3733  -10.4074   12.1284 C   0  0  0  0  0  0  0  0  0  0  0  0
   17.4730  -10.7706   13.0090 N   0  0  0  0  0  0  0  0  0  0  0  0
   18.3024  -11.1174   12.6076 H   0  0  0  0  0  0  0  0  0  0  0  0
   17.4023  -10.6463   14.4309 C   0  0  0  0  0  0  0  0  0  0  0  0
   18.0678  -11.5789   15.2318 C   0  0  0  0  0  0  0  0  0  0  0  0
   18.0126  -11.4773   16.6242 C   0  0  0  0  0  0  0  0  0  0  0  0
   17.2904  -10.4410   17.2218 C   0  0  0  0  0  0  0  0  0  0  0  0
   16.6179   -9.4982   16.4317 C   0  0  0  0  0  0  0  0  0  0  0  0
   16.6783   -9.6074   15.0350 C   0  0  0  0  0  0  0  0  0  0  0  0
   15.8562   -8.4058   17.0618 C   0  0  0  0  0  0  0  0  0  0  0  0
   15.2730   -7.5471   16.3445 O   0  0  0  0  0  0  0  0  0  0  0  0
   15.7765   -8.3178   18.4873 N   0  0  0  0  0  0  0  0  0  0  0  0
   16.2396   -8.9939   19.0328 H   0  0  0  0  0  0  0  0  0  0  0  0
   15.0340   -7.2627   19.1562 C   0  0  0  0  0  0  0  0  0  0  0  0
   15.0103   -7.5388   20.6447 C   0  0  0  0  0  0  0  0  0  0  0  0
   13.7957   -7.8533   19.7982 C   0  0  0  0  0  0  0  0  0  0  0  0
 16 17  1  0  0  0
 14 17  1  0  0  0
 14 15  1  0  0  0
 14 13  1  0  0  0
 13  1  1  0  0  0
  1  2  2  0  0  0
  2  3  1  0  0  0
  2  4  1  0  0  0
  4  5  1  0  0  0
  5  6  2  0  0  0
  6  7  1  0  0  0
  6  1  1  0  0  0
  7  8  2  0  0  0
  7  9  1  0  0  0
  9 10  1  0  0  0
 10 18  1  0  0  0
 10 11  2  0  0  0
 18 19  1  0  0  0
 19 21  1  0  0  0
 21 22  2  0  0  0
 22 23  1  0  0  0
 23 24  2  0  0  0
 24 25  1  0  0  0
 25 26  2  0  0  0
 25 27  1  0  0  0
 26 21  1  0  0  0
 27 28  2  0  0  0
 27 29  1  0  0  0
 29 31  1  0  0  0
 31 32  1  0  0  0
 32 33  1  0  0  0
 33 31  1  0  0  0
 11  5  1  0  0  0
  9 12  1  0  0  0
 19 20  1  0  0  0
 29 30  1  0  0  0
M  END
>  <minimizedAffinity>
-5.75300

>  <minimizedRMSD>
1.95338

$$$$
CSC027641278 CSSS00027641278 MCULE-7664984000 MolPort-023-179-858 PubChem-72109214 Z1328840207


 28 30  0  0  0  0  0  0  0  0999 V2000
   16.1543   -9.2110   12.7950 C   0  0  0  0  0  0  0  0  0  0  0  0
   15.4556   -8.2252   12.4297 O   0  0  0  0  0  0  0  0  0  0  0  0
   16.0623   -8.8465   16.5617 C   0  0  0  0  0  0  0  0  0  0  0  0
   16.9526   -9.8595   16.9436 C   0  0  0  0  0  0  0  0  0  0  0  0
   17.5758  -10.6536   15.9778 C   0  0  0  0  0  0  0  0  0  0  0  0
   17.3130  -10.4405   14.6224 C   0  0  0  0  0  0  0  0  0  0  0  0
   16.4254   -9.4328   14.2238 C   0  0  0  0  0  0  0  0  0  0  0  0
   15.8041   -8.6394   15.1989 C   0  0  0  0  0  0  0  0  0  0  0  0
   15.9423   -7.9381   18.9039 N   0  0  0  0  0  0  0  0  0  0  0  0
   15.4052   -8.0095   17.5805 C   0  0  0  0  0  0  0  0  0  0  0  0
   14.3665   -7.3561   17.2865 O   0  0  0  0  0  0  0  0  0  0  0  0
   16.7559   -8.4499   19.1166 H   0  0  0  0  0  0  0  0  0  0  0  0
   15.3240   -7.1327   19.9460 C   0  0  0  0  0  0  0  0  0  0  0  0
   12.9913   -7.6427   20.6560 C   0  0  0  0  0  0  0  0  0  0  0  0
   14.4534   -8.0057   20.8317 C   0  0  0  0  0  0  0  0  0  0  0  0
   16.6743  -10.0973   11.8458 O   0  0  0  0  0  0  0  0  0  0  0  0
   16.0943  -10.2673   10.5575 C   0  0  0  0  0  0  0  0  0  0  0  0
   15.9430  -11.7461   10.2582 C   0  0  0  0  0  0  0  0  0  0  0  0
   16.9390   -9.6103    9.5078 C   0  0  0  0  0  0  0  0  0  0  0  0
   16.5481   -9.5330    8.2081 N   0  0  0  0  0  0  0  0  0  0  0  0
   17.5641   -8.8669    7.6271 C   0  0  0  0  0  0  0  0  0  0  0  0
   17.6853   -8.5061    6.2877 C   0  0  0  0  0  0  0  0  0  0  0  0
   18.8442   -7.8025    5.9083 C   0  0  0  0  0  0  0  0  0  0  0  0
   19.8361   -7.4818    6.8626 C   0  0  0  0  0  0  0  0  0  0  0  0
   19.6831   -7.8602    8.2093 C   0  0  0  0  0  0  0  0  0  0  0  0
   18.5236   -8.5567    8.5473 C   0  0  0  0  0  0  0  0  0  0  0  0
   18.1407   -9.0216    9.7427 N   0  0  0  0  0  0  0  0  0  0  0  0
   18.8524   -8.9000   11.0066 C   0  0  0  0  0  0  0  0  0  0  0  0
 14 15  1  0  0  0
 15 13  1  0  0  0
 13  9  1  0  0  0
  9 10  1  0  0  0
 10 11  2  0  0  0
 10  3  1  0  0  0
  3  4  2  0  0  0
  4  5  1  0  0  0
  5  6  2  0  0  0
  6  7  1  0  0  0
  7  8  2  0  0  0
  7  1  1  0  0  0
  8  3  1  0  0  0
  1  2  2  0  0  0
  1 16  1  0  0  0
 17 16  1  0  0  0
 17 18  1  0  0  0
 17 19  1  0  0  0
 19 20  2  0  0  0
 20 21  1  0  0  0
 21 22  2  0  0  0
 22 23  1  0  0  0
 23 24  2  0  0  0
 24 25  1  0  0  0
 25 26  2  0  0  0
 26 27  1  0  0  0
 26 21  1  0  0  0
 27 28  1  0  0  0
 27 19  1  0  0  0
  9 12  1  0  0  0
M  END
>  <minimizedAffinity>
-5.74059

>  <minimizedRMSD>
1.14758

$$$$
65383571 CSSS00160018128 MCULE-5656959264 MCULE-6488789095 MolPort-016-599-198 MolPort-047-487-243 PubChem-154885802 PubChem-50955166 ZINC000065383571


 29 31  0  0  0  0  0  0  0  0999 V2000
   17.7654   -9.0264    9.5446 C   0  0  0  0  0  0  0  0  0  0  0  0
   18.9673   -8.4239    9.1288 C   0  0  0  0  0  0  0  0  0  0  0  0
   20.1722   -8.2420    9.9919 C   0  0  0  0  0  0  0  0  0  0  0  0
   18.9148   -8.0055    7.7963 C   0  0  0  0  0  0  0  0  0  0  0  0
   17.4032   -8.3731    7.1333 S   0  0  0  0  0  0  0  0  0  0  0  0
   16.8136   -9.0648    8.5426 C   0  0  0  0  0  0  0  0  0  0  0  0
   15.5853   -9.6031    8.7270 N   0  0  0  0  0  0  0  0  0  0  0  0
   15.2712  -10.1219    9.9469 C   0  0  0  0  0  0  0  0  0  0  0  0
   16.1890  -10.1079   10.9589 N   0  0  0  0  0  0  0  0  0  0  0  0
   17.4331   -9.5698   10.7926 C   0  0  0  0  0  0  0  0  0  0  0  0
   20.0144   -7.3340    7.0493 C   0  0  0  0  0  0  0  0  0  0  0  0
   18.3693   -9.5686   11.8721 N   0  0  0  0  0  0  0  0  0  0  0  0
   19.0392   -8.8487   11.9195 H   0  0  0  0  0  0  0  0  0  0  0  0
   18.3667  -10.5935   12.9024 C   0  0  0  0  0  0  0  0  0  0  0  0
   18.1450   -9.9616   14.2301 C   0  0  0  0  0  0  0  0  0  0  0  0
   19.1108   -9.8021   15.2044 C   0  0  0  0  0  0  0  0  0  0  0  0
   18.4703   -9.1514   16.2474 C   0  0  0  0  0  0  0  0  0  0  0  0
   17.1676   -8.9654   15.8189 C   0  0  0  0  0  0  0  0  0  0  0  0
   17.0022   -9.4544   14.6156 O   0  0  0  0  0  0  0  0  0  0  0  0
   16.1036   -8.3121   16.5880 C   0  0  0  0  0  0  0  0  0  0  0  0
   16.1067   -8.3812   18.0153 N   0  0  0  0  0  0  0  0  0  0  0  0
   15.0740   -7.7496   18.8190 C   0  0  0  0  0  0  0  0  0  0  0  0
   15.1886   -7.6907   15.9831 O   0  0  0  0  0  0  0  0  0  0  0  0
   16.8306   -8.8716   18.4678 H   0  0  0  0  0  0  0  0  0  0  0  0
   13.9362  -10.7406   10.1670 C   0  0  0  0  0  0  0  0  0  0  0  0
   13.4571  -10.4448   11.5741 C   0  0  0  0  0  0  0  0  0  0  0  0
   12.6431  -11.5479   12.0495 N   0  0  0  0  0  0  0  0  0  0  0  0
   11.8384  -11.6666   11.4341 H   0  0  0  0  0  0  0  0  0  0  0  0
   12.3205  -11.3490   12.9965 H   0  0  0  0  0  0  0  0  0  0  0  0
  1  2  1  0  0  0
  2  3  1  0  0  0
  2  4  2  0  0  0
  4  5  1  0  0  0
  5  6  1  0  0  0
  6  7  1  0  0  0
  7  8  2  0  0  0
  8 25  1  0  0  0
 25 26  1  0  0  0
 26 27  1  0  0  0
  8  9  1  0  0  0
  9 10  2  0  0  0
 10 12  1  0  0  0
 12 14  1  0  0  0
 14 15  1  0  0  0
 15 16  2  0  0  0
 16 17  1  0  0  0
 17 18  2  0  0  0
 18 20  1  0  0  0
 20 21  1  0  0  0
 21 22  1  0  0  0
 20 23  2  0  0  0
 18 19  1  0  0  0
  4 11  1  0  0  0
  6  1  2  0  0  0
 19 15  1  0  0  0
 10  1  1  0  0  0
 27 28  1  0  0  0
 27 29  1  0  0  0
 12 13  1  0  0  0
 21 24  1  0  0  0
M  END
>  <minimizedAffinity>
-5.72000

>  <minimizedRMSD>
2.19994

$$$$
CSSS00138452021 MCULE-3420646115 MolPort-044-442-658 PubChem-137843426 Z1900667043


 25 28  0  0  0  0  0  0  0  0999 V2000
   17.2169  -10.3130   14.4606 C   0  0  0  0  0  0  0  0  0  0  0  0
   18.1315  -11.5110   14.7237 C   0  0  0  0  0  0  0  0  0  0  0  0
   18.3680  -12.2917   13.4331 C   0  0  0  0  0  0  0  0  0  0  0  0
   18.9715  -11.3746   12.3736 C   0  0  0  0  0  0  0  0  0  0  0  0
   18.1104  -10.2089   12.1888 N   0  0  0  0  0  0  0  0  0  0  0  0
   17.8136   -9.4128   13.3788 C   0  0  0  0  0  0  0  0  0  0  0  0
   17.5439   -9.8543   10.9085 C   0  0  0  0  0  0  0  0  0  0  0  0
   16.2809  -10.3470   10.5211 C   0  0  0  0  0  0  0  0  0  0  0  0
   15.7542  -10.0061    9.3056 N   0  0  0  0  0  0  0  0  0  0  0  0
   16.4190   -9.1913    8.4375 C   0  0  0  0  0  0  0  0  0  0  0  0
   17.6619   -8.7115    8.8288 C   0  0  0  0  0  0  0  0  0  0  0  0
   18.4712   -7.9038    8.1280 N   0  0  0  0  0  0  0  0  0  0  0  0
   19.5401   -7.7137    8.8943 N   0  0  0  0  0  0  0  0  0  0  0  0
   19.3676   -8.4052   10.0458 C   0  0  0  0  0  0  0  0  0  0  0  0
   18.1823   -9.0412   10.0164 N   0  0  0  0  0  0  0  0  0  0  0  0
   16.0461   -8.4890   17.2693 C   0  0  0  0  0  0  0  0  0  0  0  0
   15.8275   -9.1393   16.1137 N   0  0  0  0  0  0  0  0  0  0  0  0
   17.0057   -9.5574   15.6866 N   0  0  0  0  0  0  0  0  0  0  0  0
   17.9784   -9.1921   16.5407 C   0  0  0  0  0  0  0  0  0  0  0  0
   17.3955   -8.4934   17.5861 C   0  0  0  0  0  0  0  0  0  0  0  0
   14.0155   -7.3194   20.3305 C   0  0  0  0  0  0  0  0  0  0  0  0
   15.0425   -7.9195   19.4959 N   0  0  0  0  0  0  0  0  0  0  0  0
   14.9845   -7.8678   18.0689 C   0  0  0  0  0  0  0  0  0  0  0  0
   14.0236   -7.2900   17.4924 O   0  0  0  0  0  0  0  0  0  0  0  0
   15.8014   -8.3756   19.9265 H   0  0  0  0  0  0  0  0  0  0  0  0
 21 22  1  0  0  0
 22 23  1  0  0  0
 23 24  2  0  0  0
 23 16  1  0  0  0
 16 17  2  0  0  0
 17 18  1  0  0  0
 18 19  1  0  0  0
 19 20  2  0  0  0
 18  1  1  0  0  0
  1  2  1  0  0  0
  2  3  1  0  0  0
  3  4  1  0  0  0
  4  5  1  0  0  0
  5  6  1  0  0  0
  5  7  1  0  0  0
  7  8  2  0  0  0
  8  9  1  0  0  0
  9 10  2  0  0  0
 10 11  1  0  0  0
 11 12  2  0  0  0
 12 13  1  0  0  0
 13 14  2  0  0  0
 14 15  1  0  0  0
 20 16  1  0  0  0
  6  1  1  0  0  0
 15  7  1  0  0  0
 15 11  1  0  0  0
 22 25  1  0  0  0
M  END
>  <minimizedAffinity>
-5.71583

>  <minimizedRMSD>
2.25864

$$$$
CSC027467744 65552104 CSSS00027467744 MCULE-4051996059 MolPort-019-675-811 PubChem-53545389 Z978946570 ZINC000065552104


 26 29  0  0  0  0  0  0  0  0999 V2000
   15.7151  -10.1998   11.6177 S   0  0  0  0  0  0  0  0  0  0  0  0
   14.2455  -10.3174   11.3243 O   0  0  0  0  0  0  0  0  0  0  0  0
   16.2652  -11.5411   12.0123 O   0  0  0  0  0  0  0  0  0  0  0  0
   20.6989   -7.6317    9.8364 C   0  0  0  0  0  0  0  0  0  0  0  0
   19.6478   -8.0146    8.8561 C   0  0  0  0  0  0  0  0  0  0  0  0
   18.4400   -8.6193    9.1374 C   0  0  0  0  0  0  0  0  0  0  0  0
   17.8337   -8.7632    7.9280 C   0  0  0  0  0  0  0  0  0  0  0  0
   16.6069   -9.3245    7.7875 N   0  0  0  0  0  0  0  0  0  0  0  0
   15.9583   -9.7621    8.9097 C   0  0  0  0  0  0  0  0  0  0  0  0
   16.5543   -9.6299   10.1880 C   0  0  0  0  0  0  0  0  0  0  0  0
   17.8300   -9.0449   10.3109 C   0  0  0  0  0  0  0  0  0  0  0  0
   18.6248   -8.2746    6.9617 N   0  0  0  0  0  0  0  0  0  0  0  0
   18.3420   -8.2393    5.5373 C   0  0  0  0  0  0  0  0  0  0  0  0
   19.7401   -7.8125    7.5173 N   0  0  0  0  0  0  0  0  0  0  0  0
   15.9502   -9.0617   12.9028 N   0  0  0  0  0  0  0  0  0  0  0  0
   15.4666   -8.2051   12.8618 H   0  0  0  0  0  0  0  0  0  0  0  0
   16.8105   -9.3021   14.0202 C   0  0  0  0  0  0  0  0  0  0  0  0
   16.4512   -8.8744   15.2976 C   0  0  0  0  0  0  0  0  0  0  0  0
   17.2477   -9.0887   16.3832 C   0  0  0  0  0  0  0  0  0  0  0  0
   16.6720   -8.5819   17.4817 N   0  0  0  0  0  0  0  0  0  0  0  0
   15.5149   -8.0470   17.1013 N   0  0  0  0  0  0  0  0  0  0  0  0
   15.3413   -8.2059   15.7650 C   0  0  0  0  0  0  0  0  0  0  0  0
   18.4710   -9.7473   16.2879 C   0  0  0  0  0  0  0  0  0  0  0  0
   18.8678  -10.1935   15.0133 C   0  0  0  0  0  0  0  0  0  0  0  0
   18.0445   -9.9734   13.8863 C   0  0  0  0  0  0  0  0  0  0  0  0
   17.0360   -8.6015   18.3962 H   0  0  0  0  0  0  0  0  0  0  0  0
  4  5  1  0  0  0
  5  6  1  0  0  0
  6  7  2  0  0  0
  7  8  1  0  0  0
  8  9  2  0  0  0
  9 10  1  0  0  0
 10  1  1  0  0  0
  1 15  1  0  0  0
 15 17  1  0  0  0
 17 18  1  0  0  0
 18 19  2  0  0  0
 19 20  1  0  0  0
 20 21  1  0  0  0
 21 22  2  0  0  0
 19 23  1  0  0  0
 23 24  2  0  0  0
 24 25  1  0  0  0
  1  2  2  0  0  0
  1  3  2  0  0  0
 10 11  2  0  0  0
  7 12  1  0  0  0
 12 13  1  0  0  0
 12 14  1  0  0  0
 14  5  2  0  0  0
 11  6  1  0  0  0
 25 17  2  0  0  0
 22 18  1  0  0  0
 15 16  1  0  0  0
 20 26  1  0  0  0
M  END
>  <minimizedAffinity>
-5.71566

>  <minimizedRMSD>
1.57488

$$$$
CSC027427062 29069661 CSSS00027427062 MCULE-3894342150 MolPort-009-255-672 PubChem-36240936 Z300115002 ZINC000029069661


 29 31  0  0  0  0  0  0  0  0999 V2000
   17.7259  -10.2018   11.3240 N   0  0  0  0  0  0  0  0  0  0  0  0
   17.0717   -9.5532   12.4227 C   0  0  0  0  0  0  0  0  0  0  0  0
   16.2658   -8.6067   12.2084 O   0  0  0  0  0  0  0  0  0  0  0  0
   18.1962  -11.0487   11.4993 H   0  0  0  0  0  0  0  0  0  0  0  0
   19.2364   -7.3562    6.2678 C   0  0  0  0  0  0  0  0  0  0  0  0
   17.8130   -8.1983    5.8924 S   0  0  0  0  0  0  0  0  0  0  0  0
   17.6587   -8.8417    7.4313 C   0  0  0  0  0  0  0  0  0  0  0  0
   18.6937   -8.4236    8.2373 C   0  0  0  0  0  0  0  0  0  0  0  0
   18.7399   -8.8769    9.5550 C   0  0  0  0  0  0  0  0  0  0  0  0
   17.7351   -9.6989   10.0100 N   0  0  0  0  0  0  0  0  0  0  0  0
   16.7405  -10.1112    9.1645 C   0  0  0  0  0  0  0  0  0  0  0  0
   16.6948   -9.6813    7.8721 N   0  0  0  0  0  0  0  0  0  0  0  0
   19.7062   -8.5573   10.3001 O   0  0  0  0  0  0  0  0  0  0  0  0
   19.6079   -7.5815    7.5938 C   0  0  0  0  0  0  0  0  0  0  0  0
   21.3375   -7.1840    4.9876 C   0  0  0  0  0  0  0  0  0  0  0  0
   20.0119   -6.5214    5.3087 C   0  0  0  0  0  0  0  0  0  0  0  0
   17.3076  -10.0207   13.7995 C   0  0  0  0  0  0  0  0  0  0  0  0
   16.9645   -9.2119   14.8910 C   0  0  0  0  0  0  0  0  0  0  0  0
   17.1860   -9.6459   16.2063 C   0  0  0  0  0  0  0  0  0  0  0  0
   17.7603  -10.9101   16.4254 C   0  0  0  0  0  0  0  0  0  0  0  0
   18.0138  -11.4128   17.8053 C   0  0  0  0  0  0  0  0  0  0  0  0
   18.1042  -11.7191   15.3387 C   0  0  0  0  0  0  0  0  0  0  0  0
   17.8795  -11.2776   14.0330 C   0  0  0  0  0  0  0  0  0  0  0  0
   16.8337   -8.8158   17.3198 N   0  0  0  0  0  0  0  0  0  0  0  0
   17.5435   -8.5619   17.9531 H   0  0  0  0  0  0  0  0  0  0  0  0
   15.2282   -8.2339   17.6142 S   0  0  0  0  0  0  0  0  0  0  0  0
   15.1188   -7.6583   19.2914 C   0  0  0  0  0  0  0  0  0  0  0  0
   14.2379   -9.3453   17.4097 O   0  0  0  0  0  0  0  0  0  0  0  0
   14.9201   -7.0962   16.6825 O   0  0  0  0  0  0  0  0  0  0  0  0
 15 16  1  0  0  0
 16  5  1  0  0  0
  5  6  1  0  0  0
  6  7  1  0  0  0
  7  8  2  0  0  0
  8  9  1  0  0  0
  9 10  1  0  0  0
 10 11  1  0  0  0
 11 12  2  0  0  0
 10  1  1  0  0  0
  1  2  1  0  0  0
  2 17  1  0  0  0
 17 18  2  0  0  0
 18 19  1  0  0  0
 19 24  1  0  0  0
 24 26  1  0  0  0
 26 27  1  0  0  0
 26 28  2  0  0  0
 26 29  2  0  0  0
 19 20  2  0  0  0
 20 21  1  0  0  0
 20 22  1  0  0  0
 22 23  2  0  0  0
  2  3  2  0  0  0
  9 13  2  0  0  0
  8 14  1  0  0  0
 14  5  2  0  0  0
 12  7  1  0  0  0
 23 17  1  0  0  0
  1  4  1  0  0  0
 24 25  1  0  0  0
M  END
>  <minimizedAffinity>
-5.71411

>  <minimizedRMSD>
1.28895

$$$$
CSC027745559 40088577 CSSS00027745559 MCULE-9032744060 MolPort-009-300-572 PubChem-45883727 Z648236928 ZINC000040088577


 30 33  0  0  0  0  0  0  0  0999 V2000
   16.0877   -9.5878    8.5075 C   0  0  0  0  0  0  0  0  0  0  0  0
   17.5539   -9.9812    8.5285 C   0  0  0  0  0  0  0  0  0  0  0  0
   21.7122   -5.4865    4.4989 C   0  0  0  0  0  0  0  0  0  0  0  0
   20.7086   -6.5107    4.8888 C   0  0  0  0  0  0  0  0  0  0  0  0
   20.5546   -6.8429    6.2040 N   0  0  0  0  0  0  0  0  0  0  0  0
   19.6332   -7.7813    6.5334 C   0  0  0  0  0  0  0  0  0  0  0  0
   18.8749   -8.3821    5.6077 N   0  0  0  0  0  0  0  0  0  0  0  0
   18.0498   -9.2455    6.1804 N   0  0  0  0  0  0  0  0  0  0  0  0
   18.3035   -9.1925    7.5112 C   0  0  0  0  0  0  0  0  0  0  0  0
   19.3048   -8.2626    7.7754 C   0  0  0  0  0  0  0  0  0  0  0  0
   18.9810   -8.0926    4.2859 C   0  0  0  0  0  0  0  0  0  0  0  0
   18.1276   -8.7689    3.2693 C   0  0  0  0  0  0  0  0  0  0  0  0
   19.9223   -7.1302    3.8972 C   0  0  0  0  0  0  0  0  0  0  0  0
   19.8503   -7.8774    9.0502 C   0  0  0  0  0  0  0  0  0  0  0  0
   20.2886   -7.5686   10.0756 N   0  0  0  0  0  0  0  0  0  0  0  0
   15.3704  -10.1772    9.7075 C   0  0  0  0  0  0  0  0  0  0  0  0
   16.0278   -9.7447   10.9306 N   0  0  0  0  0  0  0  0  0  0  0  0
   15.3794   -9.7848   12.2025 C   0  0  0  0  0  0  0  0  0  0  0  0
   14.2214  -10.2715   12.3089 O   0  0  0  0  0  0  0  0  0  0  0  0
   16.9531   -9.4123   10.8799 H   0  0  0  0  0  0  0  0  0  0  0  0
   16.0571   -9.2521   13.3929 C   0  0  0  0  0  0  0  0  0  0  0  0
   17.2327   -9.6954   13.9582 C   0  0  0  0  0  0  0  0  0  0  0  0
   17.4410   -8.8682   15.0250 C   0  0  0  0  0  0  0  0  0  0  0  0
   18.5512   -9.0008   15.8548 C   0  0  0  0  0  0  0  0  0  0  0  0
   19.4644  -10.0293   15.5544 C   0  0  0  0  0  0  0  0  0  0  0  0
   19.2482  -10.8842   14.4498 C   0  0  0  0  0  0  0  0  0  0  0  0
   18.1156  -10.7227   13.6305 C   0  0  0  0  0  0  0  0  0  0  0  0
   16.4515   -7.9634   15.1163 N   0  0  0  0  0  0  0  0  0  0  0  0
   15.6060   -8.1993   14.1162 N   0  0  0  0  0  0  0  0  0  0  0  0
   16.3677   -7.2570   15.7970 H   0  0  0  0  0  0  0  0  0  0  0  0
  3  4  1  0  0  0
  4  5  2  0  0  0
  5  6  1  0  0  0
  6  7  1  0  0  0
  7  8  1  0  0  0
  8  9  2  0  0  0
  9 10  1  0  0  0
 10 14  1  0  0  0
 14 15  3  0  0  0
  9  2  1  0  0  0
  2  1  1  0  0  0
  1 16  1  0  0  0
 16 17  1  0  0  0
 17 18  1  0  0  0
 18 21  1  0  0  0
 21 22  1  0  0  0
 22 23  1  0  0  0
 23 24  2  0  0  0
 24 25  1  0  0  0
 25 26  2  0  0  0
 26 27  1  0  0  0
 23 28  1  0  0  0
 28 29  1  0  0  0
 18 19  2  0  0  0
  7 11  1  0  0  0
 11 12  1  0  0  0
 11 13  2  0  0  0
 13  4  1  0  0  0
 10  6  2  0  0  0
 29 21  2  0  0  0
 27 22  2  0  0  0
 17 20  1  0  0  0
 28 30  1  0  0  0
M  END
>  <minimizedAffinity>
-5.69471

>  <minimizedRMSD>
2.78571

$$$$
CSSS03436954246 MCULE-1310067351 MolPort-035-823-135


 29 32  0  0  0  0  0  0  0  0999 V2000
   16.8713  -10.6824   14.0866 C   0  0  0  0  0  0  0  0  0  0  0  0
   16.6401  -12.1433   14.4893 C   0  0  0  0  0  0  0  0  0  0  0  0
   17.8936  -12.7610   15.1109 C   0  0  0  0  0  0  0  0  0  0  0  0
   19.0797  -12.6286   14.1610 C   0  0  0  0  0  0  0  0  0  0  0  0
   19.3393  -11.1559   13.8680 C   0  0  0  0  0  0  0  0  0  0  0  0
   18.1232  -10.5410   13.3382 N   0  0  0  0  0  0  0  0  0  0  0  0
   18.1506   -9.8643   12.0721 C   0  0  0  0  0  0  0  0  0  0  0  0
   19.2304   -9.7655   11.4300 O   0  0  0  0  0  0  0  0  0  0  0  0
   16.1622   -8.5228   16.8927 C   0  0  0  0  0  0  0  0  0  0  0  0
   15.6741   -9.3667   15.9105 C   0  0  0  0  0  0  0  0  0  0  0  0
   16.8291   -9.7536   15.2598 C   0  0  0  0  0  0  0  0  0  0  0  0
   17.9127   -9.1803   15.8162 N   0  0  0  0  0  0  0  0  0  0  0  0
   17.5025   -8.4246   16.8194 N   0  0  0  0  0  0  0  0  0  0  0  0
   18.0764   -7.8846   17.4095 H   0  0  0  0  0  0  0  0  0  0  0  0
   15.7930   -7.7256   19.2386 N   0  0  0  0  0  0  0  0  0  0  0  0
   15.3482   -7.8185   17.8896 C   0  0  0  0  0  0  0  0  0  0  0  0
   14.2528   -7.2927   17.5588 O   0  0  0  0  0  0  0  0  0  0  0  0
   15.2453   -7.2525   19.9061 H   0  0  0  0  0  0  0  0  0  0  0  0
   16.6484   -8.1343   19.5042 H   0  0  0  0  0  0  0  0  0  0  0  0
   16.9027   -9.2963   11.4745 C   0  0  0  0  0  0  0  0  0  0  0  0
   16.9342   -9.4303   10.0253 N   0  0  0  0  0  0  0  0  0  0  0  0
   16.2181  -10.3037    9.2769 C   0  0  0  0  0  0  0  0  0  0  0  0
   16.5108  -10.2093    7.9512 N   0  0  0  0  0  0  0  0  0  0  0  0
   17.4469   -9.2433    7.9027 C   0  0  0  0  0  0  0  0  0  0  0  0
   18.1041   -8.7509    6.7781 C   0  0  0  0  0  0  0  0  0  0  0  0
   19.0598   -7.7367    6.9794 C   0  0  0  0  0  0  0  0  0  0  0  0
   19.3301   -7.2504    8.2791 C   0  0  0  0  0  0  0  0  0  0  0  0
   18.6478   -7.7712    9.3943 C   0  0  0  0  0  0  0  0  0  0  0  0
   17.7081   -8.7725    9.1536 C   0  0  0  0  0  0  0  0  0  0  0  0
 15 16  1  0  0  0
 16 17  2  0  0  0
 16  9  1  0  0  0
  9 10  2  0  0  0
 10 11  1  0  0  0
 11 12  2  0  0  0
 12 13  1  0  0  0
 11  1  1  0  0  0
  1  2  1  0  0  0
  2  3  1  0  0  0
  3  4  1  0  0  0
  4  5  1  0  0  0
  5  6  1  0  0  0
  6  7  1  0  0  0
  7  8  2  0  0  0
  7 20  1  0  0  0
 20 21  1  0  0  0
 21 22  1  0  0  0
 22 23  2  0  0  0
 23 24  1  0  0  0
 24 25  2  0  0  0
 25 26  1  0  0  0
 26 27  2  0  0  0
 27 28  1  0  0  0
 28 29  2  0  0  0
 13  9  1  0  0  0
  6  1  1  0  0  0
 29 21  1  0  0  0
 29 24  1  0  0  0
 15 18  1  0  0  0
 15 19  1  0  0  0
 13 14  1  0  0  0
M  END
>  <minimizedAffinity>
-5.69039

>  <minimizedRMSD>
1.36362

$$$$
13638735 CSSS00132511412 ChemDiv-Y020-8740 LN00778112 MCULE-6444569791 MolPort-006-384-476 ZINC000013638735


 26 29  0  0  0  0  0  0  0  0999 V2000
   18.8494   -8.2833    7.5509 N   0  0  0  0  0  0  0  0  0  0  0  0
   19.9296   -7.5716    7.2959 N   0  0  0  0  0  0  0  0  0  0  0  0
   20.0695   -7.6483    5.9500 C   0  0  0  0  0  0  0  0  0  0  0  0
   19.1064   -8.3899    5.3404 N   0  0  0  0  0  0  0  0  0  0  0  0
   18.3700   -8.7611    6.4014 C   0  0  0  0  0  0  0  0  0  0  0  0
   17.2537   -9.5302    6.3600 N   0  0  0  0  0  0  0  0  0  0  0  0
   16.6108   -9.8201    7.5299 C   0  0  0  0  0  0  0  0  0  0  0  0
   17.1012   -9.3289    8.7606 C   0  0  0  0  0  0  0  0  0  0  0  0
   16.4686   -9.5977    9.9846 C   0  0  0  0  0  0  0  0  0  0  0  0
   17.0044   -9.1105   11.1518 N   0  0  0  0  0  0  0  0  0  0  0  0
   18.1122   -8.3160   11.1360 C   0  0  0  0  0  0  0  0  0  0  0  0
   18.7665   -8.0145    9.9410 C   0  0  0  0  0  0  0  0  0  0  0  0
   18.2636   -8.5311    8.7486 C   0  0  0  0  0  0  0  0  0  0  0  0
   15.3966  -10.2639   10.0028 O   0  0  0  0  0  0  0  0  0  0  0  0
   21.1733   -6.9829    5.2092 C   0  0  0  0  0  0  0  0  0  0  0  0
   16.3967   -9.3524   12.3975 N   0  0  0  0  0  0  0  0  0  0  0  0
   15.4407   -9.1393   12.4975 H   0  0  0  0  0  0  0  0  0  0  0  0
   17.0907   -9.8910   13.5273 C   0  0  0  0  0  0  0  0  0  0  0  0
   17.4177  -11.2115   13.5760 N   0  0  0  0  0  0  0  0  0  0  0  0
   18.0987  -11.7241   14.6336 C   0  0  0  0  0  0  0  0  0  0  0  0
   18.4375  -13.1705   14.6681 C   0  0  0  0  0  0  0  0  0  0  0  0
   18.4820  -10.8926   15.6843 C   0  0  0  0  0  0  0  0  0  0  0  0
   18.1496   -9.5407   15.6126 C   0  0  0  0  0  0  0  0  0  0  0  0
   18.5180   -8.6804   16.6377 O   0  0  0  0  0  0  0  0  0  0  0  0
   17.4667   -9.0648   14.5388 N   0  0  0  0  0  0  0  0  0  0  0  0
   18.9889   -9.0086   17.3783 H   0  0  0  0  0  0  0  0  0  0  0  0
  1  2  1  0  0  0
  2  3  2  0  0  0
  3  4  1  0  0  0
  4  5  2  0  0  0
  5  6  1  0  0  0
  6  7  2  0  0  0
  7  8  1  0  0  0
  8  9  1  0  0  0
  9 10  1  0  0  0
 10 16  1  0  0  0
 16 18  1  0  0  0
 18 19  2  0  0  0
 19 20  1  0  0  0
 20 21  1  0  0  0
 20 22  2  0  0  0
 22 23  1  0  0  0
 23 24  1  0  0  0
 23 25  2  0  0  0
 10 11  1  0  0  0
 11 12  2  0  0  0
 12 13  1  0  0  0
  9 14  2  0  0  0
  3 15  1  0  0  0
  5  1  1  0  0  0
 13  8  2  0  0  0
 13  1  1  0  0  0
 25 18  1  0  0  0
 16 17  1  0  0  0
 24 26  1  0  0  0
M  END
>  <minimizedAffinity>
-5.68868

>  <minimizedRMSD>
2.35304

$$$$
CSC026807759 9338422 CSSS00026807759 MCULE-3426415133 MolPort-004-538-609 PubChem-16394019 UZSBRYJUHQMGKE-UHFFFAOYSA-N Z73226963 ZINC000009338422 ZINC09338422


 31 34  0  0  0  0  0  0  0  0999 V2000
   16.8316  -10.1494   12.4902 C   0  0  0  0  0  0  0  0  0  0  0  0
   17.7131  -10.7685   13.3832 C   0  0  0  0  0  0  0  0  0  0  0  0
   17.7170  -10.4119   14.7347 C   0  0  0  0  0  0  0  0  0  0  0  0
   16.8366   -9.4322   15.2039 C   0  0  0  0  0  0  0  0  0  0  0  0
   15.9528   -8.8093   14.3167 C   0  0  0  0  0  0  0  0  0  0  0  0
   15.9499   -9.1667   12.9660 C   0  0  0  0  0  0  0  0  0  0  0  0
   14.7190   -9.8343   10.4601 O   0  0  0  0  0  0  0  0  0  0  0  0
   15.8190  -10.3608   10.1452 C   0  0  0  0  0  0  0  0  0  0  0  0
   16.8650  -10.5350   11.1097 N   0  0  0  0  0  0  0  0  0  0  0  0
   17.6920  -10.9639   10.7911 H   0  0  0  0  0  0  0  0  0  0  0  0
   16.0587  -10.7613    8.7314 C   0  0  0  0  0  0  0  0  0  0  0  0
   16.9323   -9.7941    8.0847 N   0  0  0  0  0  0  0  0  0  0  0  0
   16.7802   -9.3457    6.8427 N   0  0  0  0  0  0  0  0  0  0  0  0
   17.6923   -8.4158    6.5582 N   0  0  0  0  0  0  0  0  0  0  0  0
   18.4327   -8.2780    7.6741 C   0  0  0  0  0  0  0  0  0  0  0  0
   19.5038   -7.4222    7.9101 C   0  0  0  0  0  0  0  0  0  0  0  0
   20.0929   -7.4729    9.1894 C   0  0  0  0  0  0  0  0  0  0  0  0
   19.6001   -8.3591   10.1774 C   0  0  0  0  0  0  0  0  0  0  0  0
   18.5107   -9.2085    9.9019 C   0  0  0  0  0  0  0  0  0  0  0  0
   17.9614   -9.1290    8.6247 C   0  0  0  0  0  0  0  0  0  0  0  0
   16.8641   -8.9725   16.8971 S   0  0  0  0  0  0  0  0  0  0  0  0
   16.5821  -10.1647   17.7684 O   0  0  0  0  0  0  0  0  0  0  0  0
   18.2235   -8.4309   17.2370 O   0  0  0  0  0  0  0  0  0  0  0  0
   15.6693   -7.7542   17.1930 N   0  0  0  0  0  0  0  0  0  0  0  0
   15.5167   -7.0660   16.5058 H   0  0  0  0  0  0  0  0  0  0  0  0
   14.8963   -7.7069   18.3930 C   0  0  0  0  0  0  0  0  0  0  0  0
   15.5280   -7.6713   19.5956 N   0  0  0  0  0  0  0  0  0  0  0  0
   14.8214   -7.6198   20.7550 C   0  0  0  0  0  0  0  0  0  0  0  0
   13.4281   -7.6016   20.7220 C   0  0  0  0  0  0  0  0  0  0  0  0
   12.7956   -7.6376   19.4807 C   0  0  0  0  0  0  0  0  0  0  0  0
   13.5360   -7.6896   18.3432 N   0  0  0  0  0  0  0  0  0  0  0  0
  7  8  2  0  0  0
  8 11  1  0  0  0
  8  9  1  0  0  0
 11 12  1  0  0  0
 12 13  1  0  0  0
 13 14  2  0  0  0
 14 15  1  0  0  0
 15 16  2  0  0  0
 16 17  1  0  0  0
 17 18  2  0  0  0
 18 19  1  0  0  0
 19 20  2  0  0  0
 20 12  1  0  0  0
 20 15  1  0  0  0
  9  1  1  0  0  0
  1  2  2  0  0  0
  2  3  1  0  0  0
  3  4  2  0  0  0
  4  5  1  0  0  0
  4 21  1  0  0  0
  5  6  2  0  0  0
  6  1  1  0  0  0
 21 22  2  0  0  0
 21 23  2  0  0  0
 21 24  1  0  0  0
 24 26  1  0  0  0
 26 27  2  0  0  0
 27 28  1  0  0  0
 28 29  2  0  0  0
 29 30  1  0  0  0
 30 31  2  0  0  0
 31 26  1  0  0  0
  9 10  1  0  0  0
 24 25  1  0  0  0
M  END
>  <minimizedAffinity>
-5.67836

>  <minimizedRMSD>
2.28840

$$$$
CSC028057688 6589897 CIBNBPLKAQMEDJ-UHFFFAOYSA-N CSSS00028057688 MCULE-8845122583 MolPort-005-326-016 PubChem-8006442 Z49498388 ZINC000006589897 ZINC06589897


 28 30  0  0  0  0  0  0  0  0999 V2000
   16.7973  -10.4278   13.6404 N   0  0  0  0  0  0  0  0  0  0  0  0
   15.9745   -9.8743   12.6055 C   0  0  0  0  0  0  0  0  0  0  0  0
   15.4656   -8.7277   12.7165 O   0  0  0  0  0  0  0  0  0  0  0  0
   17.1561  -11.3310   13.4834 H   0  0  0  0  0  0  0  0  0  0  0  0
   16.5630   -8.7029   16.9691 C   0  0  0  0  0  0  0  0  0  0  0  0
   17.9194   -8.5818   17.2869 C   0  0  0  0  0  0  0  0  0  0  0  0
   18.8901   -9.0697   16.4084 C   0  0  0  0  0  0  0  0  0  0  0  0
   18.5059   -9.6778   15.2097 C   0  0  0  0  0  0  0  0  0  0  0  0
   17.1518   -9.8018   14.8807 C   0  0  0  0  0  0  0  0  0  0  0  0
   16.1825   -9.3089   15.7673 C   0  0  0  0  0  0  0  0  0  0  0  0
   16.1040   -7.2958   19.4018 N   0  0  0  0  0  0  0  0  0  0  0  0
   15.3425   -8.0809   18.0639 S   0  0  0  0  0  0  0  0  0  0  0  0
   14.5024   -9.2147   18.5814 O   0  0  0  0  0  0  0  0  0  0  0  0
   14.4683   -7.0983   17.3375 O   0  0  0  0  0  0  0  0  0  0  0  0
   15.3906   -6.9358   20.0357 H   0  0  0  0  0  0  0  0  0  0  0  0
   16.6774   -6.5239   19.0616 H   0  0  0  0  0  0  0  0  0  0  0  0
   15.7490  -10.6560   11.3572 C   0  0  0  0  0  0  0  0  0  0  0  0
   16.3640   -9.9779   10.2225 N   0  0  0  0  0  0  0  0  0  0  0  0
   15.6873   -9.9152    9.0731 N   0  0  0  0  0  0  0  0  0  0  0  0
   16.1828   -9.2957    8.0018 N   0  0  0  0  0  0  0  0  0  0  0  0
   17.3983   -8.7010    8.0441 C   0  0  0  0  0  0  0  0  0  0  0  0
   17.9076   -8.0531    6.9151 C   0  0  0  0  0  0  0  0  0  0  0  0
   19.1636   -7.4410    6.9698 C   0  0  0  0  0  0  0  0  0  0  0  0
   19.9107   -7.4761    8.1519 C   0  0  0  0  0  0  0  0  0  0  0  0
   19.4039   -8.1237    9.2830 C   0  0  0  0  0  0  0  0  0  0  0  0
   18.1445   -8.7391    9.2335 C   0  0  0  0  0  0  0  0  0  0  0  0
   17.5953   -9.3978   10.3371 C   0  0  0  0  0  0  0  0  0  0  0  0
   18.2314   -9.4555   11.4270 O   0  0  0  0  0  0  0  0  0  0  0  0
 11 12  1  0  0  0
 12 13  2  0  0  0
 12 14  2  0  0  0
 12  5  1  0  0  0
  5  6  2  0  0  0
  6  7  1  0  0  0
  7  8  2  0  0  0
  8  9  1  0  0  0
  9  1  1  0  0  0
  9 10  2  0  0  0
  1  2  1  0  0  0
  2  3  2  0  0  0
  2 17  1  0  0  0
 17 18  1  0  0  0
 18 19  1  0  0  0
 19 20  2  0  0  0
 20 21  1  0  0  0
 21 22  2  0  0  0
 22 23  1  0  0  0
 23 24  2  0  0  0
 24 25  1  0  0  0
 25 26  2  0  0  0
 26 27  1  0  0  0
 26 21  1  0  0  0
 27 28  2  0  0  0
 27 18  1  0  0  0
 10  5  1  0  0  0
 11 15  1  0  0  0
 11 16  1  0  0  0
  1  4  1  0  0  0
M  END
>  <minimizedAffinity>
-5.67634

>  <minimizedRMSD>
1.39216

$$$$
CSC026595479 68881319 CSSS00026595479 MCULE-2522622505 MolPort-020-078-427 PubChem-135962902 Z1083960788 ZINC000068881319


 29 31  0  0  0  0  0  0  0  0999 V2000
   17.6280   -8.5462    8.3768 N   0  0  0  0  0  0  0  0  0  0  0  0
   17.4375   -9.1217    9.5750 C   0  0  0  0  0  0  0  0  0  0  0  0
   16.1770   -9.6078    9.6545 C   0  0  0  0  0  0  0  0  0  0  0  0
   15.7546  -10.2483   10.8100 C   0  0  0  0  0  0  0  0  0  0  0  0
   16.6459  -10.3635   11.8382 N   0  0  0  0  0  0  0  0  0  0  0  0
   17.9205   -9.8641   11.7388 C   0  0  0  0  0  0  0  0  0  0  0  0
   18.3262   -9.2333   10.5923 N   0  0  0  0  0  0  0  0  0  0  0  0
   14.5887  -10.7114   10.9153 O   0  0  0  0  0  0  0  0  0  0  0  0
   15.5694   -9.3155    8.4488 C   0  0  0  0  0  0  0  0  0  0  0  0
   16.4922   -8.6635    7.6909 N   0  0  0  0  0  0  0  0  0  0  0  0
   16.3683  -10.8143   12.6682 H   0  0  0  0  0  0  0  0  0  0  0  0
   19.9581   -8.0201    8.9134 C   0  0  0  0  0  0  0  0  0  0  0  0
   18.8510   -7.8976    7.8818 C   0  0  0  0  0  0  0  0  0  0  0  0
   19.3295   -8.5430    6.5909 C   0  0  0  0  0  0  0  0  0  0  0  0
   18.5858   -6.4279    7.6088 C   0  0  0  0  0  0  0  0  0  0  0  0
   18.8169  -10.0080   12.8398 N   0  0  0  0  0  0  0  0  0  0  0  0
   19.3936   -9.2495   13.0875 H   0  0  0  0  0  0  0  0  0  0  0  0
   18.9052  -11.2401   13.6074 C   0  0  0  0  0  0  0  0  0  0  0  0
   18.2943  -11.0416   14.9492 C   0  0  0  0  0  0  0  0  0  0  0  0
   17.5437   -9.8912   15.2129 C   0  0  0  0  0  0  0  0  0  0  0  0
   16.9459   -9.7060   16.4682 C   0  0  0  0  0  0  0  0  0  0  0  0
   17.1041  -10.6904   17.4545 C   0  0  0  0  0  0  0  0  0  0  0  0
   17.8479  -11.8440   17.1895 C   0  0  0  0  0  0  0  0  0  0  0  0
   18.4406  -12.0208   15.9364 C   0  0  0  0  0  0  0  0  0  0  0  0
   16.1587   -8.4921   16.7468 C   0  0  0  0  0  0  0  0  0  0  0  0
   15.8378   -8.1317   18.0874 N   0  0  0  0  0  0  0  0  0  0  0  0
   15.7615   -7.7603   15.8012 O   0  0  0  0  0  0  0  0  0  0  0  0
   16.1424   -8.6953   18.8349 H   0  0  0  0  0  0  0  0  0  0  0  0
   15.3115   -7.3192   18.2661 H   0  0  0  0  0  0  0  0  0  0  0  0
 12 13  1  0  0  0
 13  1  1  0  0  0
  1  2  1  0  0  0
  2  3  2  0  0  0
  3  4  1  0  0  0
  4  5  1  0  0  0
  5  6  1  0  0  0
  6  7  2  0  0  0
  6 16  1  0  0  0
 16 18  1  0  0  0
 18 19  1  0  0  0
 19 20  2  0  0  0
 20 21  1  0  0  0
 21 25  1  0  0  0
 25 26  1  0  0  0
 25 27  2  0  0  0
 21 22  2  0  0  0
 22 23  1  0  0  0
 23 24  2  0  0  0
  4  8  2  0  0  0
  3  9  1  0  0  0
  9 10  2  0  0  0
 13 14  1  0  0  0
 13 15  1  0  0  0
 10  1  1  0  0  0
  7  2  1  0  0  0
 24 19  1  0  0  0
  5 11  1  0  0  0
 16 17  1  0  0  0
 26 28  1  0  0  0
 26 29  1  0  0  0
M  END
>  <minimizedAffinity>
-5.67443

>  <minimizedRMSD>
2.01275

$$$$
CSSS06744534317 Z5232932141


 28 30  0  0  0  0  0  0  0  0999 V2000
   16.8160  -10.1252   12.3001 C   0  0  0  0  0  0  0  0  0  0  0  0
   15.9092  -10.1689   13.1743 O   0  0  0  0  0  0  0  0  0  0  0  0
   18.1789  -10.3452   12.6687 N   0  0  0  0  0  0  0  0  0  0  0  0
   18.8691  -10.3214   11.9670 H   0  0  0  0  0  0  0  0  0  0  0  0
   20.1687   -7.8090    8.4133 C   0  0  0  0  0  0  0  0  0  0  0  0
   18.8401   -8.3818    8.7521 C   0  0  0  0  0  0  0  0  0  0  0  0
   18.5304   -8.8523    9.9917 N   0  0  0  0  0  0  0  0  0  0  0  0
   17.2828   -9.2964    9.9874 N   0  0  0  0  0  0  0  0  0  0  0  0
   16.4739   -9.8448   10.8959 C   0  0  0  0  0  0  0  0  0  0  0  0
   15.2699  -10.0731   10.2151 C   0  0  0  0  0  0  0  0  0  0  0  0
   14.0368  -10.6742   10.7948 C   0  0  0  0  0  0  0  0  0  0  0  0
   15.3562   -9.6661    8.9138 N   0  0  0  0  0  0  0  0  0  0  0  0
   16.6196   -9.2045    8.8596 C   0  0  0  0  0  0  0  0  0  0  0  0
   17.5373   -8.5209    7.6349 S   0  0  0  0  0  0  0  0  0  0  0  0
   18.6625  -10.6520   14.3024 S   0  0  0  0  0  0  0  0  0  0  0  0
   18.6229  -12.1329   14.5578 O   0  0  0  0  0  0  0  0  0  0  0  0
   20.0655  -10.1556   14.5074 O   0  0  0  0  0  0  0  0  0  0  0  0
   17.5878   -9.8134   15.4063 C   0  0  0  0  0  0  0  0  0  0  0  0
   17.1546   -8.5180   15.1072 C   0  0  0  0  0  0  0  0  0  0  0  0
   16.2959   -7.8466   15.9818 C   0  0  0  0  0  0  0  0  0  0  0  0
   15.8630   -8.4647   17.1643 C   0  0  0  0  0  0  0  0  0  0  0  0
   16.3024   -9.7633   17.4592 C   0  0  0  0  0  0  0  0  0  0  0  0
   17.1610  -10.4347   16.5843 C   0  0  0  0  0  0  0  0  0  0  0  0
   14.9574   -7.7575   18.0865 C   0  0  0  0  0  0  0  0  0  0  0  0
   13.9268   -7.1802   17.6484 O   0  0  0  0  0  0  0  0  0  0  0  0
   15.2361   -7.7183   19.4833 N   0  0  0  0  0  0  0  0  0  0  0  0
   16.0382   -8.1655   19.8380 H   0  0  0  0  0  0  0  0  0  0  0  0
   14.6265   -7.2439   20.0937 H   0  0  0  0  0  0  0  0  0  0  0  0
  5  6  1  0  0  0
  6  7  2  0  0  0
  7  8  1  0  0  0
  8  9  1  0  0  0
  9  1  1  0  0  0
  1  2  2  0  0  0
  1  3  1  0  0  0
  3 15  1  0  0  0
 15 16  2  0  0  0
 15 17  2  0  0  0
 15 18  1  0  0  0
 18 19  2  0  0  0
 19 20  1  0  0  0
 20 21  2  0  0  0
 21 22  1  0  0  0
 22 23  2  0  0  0
 21 24  1  0  0  0
 24 25  2  0  0  0
 24 26  1  0  0  0
  9 10  2  0  0  0
 10 11  1  0  0  0
 10 12  1  0  0  0
 12 13  2  0  0  0
 13 14  1  0  0  0
 14  6  1  0  0  0
 13  8  1  0  0  0
 23 18  1  0  0  0
  3  4  1  0  0  0
 26 27  1  0  0  0
 26 28  1  0  0  0
M  END
>  <minimizedAffinity>
-5.67237

>  <minimizedRMSD>
1.35222

$$$$
72146295 CSSS00159603643 MCULE-4820646936 MolPort-020-212-749 ZINC000072146295


 28 31  0  0  0  0  0  0  0  0999 V2000
   18.5518  -10.0076   12.1669 N   0  0  0  0  0  0  0  0  0  0  0  0
   19.4772   -9.6796   12.2397 H   0  0  0  0  0  0  0  0  0  0  0  0
   17.6411   -8.7384    8.8300 C   0  0  0  0  0  0  0  0  0  0  0  0
   18.3666   -7.9998    7.9852 N   0  0  0  0  0  0  0  0  0  0  0  0
   17.9679   -7.5240    6.6723 C   0  0  0  0  0  0  0  0  0  0  0  0
   19.5462   -7.7601    8.5468 N   0  0  0  0  0  0  0  0  0  0  0  0
   19.5818   -8.3536    9.7718 C   0  0  0  0  0  0  0  0  0  0  0  0
   18.3607   -8.9795    9.9508 C   0  0  0  0  0  0  0  0  0  0  0  0
   17.8123   -9.7353   10.9762 C   0  0  0  0  0  0  0  0  0  0  0  0
   16.5414  -10.2115   10.8030 N   0  0  0  0  0  0  0  0  0  0  0  0
   15.8284   -9.9496    9.6592 C   0  0  0  0  0  0  0  0  0  0  0  0
   16.3825   -9.2072    8.6523 N   0  0  0  0  0  0  0  0  0  0  0  0
   14.4542  -10.5055    9.4991 C   0  0  0  0  0  0  0  0  0  0  0  0
   13.5837  -10.1512   10.6941 C   0  0  0  0  0  0  0  0  0  0  0  0
   14.4108  -10.1214   11.9659 C   0  0  0  0  0  0  0  0  0  0  0  0
   17.9793  -10.7547   13.2750 C   0  0  0  0  0  0  0  0  0  0  0  0
   18.1611   -9.9940   14.5404 C   0  0  0  0  0  0  0  0  0  0  0  0
   19.4476   -9.7453   15.0287 C   0  0  0  0  0  0  0  0  0  0  0  0
   19.6190   -9.0104   16.2050 C   0  0  0  0  0  0  0  0  0  0  0  0
   18.5044   -8.5191   16.8910 C   0  0  0  0  0  0  0  0  0  0  0  0
   17.2119   -8.7580   16.4037 C   0  0  0  0  0  0  0  0  0  0  0  0
   17.0468   -9.4955   15.2232 C   0  0  0  0  0  0  0  0  0  0  0  0
   16.0396   -8.2376   17.1227 C   0  0  0  0  0  0  0  0  0  0  0  0
   15.9255   -8.1940   18.4629 N   0  0  0  0  0  0  0  0  0  0  0  0
   14.7342   -7.6618   18.6809 N   0  0  0  0  0  0  0  0  0  0  0  0
   14.1459   -7.3921   17.5263 N   0  0  0  0  0  0  0  0  0  0  0  0
   14.9393   -7.7417   16.5271 N   0  0  0  0  0  0  0  0  0  0  0  0
   16.5828   -8.4920   19.1325 H   0  0  0  0  0  0  0  0  0  0  0  0
  3  4  1  0  0  0
  4  5  1  0  0  0
  4  6  1  0  0  0
  6  7  2  0  0  0
  7  8  1  0  0  0
  8  9  1  0  0  0
  9 10  2  0  0  0
 10 11  1  0  0  0
 11 13  1  0  0  0
 13 14  1  0  0  0
 14 15  1  0  0  0
 11 12  2  0  0  0
  9  1  1  0  0  0
  1 16  1  0  0  0
 16 17  1  0  0  0
 17 18  2  0  0  0
 18 19  1  0  0  0
 19 20  2  0  0  0
 20 21  1  0  0  0
 21 22  2  0  0  0
 21 23  1  0  0  0
 23 24  1  0  0  0
 24 25  1  0  0  0
 25 26  2  0  0  0
 26 27  1  0  0  0
  8  3  2  0  0  0
 22 17  1  0  0  0
 27 23  2  0  0  0
 12  3  1  0  0  0
  1  2  1  0  0  0
 24 28  1  0  0  0
M  END
>  <minimizedAffinity>
-5.66465

>  <minimizedRMSD>
2.05064

$$$$
97694633 CSSS00160090809 MCULE-3310298052 MolPort-030-057-987 PubChem-74244632 ZINC000097694633 ZINC97694633


 30 32  0  0  0  0  0  0  0  0999 V2000
   17.1964  -10.1653   13.5382 N   0  0  0  0  0  0  0  0  0  0  0  0
   18.2702  -10.7399   12.7775 C   0  0  0  0  0  0  0  0  0  0  0  0
   19.1774  -11.4022   13.3510 O   0  0  0  0  0  0  0  0  0  0  0  0
   18.3112  -10.5613   11.3532 N   0  0  0  0  0  0  0  0  0  0  0  0
   19.3296  -11.2286   10.5584 C   0  0  0  0  0  0  0  0  0  0  0  0
   16.4977   -9.6981   13.0257 H   0  0  0  0  0  0  0  0  0  0  0  0
   16.1998   -9.2064   17.0355 C   0  0  0  0  0  0  0  0  0  0  0  0
   16.7082  -10.2966   17.7518 C   0  0  0  0  0  0  0  0  0  0  0  0
   17.3709  -11.3300   17.0866 C   0  0  0  0  0  0  0  0  0  0  0  0
   17.5330  -11.2856   15.6991 C   0  0  0  0  0  0  0  0  0  0  0  0
   18.2428  -12.4087   15.0233 C   0  0  0  0  0  0  0  0  0  0  0  0
   17.0293  -10.1970   14.9647 C   0  0  0  0  0  0  0  0  0  0  0  0
   16.3640   -9.1655   15.6445 C   0  0  0  0  0  0  0  0  0  0  0  0
   15.6312   -7.9719   19.1520 N   0  0  0  0  0  0  0  0  0  0  0  0
   15.4979   -8.1163   17.7353 C   0  0  0  0  0  0  0  0  0  0  0  0
   14.7758   -7.3110   17.0855 O   0  0  0  0  0  0  0  0  0  0  0  0
   16.1954   -8.6102   19.6454 H   0  0  0  0  0  0  0  0  0  0  0  0
   14.9599   -6.9124   19.8857 C   0  0  0  0  0  0  0  0  0  0  0  0
   13.2503   -6.4374   21.6070 C   0  0  0  0  0  0  0  0  0  0  0  0
   13.8202   -7.4999   20.6914 C   0  0  0  0  0  0  0  0  0  0  0  0
   17.2869   -9.7967   10.6508 C   0  0  0  0  0  0  0  0  0  0  0  0
   17.8881   -8.9980    9.5418 C   0  0  0  0  0  0  0  0  0  0  0  0
   17.5855   -9.3270    8.2048 C   0  0  0  0  0  0  0  0  0  0  0  0
   18.1644   -8.5417    7.2141 C   0  0  0  0  0  0  0  0  0  0  0  0
   18.0407   -8.6366    5.8839 N   0  0  0  0  0  0  0  0  0  0  0  0
   18.7856   -7.6629    5.4189 O   0  0  0  0  0  0  0  0  0  0  0  0
   19.3800   -6.9471    6.3429 N   0  0  0  0  0  0  0  0  0  0  0  0
   18.9872   -7.5033    7.4965 C   0  0  0  0  0  0  0  0  0  0  0  0
   19.3173   -7.1435    8.7989 C   0  0  0  0  0  0  0  0  0  0  0  0
   18.7513   -7.9126    9.8348 C   0  0  0  0  0  0  0  0  0  0  0  0
 19 20  1  0  0  0
 20 18  1  0  0  0
 18 14  1  0  0  0
 14 15  1  0  0  0
 15 16  2  0  0  0
 15  7  1  0  0  0
  7  8  2  0  0  0
  8  9  1  0  0  0
  9 10  2  0  0  0
 10 11  1  0  0  0
 10 12  1  0  0  0
 12  1  1  0  0  0
 12 13  2  0  0  0
  1  2  1  0  0  0
  2  3  2  0  0  0
  2  4  1  0  0  0
  4  5  1  0  0  0
  4 21  1  0  0  0
 21 22  1  0  0  0
 22 23  2  0  0  0
 23 24  1  0  0  0
 24 25  2  0  0  0
 25 26  1  0  0  0
 26 27  1  0  0  0
 27 28  2  0  0  0
 28 29  1  0  0  0
 28 24  1  0  0  0
 29 30  2  0  0  0
 30 22  1  0  0  0
 13  7  1  0  0  0
 14 17  1  0  0  0
  1  6  1  0  0  0
M  END
>  <minimizedAffinity>
-5.66025

>  <minimizedRMSD>
3.02841

$$$$
CSSS01598962269 Z1570720585


 26 30  0  0  0  0  0  0  0  0999 V2000
   18.0723  -10.0125   11.5697 C   0  0  0  0  0  0  0  0  0  0  0  0
   16.7606   -8.6769   13.0227 O   0  0  0  0  0  0  0  0  0  0  0  0
   17.5026   -9.6891   12.9108 C   0  0  0  0  0  0  0  0  0  0  0  0
   17.7579  -10.5389   14.0439 N   0  0  0  0  0  0  0  0  0  0  0  0
   18.6682  -11.6886   13.9244 C   0  0  0  0  0  0  0  0  0  0  0  0
   18.2702  -12.8300   14.8845 C   0  0  0  0  0  0  0  0  0  0  0  0
   18.1698  -12.3678   16.3516 C   0  0  0  0  0  0  0  0  0  0  0  0
   17.4480  -11.0627   16.4218 C   0  0  0  0  0  0  0  0  0  0  0  0
   16.9338  -10.4587   17.5036 N   0  0  0  0  0  0  0  0  0  0  0  0
   16.4407   -9.2999   17.0732 N   0  0  0  0  0  0  0  0  0  0  0  0
   16.6295   -9.1348   15.7667 N   0  0  0  0  0  0  0  0  0  0  0  0
   17.2639  -10.2440   15.3577 C   0  0  0  0  0  0  0  0  0  0  0  0
   16.9233  -10.8021   18.4262 H   0  0  0  0  0  0  0  0  0  0  0  0
   18.1571   -8.7500   10.7299 C   0  0  0  0  0  0  0  0  0  0  0  0
   17.7898   -9.0377    9.3488 N   0  0  0  0  0  0  0  0  0  0  0  0
   16.7610   -9.8068    8.9087 C   0  0  0  0  0  0  0  0  0  0  0  0
   16.6435   -9.8215    7.5526 N   0  0  0  0  0  0  0  0  0  0  0  0
   17.6577   -9.0312    7.1529 C   0  0  0  0  0  0  0  0  0  0  0  0
   18.0013   -8.6882    5.8478 C   0  0  0  0  0  0  0  0  0  0  0  0
   19.0975   -7.8227    5.6723 C   0  0  0  0  0  0  0  0  0  0  0  0
   19.8083   -7.3262    6.7884 C   0  0  0  0  0  0  0  0  0  0  0  0
   19.4335   -7.6897    8.0951 C   0  0  0  0  0  0  0  0  0  0  0  0
   18.3472   -8.5537    8.2297 C   0  0  0  0  0  0  0  0  0  0  0  0
   15.8032  -10.5150    9.8178 C   0  0  0  0  0  0  0  0  0  0  0  0
   14.3874  -10.3463    9.2981 C   0  0  0  0  0  0  0  0  0  0  0  0
   14.8616   -9.5181   10.4697 C   0  0  0  0  0  0  0  0  0  0  0  0
  2  3  2  0  0  0
  3  1  1  0  0  0
  1 14  1  0  0  0
 14 15  1  0  0  0
 15 16  1  0  0  0
 16 17  2  0  0  0
 17 18  1  0  0  0
 18 19  2  0  0  0
 19 20  1  0  0  0
 20 21  2  0  0  0
 21 22  1  0  0  0
 22 23  2  0  0  0
 16 24  1  0  0  0
 24 25  1  0  0  0
 25 26  1  0  0  0
  3  4  1  0  0  0
  4  5  1  0  0  0
  5  6  1  0  0  0
  6  7  1  0  0  0
  7  8  1  0  0  0
  8  9  1  0  0  0
  9 10  1  0  0  0
 10 11  2  0  0  0
 11 12  1  0  0  0
 23 15  1  0  0  0
 26 24  1  0  0  0
 12  4  1  0  0  0
 23 18  1  0  0  0
 12  8  2  0  0  0
  9 13  1  0  0  0
M  END
>  <minimizedAffinity>
-5.66011

>  <minimizedRMSD>
2.18239

$$$$
CSC059051450 301361729 CSSS00059051450 MolPort-047-747-065 PubChem-155948696 Z1272150958


 26 29  0  0  0  0  0  0  0  0999 V2000
   17.4882   -9.6056   13.3995 N   0  0  0  0  0  0  0  0  0  0  0  0
   16.1576   -9.3495   12.8539 C   0  0  0  0  0  0  0  0  0  0  0  0
   16.1436   -9.6994   11.3687 C   0  0  0  0  0  0  0  0  0  0  0  0
   17.2606   -8.9422   10.6417 C   0  0  0  0  0  0  0  0  0  0  0  0
   18.6202   -9.2637   11.2670 C   0  0  0  0  0  0  0  0  0  0  0  0
   18.6066   -8.9234   12.7551 C   0  0  0  0  0  0  0  0  0  0  0  0
   17.2826   -9.2574    9.1742 C   0  0  0  0  0  0  0  0  0  0  0  0
   16.5110  -10.1921    8.5687 N   0  0  0  0  0  0  0  0  0  0  0  0
   16.8060  -10.1778    7.2710 N   0  0  0  0  0  0  0  0  0  0  0  0
   17.7503   -9.2331    7.1129 C   0  0  0  0  0  0  0  0  0  0  0  0
   18.3641   -8.8573    5.9216 C   0  0  0  0  0  0  0  0  0  0  0  0
   19.3260   -7.8346    5.9937 C   0  0  0  0  0  0  0  0  0  0  0  0
   19.6397   -7.2279    7.2273 C   0  0  0  0  0  0  0  0  0  0  0  0
   18.9840   -7.6527    8.3929 C   0  0  0  0  0  0  0  0  0  0  0  0
   18.0664   -8.6442    8.2726 N   0  0  0  0  0  0  0  0  0  0  0  0
   17.5913  -10.8488   15.5585 C   0  0  0  0  0  0  0  0  0  0  0  0
   17.7533  -12.0810   16.2047 C   0  0  0  0  0  0  0  0  0  0  0  0
   18.0640  -13.2300   15.4810 C   0  0  0  0  0  0  0  0  0  0  0  0
   18.2175  -13.1405   14.1004 C   0  0  0  0  0  0  0  0  0  0  0  0
   18.0471  -11.9480   13.4730 N   0  0  0  0  0  0  0  0  0  0  0  0
   17.7275  -10.8069   14.1475 C   0  0  0  0  0  0  0  0  0  0  0  0
   15.7125   -8.1043   17.5311 C   0  0  0  0  0  0  0  0  0  0  0  0
   16.0085   -9.2624   16.7046 N   0  0  0  0  0  0  0  0  0  0  0  0
   17.3492   -9.6485   16.3904 C   0  0  0  0  0  0  0  0  0  0  0  0
   18.3156   -8.9871   16.8586 O   0  0  0  0  0  0  0  0  0  0  0  0
   15.2625   -9.7980   16.3498 H   0  0  0  0  0  0  0  0  0  0  0  0
 22 23  1  0  0  0
 23 24  1  0  0  0
 24 25  2  0  0  0
 24 16  1  0  0  0
 16 17  2  0  0  0
 17 18  1  0  0  0
 18 19  2  0  0  0
 19 20  1  0  0  0
 20 21  2  0  0  0
 21  1  1  0  0  0
  1  2  1  0  0  0
  2  3  1  0  0  0
  3  4  1  0  0  0
  4  5  1  0  0  0
  5  6  1  0  0  0
  4  7  1  0  0  0
  7  8  2  0  0  0
  8  9  1  0  0  0
  9 10  2  0  0  0
 10 11  1  0  0  0
 11 12  2  0  0  0
 12 13  1  0  0  0
 13 14  2  0  0  0
 14 15  1  0  0  0
 21 16  1  0  0  0
  6  1  1  0  0  0
 15  7  1  0  0  0
 15 10  1  0  0  0
 23 26  1  0  0  0
M  END
>  <minimizedAffinity>
-5.65595

>  <minimizedRMSD>
1.53958

$$$$
CSC027740615 2634887 CSSS00027740615 MCULE-2000450773 MolPort-004-036-428 PubChem-2097461 Z20255118 ZINC000002634887 ZINC02634887


 29 31  0  0  0  0  0  0  0  0999 V2000
   16.0404   -8.5166   16.1533 C   0  0  0  0  0  0  0  0  0  0  0  0
   15.8978   -7.5051   15.2757 N   0  0  0  0  0  0  0  0  0  0  0  0
   16.0757   -8.0178   14.0655 N   0  0  0  0  0  0  0  0  0  0  0  0
   16.3242   -9.3318   14.2278 C   0  0  0  0  0  0  0  0  0  0  0  0
   16.3078   -9.6769   15.5277 N   0  0  0  0  0  0  0  0  0  0  0  0
   16.5731  -10.9820   16.1191 C   0  0  0  0  0  0  0  0  0  0  0  0
   18.0144  -11.0596   16.5854 C   0  0  0  0  0  0  0  0  0  0  0  0
   15.9062   -8.3181   17.9302 S   0  0  0  0  0  0  0  0  0  0  0  0
   14.2947   -7.4773   17.8265 C   0  0  0  0  0  0  0  0  0  0  0  0
   13.9852   -7.4616   21.6906 C   0  0  0  0  0  0  0  0  0  0  0  0
   13.0563   -6.6469   21.9472 O   0  0  0  0  0  0  0  0  0  0  0  0
   14.3874   -7.7082   20.3393 N   0  0  0  0  0  0  0  0  0  0  0  0
   13.8214   -7.0822   19.1822 C   0  0  0  0  0  0  0  0  0  0  0  0
   12.9187   -6.2103   19.2910 O   0  0  0  0  0  0  0  0  0  0  0  0
   15.1108   -8.3599   20.1936 H   0  0  0  0  0  0  0  0  0  0  0  0
   14.6338   -8.1398   22.7228 O   0  0  0  0  0  0  0  0  0  0  0  0
   16.4795   -6.6779   23.1739 C   0  0  0  0  0  0  0  0  0  0  0  0
   15.3173   -7.4521   23.7600 C   0  0  0  0  0  0  0  0  0  0  0  0
   16.6116  -10.2642   13.0971 C   0  0  0  0  0  0  0  0  0  0  0  0
   18.4058  -10.4385   12.8398 S   0  0  0  0  0  0  0  0  0  0  0  0
   18.3752   -9.6153   11.2523 C   0  0  0  0  0  0  0  0  0  0  0  0
   17.3620   -9.7544   10.3638 N   0  0  0  0  0  0  0  0  0  0  0  0
   17.6045   -9.0288    9.2435 C   0  0  0  0  0  0  0  0  0  0  0  0
   16.7445   -8.9642    8.1472 C   0  0  0  0  0  0  0  0  0  0  0  0
   17.1175   -8.1732    7.0475 C   0  0  0  0  0  0  0  0  0  0  0  0
   18.3342   -7.4632    7.0562 C   0  0  0  0  0  0  0  0  0  0  0  0
   19.1930   -7.5355    8.1644 C   0  0  0  0  0  0  0  0  0  0  0  0
   18.7997   -8.3258    9.2409 C   0  0  0  0  0  0  0  0  0  0  0  0
   19.6086   -8.6035   10.6837 S   0  0  0  0  0  0  0  0  0  0  0  0
 17 18  1  0  0  0
 18 16  1  0  0  0
 16 10  1  0  0  0
 10 11  2  0  0  0
 10 12  1  0  0  0
 12 13  1  0  0  0
 13 14  2  0  0  0
 13  9  1  0  0  0
  9  8  1  0  0  0
  8  1  1  0  0  0
  1  2  2  0  0  0
  2  3  1  0  0  0
  3  4  2  0  0  0
  4 19  1  0  0  0
  4  5  1  0  0  0
 19 20  1  0  0  0
 20 21  1  0  0  0
 21 22  2  0  0  0
 22 23  1  0  0  0
 23 24  2  0  0  0
 24 25  1  0  0  0
 25 26  2  0  0  0
 26 27  1  0  0  0
 27 28  2  0  0  0
 28 29  1  0  0  0
 28 23  1  0  0  0
 29 21  1  0  0  0
  5  6  1  0  0  0
  5  1  1  0  0  0
  6  7  1  0  0  0
 12 15  1  0  0  0
M  END
>  <minimizedAffinity>
-5.62023

>  <minimizedRMSD>
2.64702

$$$$
CSC027212417 CSSS00027212417 MCULE-9333488908 MolPort-005-694-378 PubChem-27848729 Z190314934 ZINC000018124323


 33 37  0  0  0  0  0  0  0  0999 V2000
   15.4571   -8.2024   14.0017 C   0  0  0  0  0  0  0  0  0  0  0  0
   16.1354   -8.6269   15.2633 C   0  0  0  0  0  0  0  0  0  0  0  0
   15.6507   -8.3190   16.5489 C   0  0  0  0  0  0  0  0  0  0  0  0
   16.4484   -8.8170   17.5595 C   0  0  0  0  0  0  0  0  0  0  0  0
   16.1616   -8.6359   18.8701 N   0  0  0  0  0  0  0  0  0  0  0  0
   15.0458   -7.9300   19.2073 C   0  0  0  0  0  0  0  0  0  0  0  0
   14.2281   -7.4272   18.2346 N   0  0  0  0  0  0  0  0  0  0  0  0
   14.5035   -7.6014   16.9109 C   0  0  0  0  0  0  0  0  0  0  0  0
   13.7287   -7.1205   16.0426 O   0  0  0  0  0  0  0  0  0  0  0  0
   17.7579   -9.6424   16.9237 S   0  0  0  0  0  0  0  0  0  0  0  0
   17.3259   -9.3755   15.3053 C   0  0  0  0  0  0  0  0  0  0  0  0
   13.4212   -6.9274   18.4961 H   0  0  0  0  0  0  0  0  0  0  0  0
   18.1126   -9.8726   14.1604 C   0  0  0  0  0  0  0  0  0  0  0  0
   17.6097   -9.7621   12.8282 N   0  0  0  0  0  0  0  0  0  0  0  0
   19.2401  -10.3990   14.3639 O   0  0  0  0  0  0  0  0  0  0  0  0
   16.7231   -9.3582   12.6866 H   0  0  0  0  0  0  0  0  0  0  0  0
   18.3623  -10.2255   11.6747 C   0  0  0  0  0  0  0  0  0  0  0  0
   17.6212   -9.8823   10.4283 C   0  0  0  0  0  0  0  0  0  0  0  0
   18.0564   -9.0394    9.4802 N   0  0  0  0  0  0  0  0  0  0  0  0
   17.0481   -8.9958    8.6014 C   0  0  0  0  0  0  0  0  0  0  0  0
   17.1232   -8.2085    7.4562 C   0  0  0  0  0  0  0  0  0  0  0  0
   18.3018   -7.4650    7.2690 C   0  0  0  0  0  0  0  0  0  0  0  0
   19.3488   -7.5260    8.2120 C   0  0  0  0  0  0  0  0  0  0  0  0
   19.2102   -8.3397    9.3469 C   0  0  0  0  0  0  0  0  0  0  0  0
   16.0172   -9.7720    8.9825 N   0  0  0  0  0  0  0  0  0  0  0  0
   16.3778  -10.3263   10.1378 N   0  0  0  0  0  0  0  0  0  0  0  0
   14.6911   -7.7447   20.6430 C   0  0  0  0  0  0  0  0  0  0  0  0
   13.6330   -6.7045   20.7879 C   0  0  0  0  0  0  0  0  0  0  0  0
   13.8605   -5.5797   21.5893 C   0  0  0  0  0  0  0  0  0  0  0  0
   12.8759   -4.5939   21.7077 C   0  0  0  0  0  0  0  0  0  0  0  0
   11.6649   -4.7291   21.0220 C   0  0  0  0  0  0  0  0  0  0  0  0
   11.4384   -5.8494   20.2166 C   0  0  0  0  0  0  0  0  0  0  0  0
   12.4223   -6.8356   20.0979 C   0  0  0  0  0  0  0  0  0  0  0  0
  1  2  1  0  0  0
  2  3  1  0  0  0
  3  4  2  0  0  0
  4  5  1  0  0  0
  5  6  2  0  0  0
  6  7  1  0  0  0
  7  8  1  0  0  0
  8  9  2  0  0  0
  6 27  1  0  0  0
 27 28  1  0  0  0
 28 29  2  0  0  0
 29 30  1  0  0  0
 30 31  2  0  0  0
 31 32  1  0  0  0
 32 33  2  0  0  0
  4 10  1  0  0  0
 10 11  1  0  0  0
 11 13  1  0  0  0
 13 14  1  0  0  0
 14 17  1  0  0  0
 17 18  1  0  0  0
 18 19  1  0  0  0
 19 20  1  0  0  0
 20 21  1  0  0  0
 21 22  2  0  0  0
 22 23  1  0  0  0
 23 24  2  0  0  0
 20 25  2  0  0  0
 25 26  1  0  0  0
 13 15  2  0  0  0
 11  2  2  0  0  0
 26 18  2  0  0  0
  8  3  1  0  0  0
 33 28  1  0  0  0
 24 19  1  0  0  0
  7 12  1  0  0  0
 14 16  1  0  0  0
M  END
>  <minimizedAffinity>
-5.61717

>  <minimizedRMSD>
2.76940

$$$$
CSC047222846 CSSS00047222846 LMRFCCRAPREINB-UHFFFAOYSA-N MCULE-1841496558 MolPort-016-611-654 PubChem-50967199


 27 30  0  0  0  0  0  0  0  0999 V2000
   17.8892  -10.0004   15.0178 N   0  0  0  0  0  0  0  0  0  0  0  0
   18.6727  -11.2406   15.1099 C   0  0  0  0  0  0  0  0  0  0  0  0
   18.3201  -12.2427   14.0059 C   0  0  0  0  0  0  0  0  0  0  0  0
   18.5135  -11.5970   12.6435 C   0  0  0  0  0  0  0  0  0  0  0  0
   17.6584  -10.3414   12.5524 C   0  0  0  0  0  0  0  0  0  0  0  0
   18.0311   -9.3815   13.6907 C   0  0  0  0  0  0  0  0  0  0  0  0
   17.8308   -9.6966   11.2125 C   0  0  0  0  0  0  0  0  0  0  0  0
   16.9446   -9.8703   10.1953 N   0  0  0  0  0  0  0  0  0  0  0  0
   17.4877   -9.1219    9.2211 C   0  0  0  0  0  0  0  0  0  0  0  0
   17.0058   -8.9205    7.9302 C   0  0  0  0  0  0  0  0  0  0  0  0
   17.7586   -8.0845    7.0835 C   0  0  0  0  0  0  0  0  0  0  0  0
   18.9527   -7.4826    7.5430 C   0  0  0  0  0  0  0  0  0  0  0  0
   19.4097   -7.7087    8.8551 C   0  0  0  0  0  0  0  0  0  0  0  0
   18.6382   -8.5407    9.6610 C   0  0  0  0  0  0  0  0  0  0  0  0
   18.8434   -8.9019   10.8979 O   0  0  0  0  0  0  0  0  0  0  0  0
   16.4827  -10.2795   15.3025 C   0  0  0  0  0  0  0  0  0  0  0  0
   15.0119   -7.4986   18.2293 C   0  0  0  0  0  0  0  0  0  0  0  0
   14.3717   -7.6262   16.9868 C   0  0  0  0  0  0  0  0  0  0  0  0
   14.8465   -8.5350   16.0371 C   0  0  0  0  0  0  0  0  0  0  0  0
   15.9628   -9.3264   16.3238 C   0  0  0  0  0  0  0  0  0  0  0  0
   16.6090   -9.1993   17.5572 C   0  0  0  0  0  0  0  0  0  0  0  0
   16.1325   -8.2897   18.5060 C   0  0  0  0  0  0  0  0  0  0  0  0
   13.3698   -5.7956   21.3099 C   0  0  0  0  0  0  0  0  0  0  0  0
   13.7518   -6.8859   20.3755 C   0  0  0  0  0  0  0  0  0  0  0  0
   13.3644   -8.0614   20.6073 O   0  0  0  0  0  0  0  0  0  0  0  0
   14.5538   -6.5775   19.2286 N   0  0  0  0  0  0  0  0  0  0  0  0
   14.8177   -5.6359   19.1149 H   0  0  0  0  0  0  0  0  0  0  0  0
 23 24  1  0  0  0
 24 25  2  0  0  0
 24 26  1  0  0  0
 26 17  1  0  0  0
 17 18  2  0  0  0
 18 19  1  0  0  0
 19 20  2  0  0  0
 20 16  1  0  0  0
 20 21  1  0  0  0
 16  1  1  0  0  0
  1  2  1  0  0  0
  2  3  1  0  0  0
  3  4  1  0  0  0
  4  5  1  0  0  0
  5  6  1  0  0  0
  5  7  1  0  0  0
  6  1  1  0  0  0
  7  8  2  0  0  0
  8  9  1  0  0  0
  9 10  2  0  0  0
 10 11  1  0  0  0
 11 12  2  0  0  0
 12 13  1  0  0  0
 13 14  2  0  0  0
 14 15  1  0  0  0
 14  9  1  0  0  0
 15  7  1  0  0  0
 21 22  2  0  0  0
 22 17  1  0  0  0
 26 27  1  0  0  0
M  END
>  <minimizedAffinity>
-5.60772

>  <minimizedRMSD>
2.65495

$$$$
9290323 CSSS00132406644 MCULE-1763329102 MolPort-002-769-042 ZINC000009290323 ZINC09290323


 32 34  0  0  0  0  0  0  0  0999 V2000
   17.0831  -10.0402   11.9938 C   0  0  0  0  0  0  0  0  0  0  0  0
   18.1168   -9.3400   12.1586 O   0  0  0  0  0  0  0  0  0  0  0  0
   16.0470  -10.0702   12.9814 N   0  0  0  0  0  0  0  0  0  0  0  0
   15.2764  -10.6599   12.8152 H   0  0  0  0  0  0  0  0  0  0  0  0
   16.0476   -9.3075   14.1916 C   0  0  0  0  0  0  0  0  0  0  0  0
   16.4398   -8.0169   14.2780 N   0  0  0  0  0  0  0  0  0  0  0  0
   16.3414   -7.5259   15.5119 N   0  0  0  0  0  0  0  0  0  0  0  0
   15.8681   -8.4240   16.4027 C   0  0  0  0  0  0  0  0  0  0  0  0
   15.5480   -9.9119   15.6798 S   0  0  0  0  0  0  0  0  0  0  0  0
   15.6305   -8.0654   18.1389 S   0  0  0  0  0  0  0  0  0  0  0  0
   13.8885   -7.5877   17.9113 C   0  0  0  0  0  0  0  0  0  0  0  0
   13.2372   -7.3265   19.2258 C   0  0  0  0  0  0  0  0  0  0  0  0
   12.4002   -8.1543   19.6737 O   0  0  0  0  0  0  0  0  0  0  0  0
   13.5617   -6.1371   19.9548 N   0  0  0  0  0  0  0  0  0  0  0  0
   13.0266   -5.7836   21.2343 C   0  0  0  0  0  0  0  0  0  0  0  0
   13.4479   -4.5110   21.8749 C   0  0  0  0  0  0  0  0  0  0  0  0
   12.2070   -6.5340   21.8272 O   0  0  0  0  0  0  0  0  0  0  0  0
   14.2032   -5.5137   19.5435 H   0  0  0  0  0  0  0  0  0  0  0  0
   16.9444  -10.8545   10.7535 C   0  0  0  0  0  0  0  0  0  0  0  0
   15.6691  -10.1511    9.6607 S   0  0  0  0  0  0  0  0  0  0  0  0
   19.5430   -7.8724    5.3680 C   0  0  0  0  0  0  0  0  0  0  0  0
   20.1049   -7.1946    6.4818 C   0  0  0  0  0  0  0  0  0  0  0  0
   19.5729   -7.3645    7.7729 C   0  0  0  0  0  0  0  0  0  0  0  0
   18.4823   -8.2181    7.9069 C   0  0  0  0  0  0  0  0  0  0  0  0
   17.8200   -8.5280    9.0297 N   0  0  0  0  0  0  0  0  0  0  0  0
   16.8712   -9.3885    8.5774 C   0  0  0  0  0  0  0  0  0  0  0  0
   16.9060   -9.6265    7.2406 N   0  0  0  0  0  0  0  0  0  0  0  0
   17.9390   -8.8708    6.8435 C   0  0  0  0  0  0  0  0  0  0  0  0
   18.4390   -8.7270    5.5521 C   0  0  0  0  0  0  0  0  0  0  0  0
   17.9802   -8.2124    9.9484 H   0  0  0  0  0  0  0  0  0  0  0  0
   21.3888   -7.2666    3.8378 C   0  0  0  0  0  0  0  0  0  0  0  0
   20.0617   -7.7127    4.0803 O   0  0  0  0  0  0  0  0  0  0  0  0
 31 32  1  0  0  0
 32 21  1  0  0  0
 21 22  2  0  0  0
 22 23  1  0  0  0
 23 24  2  0  0  0
 24 25  1  0  0  0
 25 26  1  0  0  0
 26 20  1  0  0  0
 26 27  2  0  0  0
 20 19  1  0  0  0
 19  1  1  0  0  0
  1  2  2  0  0  0
  1  3  1  0  0  0
  3  5  1  0  0  0
  5  6  2  0  0  0
  6  7  1  0  0  0
  7  8  2  0  0  0
  8 10  1  0  0  0
  8  9  1  0  0  0
 10 11  1  0  0  0
 11 12  1  0  0  0
 12 13  2  0  0  0
 12 14  1  0  0  0
 14 15  1  0  0  0
 15 16  1  0  0  0
 15 17  2  0  0  0
  9  5  1  0  0  0
 27 28  1  0  0  0
 28 29  2  0  0  0
 28 24  1  0  0  0
 29 21  1  0  0  0
 25 30  1  0  0  0
  3  4  1  0  0  0
 14 18  1  0  0  0
M  END
>  <minimizedAffinity>
-5.59597

>  <minimizedRMSD>
2.52429

$$$$
CSC025911353 45802467 CSSS00025911353 MCULE-5028452483 MolPort-030-006-796 PubChem-86776411 Z645063464 ZINC000045802467


 25 27  0  0  0  0  0  0  0  0999 V2000
   18.0720  -10.7042   12.7150 C   0  0  0  0  0  0  0  0  0  0  0  0
   17.9687   -9.4821   11.9338 N   0  0  0  0  0  0  0  0  0  0  0  0
   18.2224   -8.6271   12.3507 H   0  0  0  0  0  0  0  0  0  0  0  0
   18.4249   -7.8253    6.1249 C   0  0  0  0  0  0  0  0  0  0  0  0
   18.5540   -8.0709    7.5504 N   0  0  0  0  0  0  0  0  0  0  0  0
   17.7417   -8.8017    8.3199 C   0  0  0  0  0  0  0  0  0  0  0  0
   18.1968   -8.7896    9.5949 C   0  0  0  0  0  0  0  0  0  0  0  0
   17.5110   -9.4828   10.5814 C   0  0  0  0  0  0  0  0  0  0  0  0
   16.3812  -10.1605   10.2119 N   0  0  0  0  0  0  0  0  0  0  0  0
   15.9399  -10.1576    8.9122 C   0  0  0  0  0  0  0  0  0  0  0  0
   16.6240   -9.4710    7.9471 N   0  0  0  0  0  0  0  0  0  0  0  0
   19.3411   -8.0113    9.5929 C   0  0  0  0  0  0  0  0  0  0  0  0
   19.5280   -7.5865    8.3128 N   0  0  0  0  0  0  0  0  0  0  0  0
   18.8684  -10.4470   13.9837 C   0  0  0  0  0  0  0  0  0  0  0  0
   17.9686  -10.1235   15.1299 C   0  0  0  0  0  0  0  0  0  0  0  0
   17.0027   -8.7524   15.2620 S   0  0  0  0  0  0  0  0  0  0  0  0
   16.3992   -9.1487   16.7773 C   0  0  0  0  0  0  0  0  0  0  0  0
   16.9480  -10.3492   17.2065 C   0  0  0  0  0  0  0  0  0  0  0  0
   17.8394  -10.8989   16.2747 C   0  0  0  0  0  0  0  0  0  0  0  0
   15.2538   -8.1778   17.6789 S   0  0  0  0  0  0  0  0  0  0  0  0
   16.0154   -7.5459   19.0951 N   0  0  0  0  0  0  0  0  0  0  0  0
   14.0849   -9.0290   18.0869 O   0  0  0  0  0  0  0  0  0  0  0  0
   14.7774   -7.0382   16.8236 O   0  0  0  0  0  0  0  0  0  0  0  0
   16.3404   -8.3166   19.6789 H   0  0  0  0  0  0  0  0  0  0  0  0
   15.3457   -6.9820   19.6184 H   0  0  0  0  0  0  0  0  0  0  0  0
  4  5  1  0  0  0
  5  6  1  0  0  0
  6  7  2  0  0  0
  7  8  1  0  0  0
  8  9  2  0  0  0
  9 10  1  0  0  0
 10 11  2  0  0  0
  8  2  1  0  0  0
  2  1  1  0  0  0
  1 14  1  0  0  0
 14 15  1  0  0  0
 15 16  1  0  0  0
 16 17  1  0  0  0
 17 20  1  0  0  0
 20 21  1  0  0  0
 20 22  2  0  0  0
 20 23  2  0  0  0
 17 18  2  0  0  0
 18 19  1  0  0  0
  7 12  1  0  0  0
 12 13  2  0  0  0
 13  5  1  0  0  0
 11  6  1  0  0  0
 19 15  2  0  0  0
  2  3  1  0  0  0
 21 24  1  0  0  0
 21 25  1  0  0  0
M  END
>  <minimizedAffinity>
-5.57654

>  <minimizedRMSD>
1.48349

$$$$
23141457 CSSS03437039499 MCULE-6020476042 MolPort-009-735-551 PubChem-30864883 ZINC000023141457 ZINC23141457


 32 35  0  0  0  0  0  0  0  0999 V2000
   17.2536   -8.9968   16.6288 S   0  0  0  0  0  0  0  0  0  0  0  0
   15.9735   -7.8388   13.8634 C   0  0  0  0  0  0  0  0  0  0  0  0
   16.7853   -9.0455   13.8831 N   0  0  0  0  0  0  0  0  0  0  0  0
   17.3159   -9.6472   14.9615 C   0  0  0  0  0  0  0  0  0  0  0  0
   17.8837  -10.8244   14.6414 N   0  0  0  0  0  0  0  0  0  0  0  0
   17.7099  -10.9914   13.3377 N   0  0  0  0  0  0  0  0  0  0  0  0
   17.0460   -9.9098   12.8817 C   0  0  0  0  0  0  0  0  0  0  0  0
   16.6405   -9.7475   11.4704 C   0  0  0  0  0  0  0  0  0  0  0  0
   15.3983  -10.0441   10.9020 C   0  0  0  0  0  0  0  0  0  0  0  0
   14.1918  -10.5183   11.6350 C   0  0  0  0  0  0  0  0  0  0  0  0
   15.4191   -9.8472    9.5549 N   0  0  0  0  0  0  0  0  0  0  0  0
   16.6869   -9.4377    9.3638 C   0  0  0  0  0  0  0  0  0  0  0  0
   17.5531   -9.0852    7.9817 S   0  0  0  0  0  0  0  0  0  0  0  0
   18.9947   -8.8431    8.8811 C   0  0  0  0  0  0  0  0  0  0  0  0
   18.7257   -9.0643   10.2442 C   0  0  0  0  0  0  0  0  0  0  0  0
   17.4258   -9.3759   10.4511 N   0  0  0  0  0  0  0  0  0  0  0  0
   15.5042   -8.5352   16.4620 C   0  0  0  0  0  0  0  0  0  0  0  0
   15.0512   -7.8024   17.6748 C   0  0  0  0  0  0  0  0  0  0  0  0
   13.9516   -7.1894   17.6472 O   0  0  0  0  0  0  0  0  0  0  0  0
   15.8651   -7.8190   18.8554 N   0  0  0  0  0  0  0  0  0  0  0  0
   16.7028   -8.3337   18.8050 H   0  0  0  0  0  0  0  0  0  0  0  0
   15.5880   -7.1647   20.1033 C   0  0  0  0  0  0  0  0  0  0  0  0
   14.2731   -6.9891   20.5604 C   0  0  0  0  0  0  0  0  0  0  0  0
   14.0131   -6.3397   21.7744 C   0  0  0  0  0  0  0  0  0  0  0  0
   15.0867   -5.8920   22.5543 C   0  0  0  0  0  0  0  0  0  0  0  0
   16.3992   -6.0618   22.1096 C   0  0  0  0  0  0  0  0  0  0  0  0
   16.6533   -6.6912   20.8878 C   0  0  0  0  0  0  0  0  0  0  0  0
   18.3188   -6.8817   20.3656 Cl  0  0  0  0  0  0  0  0  0  0  0  0
   12.6044   -6.2059   22.2750 C   0  0  0  0  0  0  0  0  0  0  0  0
   12.5989   -5.8120   23.6020 F   0  0  0  0  0  0  0  0  0  0  0  0
   11.9622   -7.4250   22.1630 F   0  0  0  0  0  0  0  0  0  0  0  0
   11.9158   -5.2622   21.5322 F   0  0  0  0  0  0  0  0  0  0  0  0
  2  3  1  0  0  0
  3  4  1  0  0  0
  4  1  1  0  0  0
  4  5  2  0  0  0
  1 17  1  0  0  0
 17 18  1  0  0  0
 18 19  2  0  0  0
 18 20  1  0  0  0
 20 22  1  0  0  0
 22 23  2  0  0  0
 23 24  1  0  0  0
 24 25  2  0  0  0
 24 29  1  0  0  0
 25 26  1  0  0  0
 26 27  2  0  0  0
 27 28  1  0  0  0
 27 22  1  0  0  0
 29 30  1  0  0  0
 29 31  1  0  0  0
 29 32  1  0  0  0
  5  6  1  0  0  0
  6  7  2  0  0  0
  7  8  1  0  0  0
  7  3  1  0  0  0
  8  9  2  0  0  0
  9 10  1  0  0  0
  9 11  1  0  0  0
 11 12  2  0  0  0
 12 13  1  0  0  0
 13 14  1  0  0  0
 14 15  2  0  0  0
 15 16  1  0  0  0
 16  8  1  0  0  0
 16 12  1  0  0  0
 20 21  1  0  0  0
M  END
>  <minimizedAffinity>
-5.57478

>  <minimizedRMSD>
2.25947

$$$$
CSSS02952849169 Z8318442449


 26 30  0  0  0  0  0  0  0  0999 V2000
   18.2403  -11.4602   14.2549 C   0  0  0  0  0  0  0  0  0  0  0  0
   19.5566  -10.7817   13.8912 C   0  0  0  0  0  0  0  0  0  0  0  0
   19.3333  -10.0693   12.5706 C   0  0  0  0  0  0  0  0  0  0  0  0
   18.0087  -10.4529   12.1205 N   0  0  0  0  0  0  0  0  0  0  0  0
   17.3201  -11.3211   13.0543 C   0  0  0  0  0  0  0  0  0  0  0  0
   15.5124   -8.1187   18.5342 N   0  0  0  0  0  0  0  0  0  0  0  0
   15.9100   -8.3517   17.1877 C   0  0  0  0  0  0  0  0  0  0  0  0
   15.6029   -7.4547   16.2043 N   0  0  0  0  0  0  0  0  0  0  0  0
   15.9815   -7.6693   14.9026 C   0  0  0  0  0  0  0  0  0  0  0  0
   16.6797   -8.7940   14.5587 N   0  0  0  0  0  0  0  0  0  0  0  0
   16.9799   -9.6784   15.5412 C   0  0  0  0  0  0  0  0  0  0  0  0
   17.6476  -10.8354   15.4341 N   0  0  0  0  0  0  0  0  0  0  0  0
   17.6742  -11.3273   16.6986 C   0  0  0  0  0  0  0  0  0  0  0  0
   17.0412  -10.5137   17.5913 N   0  0  0  0  0  0  0  0  0  0  0  0
   16.6184   -9.4891   16.8279 C   0  0  0  0  0  0  0  0  0  0  0  0
   15.0102   -7.3040   18.7652 H   0  0  0  0  0  0  0  0  0  0  0  0
   15.7394   -8.7722   19.2347 H   0  0  0  0  0  0  0  0  0  0  0  0
   17.3908  -10.0019   10.9010 C   0  0  0  0  0  0  0  0  0  0  0  0
   16.1280  -10.4172   10.5867 N   0  0  0  0  0  0  0  0  0  0  0  0
   15.5044  -10.0116    9.4418 C   0  0  0  0  0  0  0  0  0  0  0  0
   16.1460   -9.1722    8.5836 N   0  0  0  0  0  0  0  0  0  0  0  0
   17.3755   -8.7656    8.8863 N   0  0  0  0  0  0  0  0  0  0  0  0
   18.1552   -7.9467    8.1703 C   0  0  0  0  0  0  0  0  0  0  0  0
   19.3526   -7.7960    8.8631 C   0  0  0  0  0  0  0  0  0  0  0  0
   19.2728   -8.5565   10.0321 C   0  0  0  0  0  0  0  0  0  0  0  0
   18.0215   -9.1379    9.9945 C   0  0  0  0  0  0  0  0  0  0  0  0
  6  7  1  0  0  0
  7  8  2  0  0  0
  8  9  1  0  0  0
  9 10  2  0  0  0
 10 11  1  0  0  0
 11 12  1  0  0  0
 12 13  1  0  0  0
 13 14  2  0  0  0
 14 15  1  0  0  0
 12  1  1  0  0  0
  1  2  1  0  0  0
  2  3  1  0  0  0
  3  4  1  0  0  0
  4  5  1  0  0  0
  4 18  1  0  0  0
 18 19  2  0  0  0
 19 20  1  0  0  0
 20 21  2  0  0  0
 21 22  1  0  0  0
 22 23  1  0  0  0
 23 24  2  0  0  0
 24 25  1  0  0  0
 25 26  2  0  0  0
 15  7  1  0  0  0
  5  1  1  0  0  0
 26 18  1  0  0  0
 15 11  2  0  0  0
 26 22  1  0  0  0
  6 16  1  0  0  0
  6 17  1  0  0  0
M  END
>  <minimizedAffinity>
-5.55457

>  <minimizedRMSD>
0.74949

$$$$
CSC027248152 91429758 CSSS00027248152 MCULE-5062102343 MolPort-028-787-870 PubChem-75442104 Z1587170156 ZINC000091429758 ZINC91429758


 27 29  0  0  0  0  0  0  0  0999 V2000
   17.7888   -9.3439   12.0134 N   0  0  0  0  0  0  0  0  0  0  0  0
   17.6595   -8.5391   12.5655 H   0  0  0  0  0  0  0  0  0  0  0  0
   17.2986   -9.2797   10.6596 C   0  0  0  0  0  0  0  0  0  0  0  0
   18.0633   -8.7808    9.5725 C   0  0  0  0  0  0  0  0  0  0  0  0
   19.3743   -8.3038    9.7251 C   0  0  0  0  0  0  0  0  0  0  0  0
   20.0943   -7.8208    8.6297 C   0  0  0  0  0  0  0  0  0  0  0  0
   19.5122   -7.8077    7.3614 C   0  0  0  0  0  0  0  0  0  0  0  0
   18.2095   -8.2775    7.1865 C   0  0  0  0  0  0  0  0  0  0  0  0
   17.4835   -8.7621    8.2786 C   0  0  0  0  0  0  0  0  0  0  0  0
   16.2185   -9.2148    8.0889 N   0  0  0  0  0  0  0  0  0  0  0  0
   15.4724   -9.6949    9.1146 C   0  0  0  0  0  0  0  0  0  0  0  0
   15.9911   -9.7372   10.4083 C   0  0  0  0  0  0  0  0  0  0  0  0
   15.1622  -10.2551   11.4665 C   0  0  0  0  0  0  0  0  0  0  0  0
   14.4967  -10.6709   12.3172 N   0  0  0  0  0  0  0  0  0  0  0  0
   18.4540  -10.4690   12.6529 C   0  0  0  0  0  0  0  0  0  0  0  0
   16.7415   -9.6987   15.9402 C   0  0  0  0  0  0  0  0  0  0  0  0
   17.1400  -10.7921   16.7173 C   0  0  0  0  0  0  0  0  0  0  0  0
   17.9725  -11.7740   16.1719 C   0  0  0  0  0  0  0  0  0  0  0  0
   18.4077  -11.6650   14.8479 C   0  0  0  0  0  0  0  0  0  0  0  0
   18.0145  -10.5709   14.0699 C   0  0  0  0  0  0  0  0  0  0  0  0
   17.1752   -9.5931   14.6140 C   0  0  0  0  0  0  0  0  0  0  0  0
   16.1528   -8.1355   18.2463 N   0  0  0  0  0  0  0  0  0  0  0  0
   15.6836   -8.4755   16.6185 S   0  0  0  0  0  0  0  0  0  0  0  0
   14.2651   -8.9699   16.5989 O   0  0  0  0  0  0  0  0  0  0  0  0
   15.7869   -7.2125   15.8106 O   0  0  0  0  0  0  0  0  0  0  0  0
   15.5351   -7.4239   18.6367 H   0  0  0  0  0  0  0  0  0  0  0  0
   17.1143   -7.7951   18.2590 H   0  0  0  0  0  0  0  0  0  0  0  0
 22 23  1  0  0  0
 23 24  2  0  0  0
 23 25  2  0  0  0
 23 16  1  0  0  0
 16 17  2  0  0  0
 17 18  1  0  0  0
 18 19  2  0  0  0
 19 20  1  0  0  0
 20 15  1  0  0  0
 20 21  2  0  0  0
 15  1  1  0  0  0
  1  3  1  0  0  0
  3  4  1  0  0  0
  4  5  2  0  0  0
  5  6  1  0  0  0
  6  7  2  0  0  0
  7  8  1  0  0  0
  8  9  2  0  0  0
  9 10  1  0  0  0
  9  4  1  0  0  0
 10 11  2  0  0  0
 11 12  1  0  0  0
 12 13  1  0  0  0
 12  3  2  0  0  0
 13 14  3  0  0  0
 21 16  1  0  0  0
 22 26  1  0  0  0
 22 27  1  0  0  0
  1  2  1  0  0  0
M  END
>  <minimizedAffinity>
-5.54334

>  <minimizedRMSD>
0.98286

$$$$
CSSS00105279248 MCULE-1792013670 MolPort-039-157-794 PubChem-128976102 Z1757872698


 26 29  0  0  0  0  0  0  0  0999 V2000
   16.9815  -11.1515   13.9367 C   0  0  0  0  0  0  0  0  0  0  0  0
   18.3843  -11.6457   13.5685 C   0  0  0  0  0  0  0  0  0  0  0  0
   19.2284  -10.5331   12.9513 C   0  0  0  0  0  0  0  0  0  0  0  0
   18.4699   -9.8930   11.7943 C   0  0  0  0  0  0  0  0  0  0  0  0
   17.2051   -9.3326   12.2780 N   0  0  0  0  0  0  0  0  0  0  0  0
   16.3327  -10.4055   12.7653 C   0  0  0  0  0  0  0  0  0  0  0  0
   16.3920   -9.0247   16.7225 C   0  0  0  0  0  0  0  0  0  0  0  0
   15.9780   -9.6291   15.5963 N   0  0  0  0  0  0  0  0  0  0  0  0
   16.9998  -10.3359   15.1469 N   0  0  0  0  0  0  0  0  0  0  0  0
   18.0635  -10.1994   15.9590 C   0  0  0  0  0  0  0  0  0  0  0  0
   17.7098   -9.3533   16.9981 C   0  0  0  0  0  0  0  0  0  0  0  0
   14.9102   -7.2255   19.7931 C   0  0  0  0  0  0  0  0  0  0  0  0
   15.7239   -8.0839   18.9490 N   0  0  0  0  0  0  0  0  0  0  0  0
   15.5455   -8.1419   17.5323 C   0  0  0  0  0  0  0  0  0  0  0  0
   14.6622   -7.4367   16.9735 O   0  0  0  0  0  0  0  0  0  0  0  0
   16.4192   -8.6425   19.3658 H   0  0  0  0  0  0  0  0  0  0  0  0
   16.5339   -8.5889   11.2041 C   0  0  0  0  0  0  0  0  0  0  0  0
   16.7900   -9.1329    9.8226 C   0  0  0  0  0  0  0  0  0  0  0  0
   17.6598   -8.6366    8.8830 C   0  0  0  0  0  0  0  0  0  0  0  0
   18.5356   -7.5553    8.9542 C   0  0  0  0  0  0  0  0  0  0  0  0
   19.3143   -7.2871    7.8169 C   0  0  0  0  0  0  0  0  0  0  0  0
   19.1985   -8.0894    6.6651 C   0  0  0  0  0  0  0  0  0  0  0  0
   18.2960   -9.1636    6.6592 C   0  0  0  0  0  0  0  0  0  0  0  0
   17.5637   -9.3877    7.7785 N   0  0  0  0  0  0  0  0  0  0  0  0
   16.6683  -10.3446    7.9497 N   0  0  0  0  0  0  0  0  0  0  0  0
   16.1662  -10.2141    9.2031 C   0  0  0  0  0  0  0  0  0  0  0  0
 12 13  1  0  0  0
 13 14  1  0  0  0
 14 15  2  0  0  0
 14  7  1  0  0  0
  7  8  2  0  0  0
  8  9  1  0  0  0
  9 10  1  0  0  0
 10 11  2  0  0  0
  9  1  1  0  0  0
  1  2  1  0  0  0
  2  3  1  0  0  0
  3  4  1  0  0  0
  4  5  1  0  0  0
  5 17  1  0  0  0
 17 18  1  0  0  0
 18 19  2  0  0  0
 19 20  1  0  0  0
 20 21  2  0  0  0
 21 22  1  0  0  0
 22 23  2  0  0  0
 23 24  1  0  0  0
 24 25  1  0  0  0
 25 26  2  0  0  0
  5  6  1  0  0  0
 11  7  1  0  0  0
  6  1  1  0  0  0
 26 18  1  0  0  0
 24 19  1  0  0  0
 13 16  1  0  0  0
M  END
>  <minimizedAffinity>
-5.53453

>  <minimizedRMSD>
1.03822

$$$$
91526571 CSSS00159832724 MCULE-2657511173 MolPort-027-815-612 ZINC000091526571


 28 31  0  0  0  0  0  0  0  0999 V2000
   16.5416  -10.3795   11.9873 C   0  0  0  0  0  0  0  0  0  0  0  0
   17.4530  -11.1687   12.9362 C   0  0  0  0  0  0  0  0  0  0  0  0
   18.1668  -10.2472   13.9239 C   0  0  0  0  0  0  0  0  0  0  0  0
   17.1897   -9.3873   14.5832 N   0  0  0  0  0  0  0  0  0  0  0  0
   16.3251   -8.5650   13.7423 C   0  0  0  0  0  0  0  0  0  0  0  0
   15.5816   -9.4547   12.7468 C   0  0  0  0  0  0  0  0  0  0  0  0
   17.0753   -9.3697   16.0136 C   0  0  0  0  0  0  0  0  0  0  0  0
   17.8303  -10.0915   16.7186 O   0  0  0  0  0  0  0  0  0  0  0  0
   16.7633   -9.3511    9.7195 N   0  0  0  0  0  0  0  0  0  0  0  0
   17.7703   -8.7247    9.0917 C   0  0  0  0  0  0  0  0  0  0  0  0
   17.7790   -8.1838    7.8052 C   0  0  0  0  0  0  0  0  0  0  0  0
   16.5833   -8.2462    6.9206 C   0  0  0  0  0  0  0  0  0  0  0  0
   18.9653   -7.5703    7.3633 C   0  0  0  0  0  0  0  0  0  0  0  0
   20.0974   -7.5136    8.2065 C   0  0  0  0  0  0  0  0  0  0  0  0
   20.0553   -8.0692    9.4992 C   0  0  0  0  0  0  0  0  0  0  0  0
   18.8638   -8.6680    9.9016 C   0  0  0  0  0  0  0  0  0  0  0  0
   18.6016   -9.2544   11.0774 N   0  0  0  0  0  0  0  0  0  0  0  0
   17.3112   -9.6566   10.9241 C   0  0  0  0  0  0  0  0  0  0  0  0
   19.1937   -9.3660   11.8561 H   0  0  0  0  0  0  0  0  0  0  0  0
   16.0900   -8.4790   16.6932 C   0  0  0  0  0  0  0  0  0  0  0  0
   16.6242   -8.1621   18.3997 S   0  0  0  0  0  0  0  0  0  0  0  0
   14.9838   -7.6565   18.8946 C   0  0  0  0  0  0  0  0  0  0  0  0
   14.4583   -7.9184   20.1044 N   0  0  0  0  0  0  0  0  0  0  0  0
   13.2455   -7.3939   20.1065 N   0  0  0  0  0  0  0  0  0  0  0  0
   13.0723   -6.8289   18.8986 C   0  0  0  0  0  0  0  0  0  0  0  0
   11.8281   -6.1243   18.4916 C   0  0  0  0  0  0  0  0  0  0  0  0
   14.1451   -6.9680   18.0969 N   0  0  0  0  0  0  0  0  0  0  0  0
   14.8915   -8.4048   20.8426 H   0  0  0  0  0  0  0  0  0  0  0  0
  9 10  1  0  0  0
 10 11  2  0  0  0
 11 12  1  0  0  0
 11 13  1  0  0  0
 13 14  2  0  0  0
 14 15  1  0  0  0
 15 16  2  0  0  0
 16 17  1  0  0  0
 17 18  1  0  0  0
 18  1  1  0  0  0
  1  2  1  0  0  0
  2  3  1  0  0  0
  3  4  1  0  0  0
  4  5  1  0  0  0
  5  6  1  0  0  0
  4  7  1  0  0  0
  7  8  2  0  0  0
  7 20  1  0  0  0
 20 21  1  0  0  0
 21 22  1  0  0  0
 22 23  1  0  0  0
 23 24  1  0  0  0
 24 25  2  0  0  0
 25 26  1  0  0  0
 25 27  1  0  0  0
 18  9  2  0  0  0
  6  1  1  0  0  0
 27 22  2  0  0  0
 16 10  1  0  0  0
 17 19  1  0  0  0
 23 28  1  0  0  0
M  END
>  <minimizedAffinity>
-5.49160

>  <minimizedRMSD>
2.20072

$$$$
CSSS14880524488 Z8661726646


 33 36  0  0  0  0  0  0  0  0999 V2000
   18.8735  -10.4101   14.6786 C   0  0  0  0  0  0  0  0  0  0  0  0
   18.0160   -9.5056   15.4341 N   0  0  0  0  0  0  0  0  0  0  0  0
   17.1350   -9.9490   16.4717 C   0  0  0  0  0  0  0  0  0  0  0  0
   17.1447  -11.1578   16.8332 O   0  0  0  0  0  0  0  0  0  0  0  0
   18.0441   -8.5449   15.2209 H   0  0  0  0  0  0  0  0  0  0  0  0
   16.2146   -8.9947   17.1135 C   0  0  0  0  0  0  0  0  0  0  0  0
   15.2467   -8.3244   16.3529 C   0  0  0  0  0  0  0  0  0  0  0  0
   14.3684   -7.4239   16.9615 C   0  0  0  0  0  0  0  0  0  0  0  0
   14.4460   -7.1821   18.3393 C   0  0  0  0  0  0  0  0  0  0  0  0
   15.4124   -7.8520   19.1011 C   0  0  0  0  0  0  0  0  0  0  0  0
   16.2907   -8.7527   18.4924 C   0  0  0  0  0  0  0  0  0  0  0  0
   13.5209   -6.2342   18.9802 C   0  0  0  0  0  0  0  0  0  0  0  0
   13.0475   -5.1246   18.3805 N   0  0  0  0  0  0  0  0  0  0  0  0
   12.2579   -4.5892   19.3335 C   0  0  0  0  0  0  0  0  0  0  0  0
   12.2579   -5.3418   20.4506 N   0  0  0  0  0  0  0  0  0  0  0  0
   13.0505   -6.3757   20.2313 N   0  0  0  0  0  0  0  0  0  0  0  0
   13.2559   -7.1052   20.8597 H   0  0  0  0  0  0  0  0  0  0  0  0
   18.8419  -12.8247   14.1206 C   0  0  0  0  0  0  0  0  0  0  0  0
   18.0543  -11.5331   14.0612 C   0  0  0  0  0  0  0  0  0  0  0  0
   17.7451  -11.2175   12.6755 N   0  0  0  0  0  0  0  0  0  0  0  0
   16.6306  -10.3977   12.3174 C   0  0  0  0  0  0  0  0  0  0  0  0
   15.8623   -9.9492   13.2110 O   0  0  0  0  0  0  0  0  0  0  0  0
   18.3205  -11.5792   11.9632 H   0  0  0  0  0  0  0  0  0  0  0  0
   16.3780  -10.0664   10.9072 C   0  0  0  0  0  0  0  0  0  0  0  0
   15.2187  -10.3433   10.1842 C   0  0  0  0  0  0  0  0  0  0  0  0
   15.3695   -9.8755    8.9206 N   0  0  0  0  0  0  0  0  0  0  0  0
   16.5679   -9.3249    8.8404 N   0  0  0  0  0  0  0  0  0  0  0  0
   17.1076   -8.7374    7.7436 C   0  0  0  0  0  0  0  0  0  0  0  0
   18.3999   -8.2023    7.8494 C   0  0  0  0  0  0  0  0  0  0  0  0
   19.0890   -8.2893    9.0741 C   0  0  0  0  0  0  0  0  0  0  0  0
   20.4580   -7.7240    9.1933 C   0  0  0  0  0  0  0  0  0  0  0  0
   18.4909   -8.9066   10.1841 C   0  0  0  0  0  0  0  0  0  0  0  0
   17.2054   -9.4194   10.0148 C   0  0  0  0  0  0  0  0  0  0  0  0
 19 18  1  0  0  0
 19  1  1  0  0  0
  1  2  1  0  0  0
  2  3  1  0  0  0
  3  4  2  0  0  0
  3  6  1  0  0  0
  6  7  2  0  0  0
  7  8  1  0  0  0
  8  9  2  0  0  0
  9 10  1  0  0  0
 10 11  2  0  0  0
  9 12  1  0  0  0
 12 13  2  0  0  0
 13 14  1  0  0  0
 14 15  2  0  0  0
 15 16  1  0  0  0
 19 20  1  0  0  0
 20 21  1  0  0  0
 21 22  2  0  0  0
 21 24  1  0  0  0
 24 25  1  0  0  0
 25 26  2  0  0  0
 26 27  1  0  0  0
 27 28  1  0  0  0
 28 29  2  0  0  0
 29 30  1  0  0  0
 30 31  1  0  0  0
 30 32  2  0  0  0
 32 33  1  0  0  0
 11  6  1  0  0  0
 16 12  1  0  0  0
 33 24  2  0  0  0
 33 27  1  0  0  0
  2  5  1  0  0  0
 16 17  1  0  0  0
 20 23  1  0  0  0
M  END
>  <minimizedAffinity>
-5.48704

>  <minimizedRMSD>
3.26290

$$$$
CSSS00348448788 MCULE-5225268134 MolPort-047-460-527 Z2001551950


 27 30  0  0  0  0  0  0  0  0999 V2000
   18.7840   -9.6220   11.3751 O   0  0  0  0  0  0  0  0  0  0  0  0
   17.5543   -9.7976   12.0135 C   0  0  0  0  0  0  0  0  0  0  0  0
   16.4790   -9.6447   11.3710 O   0  0  0  0  0  0  0  0  0  0  0  0
   17.5247  -10.1625   13.4423 C   0  0  0  0  0  0  0  0  0  0  0  0
   16.9796   -9.3338   14.4313 C   0  0  0  0  0  0  0  0  0  0  0  0
   16.4096   -8.1241   14.3145 N   0  0  0  0  0  0  0  0  0  0  0  0
   16.0602   -7.7724   15.5506 N   0  0  0  0  0  0  0  0  0  0  0  0
   16.3826   -8.7036   16.4462 N   0  0  0  0  0  0  0  0  0  0  0  0
   16.9614   -9.6870   15.7436 C   0  0  0  0  0  0  0  0  0  0  0  0
   17.4802  -10.8928   16.2023 C   0  0  0  0  0  0  0  0  0  0  0  0
   18.0384  -11.7572   15.2417 C   0  0  0  0  0  0  0  0  0  0  0  0
   18.5591  -12.9458   15.6294 F   0  0  0  0  0  0  0  0  0  0  0  0
   18.0600  -11.3946   13.8748 C   0  0  0  0  0  0  0  0  0  0  0  0
   16.2285   -8.6756   17.4182 H   0  0  0  0  0  0  0  0  0  0  0  0
   19.1316   -8.4028   10.7359 C   0  0  0  0  0  0  0  0  0  0  0  0
   21.2486   -6.7875    6.0343 C   0  0  0  0  0  0  0  0  0  0  0  0
   20.0274   -7.5730    6.0084 N   0  0  0  0  0  0  0  0  0  0  0  0
   19.3889   -7.9361    4.9016 N   0  0  0  0  0  0  0  0  0  0  0  0
   18.2887   -8.6619    5.2430 C   0  0  0  0  0  0  0  0  0  0  0  0
   18.2689   -8.7354    6.6250 C   0  0  0  0  0  0  0  0  0  0  0  0
   19.3547   -8.0531    7.0584 C   0  0  0  0  0  0  0  0  0  0  0  0
   19.6594   -7.9192    8.3720 N   0  0  0  0  0  0  0  0  0  0  0  0
   18.8203   -8.4969    9.2854 C   0  0  0  0  0  0  0  0  0  0  0  0
   17.7176   -9.2014    8.8695 N   0  0  0  0  0  0  0  0  0  0  0  0
   17.4180   -9.3324    7.5434 C   0  0  0  0  0  0  0  0  0  0  0  0
   16.4021   -9.9779    7.1746 O   0  0  0  0  0  0  0  0  0  0  0  0
   17.1314   -9.6204    9.5404 H   0  0  0  0  0  0  0  0  0  0  0  0
 16 17  1  0  0  0
 17 18  1  0  0  0
 18 19  2  0  0  0
 19 20  1  0  0  0
 20 21  2  0  0  0
 21 22  1  0  0  0
 22 23  2  0  0  0
 23 15  1  0  0  0
 15  1  1  0  0  0
  1  2  1  0  0  0
  2  3  2  0  0  0
  2  4  1  0  0  0
  4  5  2  0  0  0
  5  6  1  0  0  0
  6  7  2  0  0  0
  7  8  1  0  0  0
  8  9  1  0  0  0
  9 10  2  0  0  0
 10 11  1  0  0  0
 11 12  1  0  0  0
 11 13  2  0  0  0
 23 24  1  0  0  0
 24 25  1  0  0  0
 25 26  2  0  0  0
 21 17  1  0  0  0
 13  4  1  0  0  0
 25 20  1  0  0  0
  9  5  1  0  0  0
  8 14  1  0  0  0
 24 27  1  0  0  0
M  END
>  <minimizedAffinity>
-5.47437

>  <minimizedRMSD>
2.18662

$$$$
CSSS00138485622 MCULE-2696060495 MolPort-044-465-305 PubChem-137865017 Z2464898532


 28 31  0  0  0  0  0  0  0  0999 V2000
   17.3216   -9.4122   15.2509 C   0  0  0  0  0  0  0  0  0  0  0  0
   17.2843  -10.7528   14.5127 C   0  0  0  0  0  0  0  0  0  0  0  0
   18.1314  -10.6771   13.2456 C   0  0  0  0  0  0  0  0  0  0  0  0
   17.7109   -9.5314   12.4401 N   0  0  0  0  0  0  0  0  0  0  0  0
   17.7069   -8.2211   13.0859 C   0  0  0  0  0  0  0  0  0  0  0  0
   16.8471   -8.2730   14.3449 C   0  0  0  0  0  0  0  0  0  0  0  0
   17.1126   -9.6921   11.1398 C   0  0  0  0  0  0  0  0  0  0  0  0
   17.6813   -9.1390    9.9712 C   0  0  0  0  0  0  0  0  0  0  0  0
   18.8466   -8.3580    9.9911 C   0  0  0  0  0  0  0  0  0  0  0  0
   19.3638   -7.8269    8.8066 C   0  0  0  0  0  0  0  0  0  0  0  0
   18.7181   -8.0669    7.5908 C   0  0  0  0  0  0  0  0  0  0  0  0
   17.5488   -8.8303    7.5579 C   0  0  0  0  0  0  0  0  0  0  0  0
   17.0239   -9.3604    8.7402 C   0  0  0  0  0  0  0  0  0  0  0  0
   15.8747  -10.0805    8.7031 N   0  0  0  0  0  0  0  0  0  0  0  0
   15.3356  -10.5897    9.8391 C   0  0  0  0  0  0  0  0  0  0  0  0
   15.9480  -10.3913   11.0345 N   0  0  0  0  0  0  0  0  0  0  0  0
   16.5722  -10.6586   17.3184 C   0  0  0  0  0  0  0  0  0  0  0  0
   16.5205   -9.4710   16.4716 N   0  0  0  0  0  0  0  0  0  0  0  0
   15.6925   -8.3550   16.8349 C   0  0  0  0  0  0  0  0  0  0  0  0
   15.6814   -7.3176   16.1161 O   0  0  0  0  0  0  0  0  0  0  0  0
   14.8471   -8.4006   18.0720 C   0  0  0  0  0  0  0  0  0  0  0  0
   15.5686   -7.7746   19.2411 C   0  0  0  0  0  0  0  0  0  0  0  0
   14.4739   -7.1620   20.0760 C   0  0  0  0  0  0  0  0  0  0  0  0
   14.2212   -7.9774   21.1814 O   0  0  0  0  0  0  0  0  0  0  0  0
   13.2455   -7.1307   19.1827 C   0  0  0  0  0  0  0  0  0  0  0  0
   13.6068   -7.6653   17.8735 N   0  0  0  0  0  0  0  0  0  0  0  0
   13.9796   -8.8667   20.8787 H   0  0  0  0  0  0  0  0  0  0  0  0
   13.7470   -6.9064   17.2066 H   0  0  0  0  0  0  0  0  0  0  0  0
 17 18  1  0  0  0
 18  1  1  0  0  0
  1  2  1  0  0  0
  2  3  1  0  0  0
  3  4  1  0  0  0
  4  5  1  0  0  0
  5  6  1  0  0  0
  4  7  1  0  0  0
  7  8  1  0  0  0
  8  9  2  0  0  0
  9 10  1  0  0  0
 10 11  2  0  0  0
 11 12  1  0  0  0
 12 13  2  0  0  0
 13 14  1  0  0  0
 14 15  2  0  0  0
 15 16  1  0  0  0
 18 19  1  0  0  0
 19 20  2  0  0  0
 21 19  1  0  0  0
 21 22  1  0  0  0
 22 23  1  0  0  0
 23 24  1  0  0  0
 23 25  1  0  0  0
 25 26  1  0  0  0
  6  1  1  0  0  0
 16  7  2  0  0  0
 26 21  1  0  0  0
 13  8  1  0  0  0
 24 27  1  0  0  0
 26 28  1  0  0  0
M  END
>  <minimizedAffinity>
-5.46780

>  <minimizedRMSD>
2.11871

$$$$
CSSS00159987611 MCULE-5903392172 MolPort-046-750-350


 26 29  0  0  0  0  0  0  0  0999 V2000
   18.9028   -9.8170   15.2061 O   0  0  0  0  0  0  0  0  0  0  0  0
   17.7076   -9.4969   14.9643 C   0  0  0  0  0  0  0  0  0  0  0  0
   17.1818   -9.6226   13.6420 N   0  0  0  0  0  0  0  0  0  0  0  0
   16.2452   -9.3696   13.4750 H   0  0  0  0  0  0  0  0  0  0  0  0
   16.8549   -8.9923   16.0462 C   0  0  0  0  0  0  0  0  0  0  0  0
   17.0732   -9.2580   17.3530 N   0  0  0  0  0  0  0  0  0  0  0  0
   16.1217   -8.6388   18.0234 N   0  0  0  0  0  0  0  0  0  0  0  0
   15.8851   -8.7514   19.4616 C   0  0  0  0  0  0  0  0  0  0  0  0
   15.0965   -7.5309   19.9758 C   0  0  0  0  0  0  0  0  0  0  0  0
   13.9809   -7.1902   19.0847 N   0  0  0  0  0  0  0  0  0  0  0  0
   14.1316   -7.2962   17.6664 C   0  0  0  0  0  0  0  0  0  0  0  0
   13.2716   -6.8100   16.8864 O   0  0  0  0  0  0  0  0  0  0  0  0
   15.2970   -8.0197   17.1714 C   0  0  0  0  0  0  0  0  0  0  0  0
   15.7191   -8.2031   15.8688 C   0  0  0  0  0  0  0  0  0  0  0  0
   13.1249   -6.8874   19.4651 H   0  0  0  0  0  0  0  0  0  0  0  0
   17.9870  -10.1126   12.5355 C   0  0  0  0  0  0  0  0  0  0  0  0
   17.2050  -10.0236   11.2716 C   0  0  0  0  0  0  0  0  0  0  0  0
   15.9590  -10.5296   11.1046 N   0  0  0  0  0  0  0  0  0  0  0  0
   15.5277  -10.2259    9.8818 N   0  0  0  0  0  0  0  0  0  0  0  0
   16.5057   -9.5206    9.2895 C   0  0  0  0  0  0  0  0  0  0  0  0
   16.4826   -8.9964    8.0394 N   0  0  0  0  0  0  0  0  0  0  0  0
   17.5700   -8.2882    7.6054 C   0  0  0  0  0  0  0  0  0  0  0  0
   18.6935   -8.1044    8.4460 C   0  0  0  0  0  0  0  0  0  0  0  0
   18.7002   -8.6533    9.7418 C   0  0  0  0  0  0  0  0  0  0  0  0
   17.5690   -9.3653   10.1234 C   0  0  0  0  0  0  0  0  0  0  0  0
   14.6594  -10.4710    9.4878 H   0  0  0  0  0  0  0  0  0  0  0  0
  1  2  2  0  0  0
  2  3  1  0  0  0
  3 16  1  0  0  0
 16 17  1  0  0  0
 17 18  2  0  0  0
 18 19  1  0  0  0
 19 20  1  0  0  0
 20 21  2  0  0  0
 21 22  1  0  0  0
 22 23  2  0  0  0
 23 24  1  0  0  0
 24 25  2  0  0  0
  2  5  1  0  0  0
  5  6  2  0  0  0
  6  7  1  0  0  0
  7  8  1  0  0  0
  8  9  1  0  0  0
  9 10  1  0  0  0
 10 11  1  0  0  0
 11 12  2  0  0  0
 11 13  1  0  0  0
 13 14  2  0  0  0
 25 17  1  0  0  0
 14  5  1  0  0  0
 25 20  1  0  0  0
 13  7  1  0  0  0
  3  4  1  0  0  0
 19 26  1  0  0  0
 10 15  1  0  0  0
M  END
>  <minimizedAffinity>
-5.46669

>  <minimizedRMSD>
2.34708

$$$$
95525226 CSSS00159638951 MCULE-8153677810 MolPort-028-739-528 PubChem-72920354 ZINC000095525226


 26 29  0  0  0  0  0  0  0  0999 V2000
   16.9392  -10.0331   12.0410 N   0  0  0  0  0  0  0  0  0  0  0  0
   18.0584  -10.6915   12.7088 C   0  0  0  0  0  0  0  0  0  0  0  0
   18.8068   -9.6767   13.5714 C   0  0  0  0  0  0  0  0  0  0  0  0
   17.8553   -8.9317   14.5165 C   0  0  0  0  0  0  0  0  0  0  0  0
   16.6555   -8.3336   13.7705 C   0  0  0  0  0  0  0  0  0  0  0  0
   15.9575   -9.3783   12.9003 C   0  0  0  0  0  0  0  0  0  0  0  0
   16.8838   -9.8465   10.6118 C   0  0  0  0  0  0  0  0  0  0  0  0
   15.8971  -10.4625    9.8923 N   0  0  0  0  0  0  0  0  0  0  0  0
   15.7926  -10.3259    8.5374 C   0  0  0  0  0  0  0  0  0  0  0  0
   16.6865   -9.5628    7.8513 N   0  0  0  0  0  0  0  0  0  0  0  0
   17.6755   -8.9478    8.5395 C   0  0  0  0  0  0  0  0  0  0  0  0
   18.8915   -7.9888    7.9140 S   0  0  0  0  0  0  0  0  0  0  0  0
   19.6425   -7.6954    9.4040 C   0  0  0  0  0  0  0  0  0  0  0  0
   18.9237   -8.3632   10.4014 C   0  0  0  0  0  0  0  0  0  0  0  0
   17.8144   -9.0621    9.9054 C   0  0  0  0  0  0  0  0  0  0  0  0
   17.4369   -9.7764   15.6859 C   0  0  0  0  0  0  0  0  0  0  0  0
   18.0091  -10.9522   16.0087 N   0  0  0  0  0  0  0  0  0  0  0  0
   17.3476  -11.3631   17.1127 C   0  0  0  0  0  0  0  0  0  0  0  0
   16.3820  -10.4276   17.4449 C   0  0  0  0  0  0  0  0  0  0  0  0
   16.4499   -9.4436   16.5343 N   0  0  0  0  0  0  0  0  0  0  0  0
   15.6406   -8.2331   16.5211 C   0  0  0  0  0  0  0  0  0  0  0  0
   15.1076   -7.9553   17.8848 C   0  0  0  0  0  0  0  0  0  0  0  0
   16.0009   -7.6588   18.9513 N   0  0  0  0  0  0  0  0  0  0  0  0
   13.8656   -7.9482   18.0855 O   0  0  0  0  0  0  0  0  0  0  0  0
   16.9729   -7.6641   18.7952 H   0  0  0  0  0  0  0  0  0  0  0  0
   15.6472   -7.4483   19.8456 H   0  0  0  0  0  0  0  0  0  0  0  0
  7  8  2  0  0  0
  8  9  1  0  0  0
  9 10  2  0  0  0
 10 11  1  0  0  0
 11 12  1  0  0  0
 12 13  1  0  0  0
 13 14  2  0  0  0
 14 15  1  0  0  0
  7  1  1  0  0  0
  1  2  1  0  0  0
  2  3  1  0  0  0
  3  4  1  0  0  0
  4  5  1  0  0  0
  5  6  1  0  0  0
  4 16  1  0  0  0
 16 17  2  0  0  0
 17 18  1  0  0  0
 18 19  2  0  0  0
 19 20  1  0  0  0
 20 21  1  0  0  0
 21 22  1  0  0  0
 22 23  1  0  0  0
 22 24  2  0  0  0
 15  7  1  0  0  0
  6  1  1  0  0  0
 20 16  1  0  0  0
 15 11  2  0  0  0
 23 25  1  0  0  0
 23 26  1  0  0  0
M  END
>  <minimizedAffinity>
-5.43874

>  <minimizedRMSD>
1.43834

$$$$
CSSS02432488181 Z4343193273


 27 30  0  0  0  0  0  0  0  0999 V2000
   16.7576   -9.4279   13.8262 C   0  0  0  0  0  0  0  0  0  0  0  0
   16.1253   -8.5911   14.7437 C   0  0  0  0  0  0  0  0  0  0  0  0
   16.1499   -8.9383   16.0976 C   0  0  0  0  0  0  0  0  0  0  0  0
   16.7834  -10.0782   16.4847 N   0  0  0  0  0  0  0  0  0  0  0  0
   17.3854  -10.8934   15.5771 C   0  0  0  0  0  0  0  0  0  0  0  0
   17.3787  -10.5581   14.2590 N   0  0  0  0  0  0  0  0  0  0  0  0
   15.5008   -8.0819   17.1018 C   0  0  0  0  0  0  0  0  0  0  0  0
   14.4737   -7.4149   16.8059 O   0  0  0  0  0  0  0  0  0  0  0  0
   16.0301   -8.0002   18.4213 N   0  0  0  0  0  0  0  0  0  0  0  0
   16.8322   -8.5174   18.6628 H   0  0  0  0  0  0  0  0  0  0  0  0
   15.5939   -7.4265   19.0920 H   0  0  0  0  0  0  0  0  0  0  0  0
   18.1028  -12.1226   16.0338 C   0  0  0  0  0  0  0  0  0  0  0  0
   18.4827  -12.9776   14.8378 C   0  0  0  0  0  0  0  0  0  0  0  0
   17.2907  -13.3574   15.6858 C   0  0  0  0  0  0  0  0  0  0  0  0
   16.7448   -9.0892   12.4401 N   0  0  0  0  0  0  0  0  0  0  0  0
   16.3680   -8.2224   12.1645 H   0  0  0  0  0  0  0  0  0  0  0  0
   17.2709   -9.9843   11.4219 C   0  0  0  0  0  0  0  0  0  0  0  0
   15.4261   -9.9933    8.9973 C   0  0  0  0  0  0  0  0  0  0  0  0
   16.5617   -9.2235    8.5179 N   0  0  0  0  0  0  0  0  0  0  0  0
   16.6814   -8.6752    7.2862 C   0  0  0  0  0  0  0  0  0  0  0  0
   17.8600   -8.0170    7.1259 N   0  0  0  0  0  0  0  0  0  0  0  0
   18.4760   -8.1768    8.3115 C   0  0  0  0  0  0  0  0  0  0  0  0
   17.6968   -8.9068    9.1619 C   0  0  0  0  0  0  0  0  0  0  0  0
   18.1155   -9.2154   10.4649 C   0  0  0  0  0  0  0  0  0  0  0  0
   19.3727   -8.7317   10.8719 C   0  0  0  0  0  0  0  0  0  0  0  0
   20.1737   -7.9778    9.9869 C   0  0  0  0  0  0  0  0  0  0  0  0
   19.7268   -7.6914    8.6843 C   0  0  0  0  0  0  0  0  0  0  0  0
 18 19  1  0  0  0
 19 20  1  0  0  0
 20 21  2  0  0  0
 21 22  1  0  0  0
 22 23  2  0  0  0
 23 24  1  0  0  0
 24 25  2  0  0  0
 25 26  1  0  0  0
 26 27  2  0  0  0
 24 17  1  0  0  0
 17 15  1  0  0  0
 15  1  1  0  0  0
  1  2  2  0  0  0
  2  3  1  0  0  0
  3  4  2  0  0  0
  4  5  1  0  0  0
  5  6  2  0  0  0
  5 12  1  0  0  0
 12 13  1  0  0  0
 13 14  1  0  0  0
  3  7  1  0  0  0
  7  8  2  0  0  0
  7  9  1  0  0  0
 23 19  1  0  0  0
  6  1  1  0  0  0
 14 12  1  0  0  0
 27 22  1  0  0  0
 15 16  1  0  0  0
  9 10  1  0  0  0
  9 11  1  0  0  0
M  END
>  <minimizedAffinity>
-5.43006

>  <minimizedRMSD>
1.24348

$$$$
CSSS00138461392 MCULE-9047032075 MolPort-039-175-289 PubChem-128990809 Z1758866140


 27 30  0  0  0  0  0  0  0  0999 V2000
   16.3651   -9.3378   14.6278 C   0  0  0  0  0  0  0  0  0  0  0  0
   17.3090  -10.4065   15.1827 C   0  0  0  0  0  0  0  0  0  0  0  0
   16.9385  -10.7452   16.6245 C   0  0  0  0  0  0  0  0  0  0  0  0
   16.9779   -9.4848   17.4835 C   0  0  0  0  0  0  0  0  0  0  0  0
   16.1111   -8.4642   16.8962 N   0  0  0  0  0  0  0  0  0  0  0  0
   16.3762   -8.0883   15.5092 C   0  0  0  0  0  0  0  0  0  0  0  0
   14.9855   -7.8885   17.5940 C   0  0  0  0  0  0  0  0  0  0  0  0
   13.8293   -7.6591   16.9085 N   0  0  0  0  0  0  0  0  0  0  0  0
   12.7322   -7.1235   17.5025 C   0  0  0  0  0  0  0  0  0  0  0  0
   12.7800   -6.7922   18.8537 C   0  0  0  0  0  0  0  0  0  0  0  0
   13.9238   -7.0074   19.5517 N   0  0  0  0  0  0  0  0  0  0  0  0
   15.0275   -7.5418   18.9649 C   0  0  0  0  0  0  0  0  0  0  0  0
   16.0671   -7.7066   19.6554 O   0  0  0  0  0  0  0  0  0  0  0  0
   13.9550   -6.7707   20.5068 H   0  0  0  0  0  0  0  0  0  0  0  0
   18.3078  -10.6778   12.9551 O   0  0  0  0  0  0  0  0  0  0  0  0
   17.6835   -9.6995   12.4598 C   0  0  0  0  0  0  0  0  0  0  0  0
   16.7096   -9.0038   13.2493 N   0  0  0  0  0  0  0  0  0  0  0  0
   16.2394   -8.2463   12.8316 H   0  0  0  0  0  0  0  0  0  0  0  0
   17.9669   -9.2831   11.0662 C   0  0  0  0  0  0  0  0  0  0  0  0
   19.1149   -8.5180   10.7900 C   0  0  0  0  0  0  0  0  0  0  0  0
   19.3914   -8.1184    9.4713 C   0  0  0  0  0  0  0  0  0  0  0  0
   18.5305   -8.4768    8.4258 C   0  0  0  0  0  0  0  0  0  0  0  0
   17.4080   -9.2339    8.7487 C   0  0  0  0  0  0  0  0  0  0  0  0
   16.4816   -9.6624    7.8758 N   0  0  0  0  0  0  0  0  0  0  0  0
   15.6014  -10.3448    8.6462 C   0  0  0  0  0  0  0  0  0  0  0  0
   16.0142  -10.3151    9.9730 C   0  0  0  0  0  0  0  0  0  0  0  0
   17.1570   -9.6083   10.0138 N   0  0  0  0  0  0  0  0  0  0  0  0
 15 16  2  0  0  0
 16 17  1  0  0  0
 17  1  1  0  0  0
  1  2  1  0  0  0
  2  3  1  0  0  0
  3  4  1  0  0  0
  4  5  1  0  0  0
  5  6  1  0  0  0
  5  7  1  0  0  0
  7  8  2  0  0  0
  8  9  1  0  0  0
  9 10  2  0  0  0
 10 11  1  0  0  0
 11 12  1  0  0  0
 12 13  2  0  0  0
 16 19  1  0  0  0
 19 20  2  0  0  0
 20 21  1  0  0  0
 21 22  2  0  0  0
 22 23  1  0  0  0
 23 24  2  0  0  0
 24 25  1  0  0  0
 25 26  2  0  0  0
 26 27  1  0  0  0
  6  1  1  0  0  0
 12  7  1  0  0  0
 27 19  1  0  0  0
 27 23  1  0  0  0
 17 18  1  0  0  0
 11 14  1  0  0  0
M  END
>  <minimizedAffinity>
-5.41412

>  <minimizedRMSD>
1.43634

$$$$
2325876485 CSSS03327036479 PubChem-166377565 Z5775635384


 26 29  0  0  0  0  0  0  0  0999 V2000
   17.0042   -8.8830   14.5651 N   0  0  0  0  0  0  0  0  0  0  0  0
   16.8592   -9.4917   15.8489 C   0  0  0  0  0  0  0  0  0  0  0  0
   17.3736  -10.6196   16.0797 O   0  0  0  0  0  0  0  0  0  0  0  0
   16.5925   -8.0032   14.4050 H   0  0  0  0  0  0  0  0  0  0  0  0
   16.1084   -8.7981   16.9012 C   0  0  0  0  0  0  0  0  0  0  0  0
   16.3898   -8.8657   18.2627 C   0  0  0  0  0  0  0  0  0  0  0  0
   15.4689   -8.0909   18.8523 N   0  0  0  0  0  0  0  0  0  0  0  0
   15.2945   -7.8122   20.1668 C   0  0  0  0  0  0  0  0  0  0  0  0
   14.2354   -6.9577   20.5107 C   0  0  0  0  0  0  0  0  0  0  0  0
   13.4308   -6.4449   19.5296 N   0  0  0  0  0  0  0  0  0  0  0  0
   13.6310   -6.7437   18.2134 C   0  0  0  0  0  0  0  0  0  0  0  0
   12.8793   -6.2612   17.3261 O   0  0  0  0  0  0  0  0  0  0  0  0
   14.6858   -7.5930   17.8863 C   0  0  0  0  0  0  0  0  0  0  0  0
   15.0395   -8.0009   16.6539 N   0  0  0  0  0  0  0  0  0  0  0  0
   12.6902   -5.8463   19.7794 H   0  0  0  0  0  0  0  0  0  0  0  0
   17.7409   -9.5226   13.4875 C   0  0  0  0  0  0  0  0  0  0  0  0
   13.6716  -10.3118   10.7540 C   0  0  0  0  0  0  0  0  0  0  0  0
   15.0867  -10.0407   11.1342 C   0  0  0  0  0  0  0  0  0  0  0  0
   15.5160   -9.9937   12.4191 N   0  0  0  0  0  0  0  0  0  0  0  0
   16.8399   -9.7251   12.3189 C   0  0  0  0  0  0  0  0  0  0  0  0
   17.1781   -9.5999   10.9906 C   0  0  0  0  0  0  0  0  0  0  0  0
   18.4052   -9.3091   10.3976 C   0  0  0  0  0  0  0  0  0  0  0  0
   18.4376   -9.2428    8.9949 C   0  0  0  0  0  0  0  0  0  0  0  0
   17.2686   -9.4619    8.2395 C   0  0  0  0  0  0  0  0  0  0  0  0
   16.0634   -9.7474    8.8984 C   0  0  0  0  0  0  0  0  0  0  0  0
   16.0782   -9.8030   10.2546 N   0  0  0  0  0  0  0  0  0  0  0  0
 17 18  1  0  0  0
 18 19  2  0  0  0
 19 20  1  0  0  0
 20 16  1  0  0  0
 16  1  1  0  0  0
  1  2  1  0  0  0
  2  3  2  0  0  0
  2  5  1  0  0  0
  5  6  2  0  0  0
  6  7  1  0  0  0
  7  8  1  0  0  0
  8  9  2  0  0  0
  9 10  1  0  0  0
 10 11  1  0  0  0
 11 12  2  0  0  0
 11 13  1  0  0  0
 13 14  2  0  0  0
 20 21  2  0  0  0
 21 22  1  0  0  0
 22 23  2  0  0  0
 23 24  1  0  0  0
 24 25  2  0  0  0
 25 26  1  0  0  0
 26 18  1  0  0  0
 14  5  1  0  0  0
 26 21  1  0  0  0
 13  7  1  0  0  0
  1  4  1  0  0  0
 10 15  1  0  0  0
M  END
>  <minimizedAffinity>
-5.40782

>  <minimizedRMSD>
3.33776

$$$$
CSSS02515426787 MCULE-6722114391 MCULE-9246256442 MolPort-047-600-795 PubChem-154818908 PubChem-163334329


 27 29  0  0  0  0  0  0  0  0999 V2000
   16.4215   -8.4537   16.2270 C   0  0  0  0  0  0  0  0  0  0  0  0
   16.6394   -7.3989   15.5691 O   0  0  0  0  0  0  0  0  0  0  0  0
   17.1907   -9.6386   15.9623 N   0  0  0  0  0  0  0  0  0  0  0  0
   17.0663  -10.8124   16.8121 C   0  0  0  0  0  0  0  0  0  0  0  0
   13.0688   -7.6310   17.9006 C   0  0  0  0  0  0  0  0  0  0  0  0
   14.1631   -7.6127   16.8336 C   0  0  0  0  0  0  0  0  0  0  0  0
   15.3549   -8.4577   17.2790 C   0  0  0  0  0  0  0  0  0  0  0  0
   15.9079   -7.9409   18.6055 C   0  0  0  0  0  0  0  0  0  0  0  0
   14.8179   -7.9689   19.6719 C   0  0  0  0  0  0  0  0  0  0  0  0
   13.6238   -7.1231   19.2362 C   0  0  0  0  0  0  0  0  0  0  0  0
   12.5948   -7.1906   20.2592 N   0  0  0  0  0  0  0  0  0  0  0  0
   12.2979   -8.1590   20.3794 H   0  0  0  0  0  0  0  0  0  0  0  0
   11.7962   -6.6228   19.9762 H   0  0  0  0  0  0  0  0  0  0  0  0
   12.1305   -5.6543   18.2396 C   0  0  0  0  0  0  0  0  0  0  0  0
   12.0080   -6.8225   17.4851 O   0  0  0  0  0  0  0  0  0  0  0  0
   18.1835   -9.6716   14.8957 C   0  0  0  0  0  0  0  0  0  0  0  0
   17.5145   -9.7631   13.5663 C   0  0  0  0  0  0  0  0  0  0  0  0
   18.2465   -9.5936   12.4254 N   0  0  0  0  0  0  0  0  0  0  0  0
   17.6269   -9.6529   11.2200 C   0  0  0  0  0  0  0  0  0  0  0  0
   16.2729   -9.8777   11.1403 C   0  0  0  0  0  0  0  0  0  0  0  0
   15.8139   -9.8915    9.5310 S   0  0  0  0  0  0  0  0  0  0  0  0
   17.3676   -9.6055    8.9117 C   0  0  0  0  0  0  0  0  0  0  0  0
   18.2598   -9.4973    9.9847 C   0  0  0  0  0  0  0  0  0  0  0  0
   15.5231  -10.0463   12.2968 C   0  0  0  0  0  0  0  0  0  0  0  0
   14.2820  -10.2509   12.2466 O   0  0  0  0  0  0  0  0  0  0  0  0
   16.1653   -9.9827   13.4966 N   0  0  0  0  0  0  0  0  0  0  0  0
   15.6501  -10.0967   14.3278 H   0  0  0  0  0  0  0  0  0  0  0  0
 14 15  1  0  0  0
  5 15  1  0  0  0
  5  6  1  0  0  0
  6  7  1  0  0  0
  7  8  1  0  0  0
  8  9  1  0  0  0
  9 10  1  0  0  0
 10 11  1  0  0  0
  7  1  1  0  0  0
  1  2  2  0  0  0
  1  3  1  0  0  0
  3  4  1  0  0  0
  3 16  1  0  0  0
 16 17  1  0  0  0
 17 18  2  0  0  0
 18 19  1  0  0  0
 19 20  2  0  0  0
 20 21  1  0  0  0
 21 22  1  0  0  0
 22 23  2  0  0  0
 20 24  1  0  0  0
 24 25  2  0  0  0
 24 26  1  0  0  0
 10  5  1  0  0  0
 26 17  1  0  0  0
 23 19  1  0  0  0
 11 12  1  0  0  0
 11 13  1  0  0  0
 26 27  1  0  0  0
M  END
>  <minimizedAffinity>
-5.38328

>  <minimizedRMSD>
3.91657

$$$$
CSSS00138476354 MCULE-1397020023 MolPort-039-183-322 PubChem-128998265 Z1757795407


 30 33  0  0  0  0  0  0  0  0999 V2000
   17.5025   -9.1564   10.8922 N   0  0  0  0  0  0  0  0  0  0  0  0
   17.5245   -8.2956   11.3695 H   0  0  0  0  0  0  0  0  0  0  0  0
   19.5215   -7.6910    6.9634 N   0  0  0  0  0  0  0  0  0  0  0  0
   20.1644   -7.2069    8.0248 N   0  0  0  0  0  0  0  0  0  0  0  0
   19.5603   -7.6466    9.1615 C   0  0  0  0  0  0  0  0  0  0  0  0
   18.4980   -8.4374    8.7696 C   0  0  0  0  0  0  0  0  0  0  0  0
   17.5290   -9.1484    9.4626 C   0  0  0  0  0  0  0  0  0  0  0  0
   16.6036   -9.8394    8.7292 N   0  0  0  0  0  0  0  0  0  0  0  0
   16.6290   -9.8303    7.3576 C   0  0  0  0  0  0  0  0  0  0  0  0
   17.5882   -9.1250    6.6852 N   0  0  0  0  0  0  0  0  0  0  0  0
   18.5041   -8.4423    7.4156 C   0  0  0  0  0  0  0  0  0  0  0  0
   21.3964   -7.4072    5.3859 C   0  0  0  0  0  0  0  0  0  0  0  0
   19.8863   -7.4297    5.5634 C   0  0  0  0  0  0  0  0  0  0  0  0
   19.3186   -8.5153    4.6668 C   0  0  0  0  0  0  0  0  0  0  0  0
   19.3363   -6.0840    5.1254 C   0  0  0  0  0  0  0  0  0  0  0  0
   17.4442  -10.3856   11.6715 C   0  0  0  0  0  0  0  0  0  0  0  0
   16.8347  -10.1222   13.0386 C   0  0  0  0  0  0  0  0  0  0  0  0
   16.5662   -8.6248   13.2250 C   0  0  0  0  0  0  0  0  0  0  0  0
   15.8826   -8.3376   14.5668 C   0  0  0  0  0  0  0  0  0  0  0  0
   16.5094   -9.1438   15.6653 C   0  0  0  0  0  0  0  0  0  0  0  0
   16.3230   -9.0322   17.0273 C   0  0  0  0  0  0  0  0  0  0  0  0
   17.0916  -10.0448   17.5874 C   0  0  0  0  0  0  0  0  0  0  0  0
   17.6945  -10.7272   16.5869 N   0  0  0  0  0  0  0  0  0  0  0  0
   17.3244  -10.1851   15.4391 N   0  0  0  0  0  0  0  0  0  0  0  0
   17.7892  -10.6196   14.1262 C   0  0  0  0  0  0  0  0  0  0  0  0
   15.4956   -8.0600   17.7572 C   0  0  0  0  0  0  0  0  0  0  0  0
   15.7952   -7.7434   19.1126 N   0  0  0  0  0  0  0  0  0  0  0  0
   14.5193   -7.5007   17.1925 O   0  0  0  0  0  0  0  0  0  0  0  0
   16.5568   -8.1759   19.5623 H   0  0  0  0  0  0  0  0  0  0  0  0
   15.2408   -7.0921   19.6001 H   0  0  0  0  0  0  0  0  0  0  0  0
 12 13  1  0  0  0
 13 14  1  0  0  0
 13 15  1  0  0  0
 13  3  1  0  0  0
  3  4  1  0  0  0
  4  5  2  0  0  0
  5  6  1  0  0  0
  6  7  2  0  0  0
  7  1  1  0  0  0
  1 16  1  0  0  0
 16 17  1  0  0  0
 17 18  1  0  0  0
 18 19  1  0  0  0
 19 20  1  0  0  0
 20 21  2  0  0  0
 21 22  1  0  0  0
 22 23  2  0  0  0
 23 24  1  0  0  0
 24 25  1  0  0  0
 21 26  1  0  0  0
 26 27  1  0  0  0
 26 28  2  0  0  0
  7  8  1  0  0  0
  8  9  2  0  0  0
  9 10  1  0  0  0
 10 11  2  0  0  0
 11  3  1  0  0  0
 11  6  1  0  0  0
 25 17  1  0  0  0
 24 20  1  0  0  0
  1  2  1  0  0  0
 27 29  1  0  0  0
 27 30  1  0  0  0
M  END
>  <minimizedAffinity>
-5.37908

>  <minimizedRMSD>
2.14527

$$$$
CSC027441765 12522057 CSSS00027441765 MCULE-2955432704 MolPort-005-733-648 PubChem-42949718 Z319459150 ZINC000012522057 ZINC12522057


 31 34  0  0  0  0  0  0  0  0999 V2000
   17.0806   -9.0379   16.5460 C   0  0  0  0  0  0  0  0  0  0  0  0
   16.8969   -8.8126   17.9212 C   0  0  0  0  0  0  0  0  0  0  0  0
   15.7172   -8.2420   18.3994 C   0  0  0  0  0  0  0  0  0  0  0  0
   14.7023   -7.8891   17.5100 C   0  0  0  0  0  0  0  0  0  0  0  0
   14.8729   -8.1069   16.1407 C   0  0  0  0  0  0  0  0  0  0  0  0
   16.0498   -8.6780   15.6443 C   0  0  0  0  0  0  0  0  0  0  0  0
   13.2263   -7.1563   18.1160 S   0  0  0  0  0  0  0  0  0  0  0  0
   12.6813   -6.1861   17.1041 O   0  0  0  0  0  0  0  0  0  0  0  0
   12.2049   -8.2315   18.3568 O   0  0  0  0  0  0  0  0  0  0  0  0
   13.5461   -6.3238   19.6011 N   0  0  0  0  0  0  0  0  0  0  0  0
   14.4577   -5.8687   19.5541 H   0  0  0  0  0  0  0  0  0  0  0  0
   12.5047   -5.3266   19.7858 C   0  0  0  0  0  0  0  0  0  0  0  0
   12.9001   -4.3949   20.9133 C   0  0  0  0  0  0  0  0  0  0  0  0
   11.8934   -5.4964   21.1608 C   0  0  0  0  0  0  0  0  0  0  0  0
   18.5064  -11.0131   16.0845 C   0  0  0  0  0  0  0  0  0  0  0  0
   18.2684   -9.6117   16.0781 O   0  0  0  0  0  0  0  0  0  0  0  0
   16.1457   -8.8702   14.2261 N   0  0  0  0  0  0  0  0  0  0  0  0
   15.8334   -8.1354   13.6501 H   0  0  0  0  0  0  0  0  0  0  0  0
   16.6650  -10.0581   13.5661 C   0  0  0  0  0  0  0  0  0  0  0  0
   16.8271   -9.7930   12.1120 C   0  0  0  0  0  0  0  0  0  0  0  0
   15.8402  -10.1962   11.2175 C   0  0  0  0  0  0  0  0  0  0  0  0
   16.0064   -9.9163    9.8621 C   0  0  0  0  0  0  0  0  0  0  0  0
   15.1145  -10.2844    9.0491 O   0  0  0  0  0  0  0  0  0  0  0  0
   17.1223   -9.2509    9.4295 N   0  0  0  0  0  0  0  0  0  0  0  0
   17.2839   -8.9770    8.1006 C   0  0  0  0  0  0  0  0  0  0  0  0
   18.4143   -8.2972    7.6444 C   0  0  0  0  0  0  0  0  0  0  0  0
   18.5792   -8.0054    6.1968 C   0  0  0  0  0  0  0  0  0  0  0  0
   19.3863   -7.8941    8.5574 C   0  0  0  0  0  0  0  0  0  0  0  0
   19.2207   -8.1738    9.9127 C   0  0  0  0  0  0  0  0  0  0  0  0
   18.0791   -8.8569   10.3391 C   0  0  0  0  0  0  0  0  0  0  0  0
   17.9203   -9.1284   11.6603 N   0  0  0  0  0  0  0  0  0  0  0  0
 15 16  1  0  0  0
 16  1  1  0  0  0
  1  2  2  0  0  0
  2  3  1  0  0  0
  3  4  2  0  0  0
  4  5  1  0  0  0
  4  7  1  0  0  0
  5  6  2  0  0  0
  6 17  1  0  0  0
  6  1  1  0  0  0
 17 19  1  0  0  0
 19 20  1  0  0  0
 20 21  2  0  0  0
 21 22  1  0  0  0
 22 23  2  0  0  0
 22 24  1  0  0  0
 24 25  1  0  0  0
 25 26  2  0  0  0
 26 27  1  0  0  0
 26 28  1  0  0  0
 28 29  2  0  0  0
 29 30  1  0  0  0
 30 31  2  0  0  0
 30 24  1  0  0  0
 31 20  1  0  0  0
  7  8  2  0  0  0
  7  9  2  0  0  0
  7 10  1  0  0  0
 10 12  1  0  0  0
 12 13  1  0  0  0
 13 14  1  0  0  0
 14 12  1  0  0  0
 17 18  1  0  0  0
 10 11  1  0  0  0
M  END
>  <minimizedAffinity>
-5.35024

>  <minimizedRMSD>
3.15408

$$$$
CSC064071764 26721018 CSSS00064071764 MCULE-3074854135 MolPort-046-142-369 PubChem-34004471 Z354339766


 24 26  0  0  0  0  0  0  0  0999 V2000
   18.5273   -9.8899   11.9949 N   0  0  0  0  0  0  0  0  0  0  0  0
   19.3958   -9.4272   12.0238 H   0  0  0  0  0  0  0  0  0  0  0  0
   14.1551  -10.3691    9.6517 C   0  0  0  0  0  0  0  0  0  0  0  0
   15.5556   -9.8759    9.7063 C   0  0  0  0  0  0  0  0  0  0  0  0
   16.3444  -10.1389   10.8449 C   0  0  0  0  0  0  0  0  0  0  0  0
   17.6667   -9.6630   10.8754 C   0  0  0  0  0  0  0  0  0  0  0  0
   18.1070   -8.9723    9.7956 N   0  0  0  0  0  0  0  0  0  0  0  0
   19.2927   -8.4346    9.5962 N   0  0  0  0  0  0  0  0  0  0  0  0
   19.2178   -7.8621    8.3671 C   0  0  0  0  0  0  0  0  0  0  0  0
   17.9975   -8.0317    7.7864 N   0  0  0  0  0  0  0  0  0  0  0  0
   17.3487   -8.7330    8.7291 C   0  0  0  0  0  0  0  0  0  0  0  0
   16.0685   -9.1715    8.6540 N   0  0  0  0  0  0  0  0  0  0  0  0
   18.1724  -10.7762   13.0927 C   0  0  0  0  0  0  0  0  0  0  0  0
   18.2659  -10.0405   14.3823 C   0  0  0  0  0  0  0  0  0  0  0  0
   19.5166   -9.7791   14.9497 C   0  0  0  0  0  0  0  0  0  0  0  0
   19.6051   -9.0678   16.1492 C   0  0  0  0  0  0  0  0  0  0  0  0
   18.4433   -8.6125   16.7794 C   0  0  0  0  0  0  0  0  0  0  0  0
   17.1846   -8.8635   16.2141 C   0  0  0  0  0  0  0  0  0  0  0  0
   17.1044   -9.5780   15.0095 C   0  0  0  0  0  0  0  0  0  0  0  0
   15.9605   -8.3801   16.8764 C   0  0  0  0  0  0  0  0  0  0  0  0
   15.9241   -8.2105   18.2907 N   0  0  0  0  0  0  0  0  0  0  0  0
   14.9334   -8.1117   16.1980 O   0  0  0  0  0  0  0  0  0  0  0  0
   16.7202   -8.4168   18.8319 H   0  0  0  0  0  0  0  0  0  0  0  0
   15.1027   -7.8871   18.7267 H   0  0  0  0  0  0  0  0  0  0  0  0
  3  4  1  0  0  0
  4  5  1  0  0  0
  5  6  2  0  0  0
  6  1  1  0  0  0
  1 13  1  0  0  0
 13 14  1  0  0  0
 14 15  2  0  0  0
 15 16  1  0  0  0
 16 17  2  0  0  0
 17 18  1  0  0  0
 18 19  2  0  0  0
 18 20  1  0  0  0
 20 21  1  0  0  0
 20 22  2  0  0  0
  6  7  1  0  0  0
  7  8  1  0  0  0
  8  9  2  0  0  0
  9 10  1  0  0  0
 10 11  2  0  0  0
 11 12  1  0  0  0
 12  4  2  0  0  0
 19 14  1  0  0  0
 11  7  1  0  0  0
  1  2  1  0  0  0
 21 23  1  0  0  0
 21 24  1  0  0  0
M  END
>  <minimizedAffinity>
-5.35011

>  <minimizedRMSD>
1.46439

$$$$
223607806 CSSS00159912940 MCULE-6887934878 MolPort-038-424-620 ZINC000223607806


 28 30  0  0  0  0  0  0  0  0999 V2000
   15.9388  -10.5076   10.3136 N   0  0  0  0  0  0  0  0  0  0  0  0
   14.9152  -10.1014   11.2245 C   0  0  0  0  0  0  0  0  0  0  0  0
   13.7851   -9.7384   10.8019 O   0  0  0  0  0  0  0  0  0  0  0  0
   16.7921  -10.8353   10.6792 H   0  0  0  0  0  0  0  0  0  0  0  0
   15.7733  -10.4573    8.8678 C   0  0  0  0  0  0  0  0  0  0  0  0
   17.9493   -8.4883    6.7722 N   0  0  0  0  0  0  0  0  0  0  0  0
   16.8778   -9.2527    6.9535 N   0  0  0  0  0  0  0  0  0  0  0  0
   16.8530   -9.6291    8.2549 C   0  0  0  0  0  0  0  0  0  0  0  0
   17.9404   -9.0791    8.9018 C   0  0  0  0  0  0  0  0  0  0  0  0
   18.3787   -9.1382   10.2222 C   0  0  0  0  0  0  0  0  0  0  0  0
   19.5591   -8.4395   10.5388 C   0  0  0  0  0  0  0  0  0  0  0  0
   20.2558   -7.7138    9.5451 C   0  0  0  0  0  0  0  0  0  0  0  0
   19.7815   -7.6736    8.2201 C   0  0  0  0  0  0  0  0  0  0  0  0
   18.6086   -8.3745    7.9404 C   0  0  0  0  0  0  0  0  0  0  0  0
   19.5204   -8.6444    4.9114 C   0  0  0  0  0  0  0  0  0  0  0  0
   18.3226   -7.9125    5.4881 C   0  0  0  0  0  0  0  0  0  0  0  0
   15.2009  -10.0707   12.6829 C   0  0  0  0  0  0  0  0  0  0  0  0
   16.5449  -10.7251   12.9531 C   0  0  0  0  0  0  0  0  0  0  0  0
   17.1930  -10.1187   14.1637 C   0  0  0  0  0  0  0  0  0  0  0  0
   18.1250  -10.8372   14.9355 C   0  0  0  0  0  0  0  0  0  0  0  0
   18.5142  -12.2347   14.5867 C   0  0  0  0  0  0  0  0  0  0  0  0
   18.7002  -10.2507   16.0170 N   0  0  0  0  0  0  0  0  0  0  0  0
   18.3970   -8.9758   16.3696 C   0  0  0  0  0  0  0  0  0  0  0  0
   18.9981   -8.4025   17.4816 O   0  0  0  0  0  0  0  0  0  0  0  0
   17.5091   -8.2597   15.6345 N   0  0  0  0  0  0  0  0  0  0  0  0
   16.9053   -8.7964   14.5426 C   0  0  0  0  0  0  0  0  0  0  0  0
   15.9389   -7.9603   13.7726 C   0  0  0  0  0  0  0  0  0  0  0  0
   19.6112   -8.8964   17.9896 H   0  0  0  0  0  0  0  0  0  0  0  0
 15 16  1  0  0  0
 16  6  1  0  0  0
  6  7  1  0  0  0
  7  8  2  0  0  0
  8  5  1  0  0  0
  5  1  1  0  0  0
  1  2  1  0  0  0
  2  3  2  0  0  0
  2 17  1  0  0  0
 17 18  1  0  0  0
 18 19  1  0  0  0
 19 20  2  0  0  0
 20 21  1  0  0  0
 20 22  1  0  0  0
 22 23  2  0  0  0
 23 24  1  0  0  0
 23 25  1  0  0  0
 25 26  2  0  0  0
 26 27  1  0  0  0
  8  9  1  0  0  0
  9 10  2  0  0  0
 10 11  1  0  0  0
 11 12  2  0  0  0
 12 13  1  0  0  0
 13 14  2  0  0  0
 14  6  1  0  0  0
 26 19  1  0  0  0
 14  9  1  0  0  0
  1  4  1  0  0  0
 24 28  1  0  0  0
M  END
>  <minimizedAffinity>
-5.34124

>  <minimizedRMSD>
2.13434

$$$$
CSC026445640 CSSS00026445640 MCULE-1197485471 MolPort-009-031-346 PubChem-47005476 Z32217496


 28 30  0  0  0  0  0  0  0  0999 V2000
   19.4868  -10.9584   13.9661 C   0  0  0  0  0  0  0  0  0  0  0  0
   18.0262  -10.8349   13.5728 C   0  0  0  0  0  0  0  0  0  0  0  0
   17.2625  -10.0864   14.6218 C   0  0  0  0  0  0  0  0  0  0  0  0
   16.5437   -8.9235   14.3053 C   0  0  0  0  0  0  0  0  0  0  0  0
   15.8292   -8.2478   15.2983 C   0  0  0  0  0  0  0  0  0  0  0  0
   15.8252   -8.7307   16.6112 C   0  0  0  0  0  0  0  0  0  0  0  0
   16.5435   -9.8887   16.9287 C   0  0  0  0  0  0  0  0  0  0  0  0
   17.2584  -10.5652   15.9364 C   0  0  0  0  0  0  0  0  0  0  0  0
   14.9377   -7.8761   17.8598 S   0  0  0  0  0  0  0  0  0  0  0  0
   16.0055   -7.4786   19.1578 N   0  0  0  0  0  0  0  0  0  0  0  0
   14.3490   -6.6159   17.2904 O   0  0  0  0  0  0  0  0  0  0  0  0
   13.8238   -8.7440   18.3741 O   0  0  0  0  0  0  0  0  0  0  0  0
   16.7612   -6.8896   18.8082 H   0  0  0  0  0  0  0  0  0  0  0  0
   16.3959   -8.3349   19.5512 H   0  0  0  0  0  0  0  0  0  0  0  0
   17.9232  -10.1651   12.2829 N   0  0  0  0  0  0  0  0  0  0  0  0
   17.0052  -10.5739   11.2647 C   0  0  0  0  0  0  0  0  0  0  0  0
   16.2770  -11.5883   11.4376 O   0  0  0  0  0  0  0  0  0  0  0  0
   18.5119   -9.3965   12.1040 H   0  0  0  0  0  0  0  0  0  0  0  0
   16.9072   -9.8162   10.0092 C   0  0  0  0  0  0  0  0  0  0  0  0
   17.8483   -8.9729    9.4606 C   0  0  0  0  0  0  0  0  0  0  0  0
   17.2791   -8.5191    8.3047 C   0  0  0  0  0  0  0  0  0  0  0  0
   17.9360   -7.6293    7.4591 C   0  0  0  0  0  0  0  0  0  0  0  0
   19.2238   -7.2063    7.8395 C   0  0  0  0  0  0  0  0  0  0  0  0
   19.8117   -7.6761    9.0359 C   0  0  0  0  0  0  0  0  0  0  0  0
   19.1202   -8.5754    9.8686 C   0  0  0  0  0  0  0  0  0  0  0  0
   16.0548   -9.0502    8.1454 N   0  0  0  0  0  0  0  0  0  0  0  0
   15.8290   -9.8433    9.1897 N   0  0  0  0  0  0  0  0  0  0  0  0
   15.4393   -8.8833    7.3954 H   0  0  0  0  0  0  0  0  0  0  0  0
  1  2  1  0  0  0
  2  3  1  0  0  0
  3  4  2  0  0  0
  4  5  1  0  0  0
  5  6  2  0  0  0
  6  9  1  0  0  0
  9 10  1  0  0  0
  9 11  2  0  0  0
  9 12  2  0  0  0
  6  7  1  0  0  0
  7  8  2  0  0  0
  2 15  1  0  0  0
 15 16  1  0  0  0
 16 19  1  0  0  0
 19 20  1  0  0  0
 20 21  1  0  0  0
 21 22  2  0  0  0
 22 23  1  0  0  0
 23 24  2  0  0  0
 24 25  1  0  0  0
 21 26  1  0  0  0
 26 27  1  0  0  0
 16 17  2  0  0  0
  8  3  1  0  0  0
 27 19  2  0  0  0
 25 20  2  0  0  0
 10 13  1  0  0  0
 10 14  1  0  0  0
 15 18  1  0  0  0
 26 28  1  0  0  0
M  END
>  <minimizedAffinity>
-5.33876

>  <minimizedRMSD>
1.07925

$$$$
CSC028000580 225488756 CSSS00028000580 MCULE-5133637159 MolPort-038-971-126 PubChem-100652451 Z1874287462 ZINC000225488756


 26 29  0  0  0  0  0  0  0  0999 V2000
   15.8546  -10.6048   10.6251 C   0  0  0  0  0  0  0  0  0  0  0  0
   16.7478  -11.4917   11.5002 C   0  0  0  0  0  0  0  0  0  0  0  0
   17.4749  -10.6703   12.5633 C   0  0  0  0  0  0  0  0  0  0  0  0
   16.5085   -9.8698   13.3093 N   0  0  0  0  0  0  0  0  0  0  0  0
   15.6566   -8.9630   12.5467 C   0  0  0  0  0  0  0  0  0  0  0  0
   14.9055   -9.7449   11.4686 C   0  0  0  0  0  0  0  0  0  0  0  0
   20.4274   -7.7574    9.6587 C   0  0  0  0  0  0  0  0  0  0  0  0
   19.3703   -7.9004    8.6217 C   0  0  0  0  0  0  0  0  0  0  0  0
   18.2039   -8.6238    8.8622 C   0  0  0  0  0  0  0  0  0  0  0  0
   17.8359   -9.2616    9.9402 O   0  0  0  0  0  0  0  0  0  0  0  0
   16.6511   -9.7822    9.6606 C   0  0  0  0  0  0  0  0  0  0  0  0
   16.2174   -9.5015    8.4037 N   0  0  0  0  0  0  0  0  0  0  0  0
   17.2292   -8.7615    7.9202 C   0  0  0  0  0  0  0  0  0  0  0  0
   17.3375   -8.1872    6.6559 C   0  0  0  0  0  0  0  0  0  0  0  0
   18.5040   -7.4484    6.3780 C   0  0  0  0  0  0  0  0  0  0  0  0
   19.5156   -7.3054    7.3552 C   0  0  0  0  0  0  0  0  0  0  0  0
   16.6091   -9.7244   14.7347 C   0  0  0  0  0  0  0  0  0  0  0  0
   15.9892   -8.6720   15.3358 N   0  0  0  0  0  0  0  0  0  0  0  0
   16.0560   -8.4799   16.6772 C   0  0  0  0  0  0  0  0  0  0  0  0
   16.7470   -9.3501   17.4545 N   0  0  0  0  0  0  0  0  0  0  0  0
   17.3742  -10.4254   16.9137 C   0  0  0  0  0  0  0  0  0  0  0  0
   18.0742  -11.3265   17.7664 N   0  0  0  0  0  0  0  0  0  0  0  0
   17.3175  -10.6491   15.5308 C   0  0  0  0  0  0  0  0  0  0  0  0
   18.0508  -12.1027   14.8526 Cl  0  0  0  0  0  0  0  0  0  0  0  0
   18.1082  -11.1605   18.7362 H   0  0  0  0  0  0  0  0  0  0  0  0
   18.5240  -12.1152   17.3859 H   0  0  0  0  0  0  0  0  0  0  0  0
  7  8  1  0  0  0
  8  9  2  0  0  0
  9 10  1  0  0  0
 10 11  1  0  0  0
 11 12  2  0  0  0
 12 13  1  0  0  0
 13 14  2  0  0  0
 14 15  1  0  0  0
 15 16  2  0  0  0
 11  1  1  0  0  0
  1  2  1  0  0  0
  2  3  1  0  0  0
  3  4  1  0  0  0
  4  5  1  0  0  0
  5  6  1  0  0  0
  4 17  1  0  0  0
 17 18  2  0  0  0
 18 19  1  0  0  0
 19 20  2  0  0  0
 20 21  1  0  0  0
 21 22  1  0  0  0
 21 23  2  0  0  0
 23 24  1  0  0  0
 16  8  1  0  0  0
  6  1  1  0  0  0
 23 17  1  0  0  0
 13  9  1  0  0  0
 22 25  1  0  0  0
 22 26  1  0  0  0
M  END
>  <minimizedAffinity>
-5.33735

>  <minimizedRMSD>
1.79132

$$$$
CSC027519498 CSSS00027519498 MCULE-6660078051 MolPort-044-220-770 PubChem-71893968 Z449404394


 26 28  0  0  0  0  0  0  0  0999 V2000
   16.2134   -8.7337   15.1331 C   0  0  0  0  0  0  0  0  0  0  0  0
   16.4963   -9.7381   14.1941 C   0  0  0  0  0  0  0  0  0  0  0  0
   16.3877   -9.4891   12.8224 C   0  0  0  0  0  0  0  0  0  0  0  0
   15.9862   -8.2182   12.3830 C   0  0  0  0  0  0  0  0  0  0  0  0
   15.7019   -7.2112   13.3075 C   0  0  0  0  0  0  0  0  0  0  0  0
   15.8155   -7.4677   14.6758 C   0  0  0  0  0  0  0  0  0  0  0  0
   17.1170  -10.1878   17.0618 C   0  0  0  0  0  0  0  0  0  0  0  0
   16.3330   -9.0034   16.5825 C   0  0  0  0  0  0  0  0  0  0  0  0
   15.7575   -8.2094   17.4350 N   0  0  0  0  0  0  0  0  0  0  0  0
   15.8379   -8.4163   18.8199 N   0  0  0  0  0  0  0  0  0  0  0  0
   14.9449   -7.7567   19.7146 C   0  0  0  0  0  0  0  0  0  0  0  0
   14.0644   -6.9725   19.2656 O   0  0  0  0  0  0  0  0  0  0  0  0
   16.5216   -9.0264   19.1798 H   0  0  0  0  0  0  0  0  0  0  0  0
   15.0574   -7.9893   21.0852 O   0  0  0  0  0  0  0  0  0  0  0  0
   14.1328   -7.4469   22.0159 C   0  0  0  0  0  0  0  0  0  0  0  0
   16.6792  -10.5204   11.9228 O   0  0  0  0  0  0  0  0  0  0  0  0
   16.0686  -10.6372   10.6414 C   0  0  0  0  0  0  0  0  0  0  0  0
   16.8795   -9.9218    9.6151 C   0  0  0  0  0  0  0  0  0  0  0  0
   17.8500   -8.9687    9.8952 C   0  0  0  0  0  0  0  0  0  0  0  0
   18.2928   -8.5562    8.6994 N   0  0  0  0  0  0  0  0  0  0  0  0
   19.2421   -7.6317    8.4130 C   0  0  0  0  0  0  0  0  0  0  0  0
   19.5223   -7.3719    7.0636 C   0  0  0  0  0  0  0  0  0  0  0  0
   18.8172   -8.0682    6.0634 C   0  0  0  0  0  0  0  0  0  0  0  0
   17.8400   -9.0163    6.4072 C   0  0  0  0  0  0  0  0  0  0  0  0
   17.6076   -9.2320    7.7634 C   0  0  0  0  0  0  0  0  0  0  0  0
   16.7129  -10.0915    8.2815 N   0  0  0  0  0  0  0  0  0  0  0  0
  7  8  1  0  0  0
  8  9  2  0  0  0
  8  1  1  0  0  0
  9 10  1  0  0  0
 10 11  1  0  0  0
 11 12  2  0  0  0
 11 14  1  0  0  0
 14 15  1  0  0  0
  1  2  2  0  0  0
  2  3  1  0  0  0
  3  4  2  0  0  0
  3 16  1  0  0  0
  4  5  1  0  0  0
  5  6  2  0  0  0
  6  1  1  0  0  0
 16 17  1  0  0  0
 17 18  1  0  0  0
 18 19  2  0  0  0
 19 20  1  0  0  0
 20 21  1  0  0  0
 21 22  2  0  0  0
 22 23  1  0  0  0
 23 24  2  0  0  0
 24 25  1  0  0  0
 25 26  2  0  0  0
 25 20  1  0  0  0
 26 18  1  0  0  0
 10 13  1  0  0  0
M  END
>  <minimizedAffinity>
-5.32976

>  <minimizedRMSD>
1.43837

$$$$
CSSS00104927726 MCULE-8144974665 MolPort-044-683-216 PubChem-124207090


 25 28  0  0  0  0  0  0  0  0999 V2000
   16.6336   -9.6523   15.3243 C   0  0  0  0  0  0  0  0  0  0  0  0
   15.9060   -8.7840   15.8782 O   0  0  0  0  0  0  0  0  0  0  0  0
   16.6853   -9.7269   13.8916 N   0  0  0  0  0  0  0  0  0  0  0  0
   17.9689   -9.9617   13.2288 C   0  0  0  0  0  0  0  0  0  0  0  0
   17.7488  -10.7353   11.9335 C   0  0  0  0  0  0  0  0  0  0  0  0
   16.7009  -10.0830   11.1530 N   0  0  0  0  0  0  0  0  0  0  0  0
   15.4095   -9.8898   11.8050 C   0  0  0  0  0  0  0  0  0  0  0  0
   15.6090   -9.1199   13.1075 C   0  0  0  0  0  0  0  0  0  0  0  0
   16.8413   -9.8242    9.7431 C   0  0  0  0  0  0  0  0  0  0  0  0
   17.8790   -9.0214    9.2191 C   0  0  0  0  0  0  0  0  0  0  0  0
   18.8301   -8.3853   10.0310 C   0  0  0  0  0  0  0  0  0  0  0  0
   19.8316   -7.5936    9.4625 C   0  0  0  0  0  0  0  0  0  0  0  0
   19.8883   -7.4241    8.0769 C   0  0  0  0  0  0  0  0  0  0  0  0
   18.9398   -8.0402    7.2569 C   0  0  0  0  0  0  0  0  0  0  0  0
   17.9341   -8.8317    7.8197 C   0  0  0  0  0  0  0  0  0  0  0  0
   17.0014   -9.4048    7.0189 N   0  0  0  0  0  0  0  0  0  0  0  0
   16.0033  -10.1591    7.5430 C   0  0  0  0  0  0  0  0  0  0  0  0
   15.9287  -10.3578    8.8841 N   0  0  0  0  0  0  0  0  0  0  0  0
   18.0512  -12.4290   14.5160 C   0  0  0  0  0  0  0  0  0  0  0  0
   18.0552  -11.7365   15.8340 C   0  0  0  0  0  0  0  0  0  0  0  0
   18.5992  -12.2515   16.9488 N   0  0  0  0  0  0  0  0  0  0  0  0
   18.3103  -11.4128   17.9338 N   0  0  0  0  0  0  0  0  0  0  0  0
   17.5938  -10.3849   17.5004 N   0  0  0  0  0  0  0  0  0  0  0  0
   17.4255  -10.5582   16.1773 C   0  0  0  0  0  0  0  0  0  0  0  0
   18.5921  -11.5374   18.8689 H   0  0  0  0  0  0  0  0  0  0  0  0
 19 20  1  0  0  0
 20 21  2  0  0  0
 21 22  1  0  0  0
 22 23  1  0  0  0
 23 24  2  0  0  0
 24  1  1  0  0  0
  1  2  2  0  0  0
  1  3  1  0  0  0
  3  4  1  0  0  0
  4  5  1  0  0  0
  5  6  1  0  0  0
  6  7  1  0  0  0
  7  8  1  0  0  0
  6  9  1  0  0  0
  9 10  1  0  0  0
 10 11  2  0  0  0
 11 12  1  0  0  0
 12 13  2  0  0  0
 13 14  1  0  0  0
 14 15  2  0  0  0
 15 16  1  0  0  0
 16 17  2  0  0  0
 17 18  1  0  0  0
 24 20  1  0  0  0
  8  3  1  0  0  0
 18  9  2  0  0  0
 15 10  1  0  0  0
 22 25  1  0  0  0
M  END
>  <minimizedAffinity>
-5.32907

>  <minimizedRMSD>
2.08802

$$$$
CSC027322566 9113915 CSSS00027322566 MCULE-1431340913 MolPort-005-539-594 Z227966528 ZINC000009113915 ZINC09113915


 28 30  0  0  0  0  0  0  0  0999 V2000
   17.0262   -9.8292   12.1458 C   0  0  0  0  0  0  0  0  0  0  0  0
   15.8863  -10.3104   10.8096 S   0  0  0  0  0  0  0  0  0  0  0  0
   19.0532   -8.1320    5.9221 C   0  0  0  0  0  0  0  0  0  0  0  0
   19.7026   -7.3532    6.9076 C   0  0  0  0  0  0  0  0  0  0  0  0
   19.3475   -7.4621    8.2649 C   0  0  0  0  0  0  0  0  0  0  0  0
   18.3381   -8.3624    8.5915 C   0  0  0  0  0  0  0  0  0  0  0  0
   17.8418   -8.6282    9.8072 N   0  0  0  0  0  0  0  0  0  0  0  0
   16.8994   -9.5681    9.5360 C   0  0  0  0  0  0  0  0  0  0  0  0
   16.7811   -9.8963    8.2233 N   0  0  0  0  0  0  0  0  0  0  0  0
   17.7077   -9.1159    7.6500 C   0  0  0  0  0  0  0  0  0  0  0  0
   18.0320   -9.0347    6.2990 C   0  0  0  0  0  0  0  0  0  0  0  0
   18.0955   -8.2408   10.6760 H   0  0  0  0  0  0  0  0  0  0  0  0
   18.5690   -8.2594    3.5000 C   0  0  0  0  0  0  0  0  0  0  0  0
   19.4420   -7.9873    4.5877 O   0  0  0  0  0  0  0  0  0  0  0  0
   16.3117   -8.9928   13.1940 C   0  0  0  0  0  0  0  0  0  0  0  0
   16.8285   -9.2839   14.4866 O   0  0  0  0  0  0  0  0  0  0  0  0
   16.2162   -8.8366   15.6609 C   0  0  0  0  0  0  0  0  0  0  0  0
   16.7726   -9.1930   16.8936 C   0  0  0  0  0  0  0  0  0  0  0  0
   16.1798   -8.7656   18.0854 C   0  0  0  0  0  0  0  0  0  0  0  0
   15.0234   -7.9793   18.0519 C   0  0  0  0  0  0  0  0  0  0  0  0
   14.4653   -7.6158   16.8220 C   0  0  0  0  0  0  0  0  0  0  0  0
   15.0580   -8.0428   15.6309 C   0  0  0  0  0  0  0  0  0  0  0  0
   14.2857   -7.4355   19.5472 S   0  0  0  0  0  0  0  0  0  0  0  0
   12.7301   -8.1653   19.7295 N   0  0  0  0  0  0  0  0  0  0  0  0
   14.1197   -5.9422   19.5159 O   0  0  0  0  0  0  0  0  0  0  0  0
   15.1587   -7.8199   20.7079 O   0  0  0  0  0  0  0  0  0  0  0  0
   12.1376   -7.9042   18.9414 H   0  0  0  0  0  0  0  0  0  0  0  0
   12.3028   -7.8426   20.5977 H   0  0  0  0  0  0  0  0  0  0  0  0
 13 14  1  0  0  0
 14  3  1  0  0  0
  3  4  2  0  0  0
  4  5  1  0  0  0
  5  6  2  0  0  0
  6  7  1  0  0  0
  7  8  1  0  0  0
  8  2  1  0  0  0
  8  9  2  0  0  0
  2  1  1  0  0  0
  1 15  1  0  0  0
 15 16  1  0  0  0
 16 17  1  0  0  0
 17 18  2  0  0  0
 18 19  1  0  0  0
 19 20  2  0  0  0
 20 21  1  0  0  0
 20 23  1  0  0  0
 21 22  2  0  0  0
 22 17  1  0  0  0
 23 24  1  0  0  0
 23 25  2  0  0  0
 23 26  2  0  0  0
  9 10  1  0  0  0
 10 11  2  0  0  0
 10  6  1  0  0  0
 11  3  1  0  0  0
  7 12  1  0  0  0
 24 27  1  0  0  0
 24 28  1  0  0  0
M  END
>  <minimizedAffinity>
-5.32073

>  <minimizedRMSD>
2.72581

$$$$
CSC027226469 48302871 CSSS00027226469 IAFNEQQCHHUPGR-UHFFFAOYSA-N MCULE-6154605486 MolPort-009-105-479 PubChem-47079287 Z851031642 ZINC000048302871 ZINC48302871


 31 34  0  0  0  0  0  0  0  0999 V2000
   15.7664   -9.9268   11.9713 C   0  0  0  0  0  0  0  0  0  0  0  0
   17.1951   -9.9001   12.2434 N   0  0  0  0  0  0  0  0  0  0  0  0
   17.7031  -10.0061   13.5864 C   0  0  0  0  0  0  0  0  0  0  0  0
   18.8071  -10.5856   13.7810 O   0  0  0  0  0  0  0  0  0  0  0  0
   16.9807   -9.4362   14.7468 C   0  0  0  0  0  0  0  0  0  0  0  0
   17.0017  -10.1054   15.9799 C   0  0  0  0  0  0  0  0  0  0  0  0
   16.3475   -9.5668   17.0912 C   0  0  0  0  0  0  0  0  0  0  0  0
   15.6724   -8.3476   16.9842 C   0  0  0  0  0  0  0  0  0  0  0  0
   15.6535   -7.6692   15.7617 C   0  0  0  0  0  0  0  0  0  0  0  0
   16.3080   -8.2088   14.6513 C   0  0  0  0  0  0  0  0  0  0  0  0
   14.8349   -7.6867   18.3787 S   0  0  0  0  0  0  0  0  0  0  0  0
   15.8082   -7.5365   19.5135 O   0  0  0  0  0  0  0  0  0  0  0  0
   14.2710   -6.3332   18.0436 O   0  0  0  0  0  0  0  0  0  0  0  0
   13.5530   -8.7484   18.8576 N   0  0  0  0  0  0  0  0  0  0  0  0
   13.8955   -9.4159   19.5487 H   0  0  0  0  0  0  0  0  0  0  0  0
   12.4954   -7.9365   19.4364 C   0  0  0  0  0  0  0  0  0  0  0  0
   12.8505   -7.6085   20.8716 C   0  0  0  0  0  0  0  0  0  0  0  0
   11.8459   -8.6995   20.5731 C   0  0  0  0  0  0  0  0  0  0  0  0
   18.0986   -9.9936   11.1036 C   0  0  0  0  0  0  0  0  0  0  0  0
   18.0377   -8.7249   10.2670 C   0  0  0  0  0  0  0  0  0  0  0  0
   17.2346   -8.9655    9.0008 C   0  0  0  0  0  0  0  0  0  0  0  0
   18.0410   -8.5954    7.8048 C   0  0  0  0  0  0  0  0  0  0  0  0
   17.7249   -9.0038    6.5473 N   0  0  0  0  0  0  0  0  0  0  0  0
   18.6928   -8.4402    5.8113 C   0  0  0  0  0  0  0  0  0  0  0  0
   18.8705   -8.5243    4.4325 C   0  0  0  0  0  0  0  0  0  0  0  0
   19.9692   -7.8403    3.8795 C   0  0  0  0  0  0  0  0  0  0  0  0
   20.8458   -7.1025    4.7066 C   0  0  0  0  0  0  0  0  0  0  0  0
   20.6342   -7.0399    6.0966 C   0  0  0  0  0  0  0  0  0  0  0  0
   19.5375   -7.7292    6.6083 C   0  0  0  0  0  0  0  0  0  0  0  0
   19.1451   -7.8083    7.8874 N   0  0  0  0  0  0  0  0  0  0  0  0
   19.5534   -7.3997    8.6846 H   0  0  0  0  0  0  0  0  0  0  0  0
  1  2  1  0  0  0
  2 19  1  0  0  0
  2  3  1  0  0  0
 19 20  1  0  0  0
 20 21  1  0  0  0
 21 22  1  0  0  0
 22 23  2  0  0  0
 23 24  1  0  0  0
 24 25  2  0  0  0
 25 26  1  0  0  0
 26 27  2  0  0  0
 27 28  1  0  0  0
 28 29  2  0  0  0
 29 30  1  0  0  0
 29 24  1  0  0  0
 30 22  1  0  0  0
  3  4  2  0  0  0
  3  5  1  0  0  0
  5  6  2  0  0  0
  6  7  1  0  0  0
  7  8  2  0  0  0
  8  9  1  0  0  0
  8 11  1  0  0  0
  9 10  2  0  0  0
 10  5  1  0  0  0
 11 12  2  0  0  0
 11 13  2  0  0  0
 11 14  1  0  0  0
 14 16  1  0  0  0
 16 17  1  0  0  0
 17 18  1  0  0  0
 18 16  1  0  0  0
 30 31  1  0  0  0
 14 15  1  0  0  0
M  END
>  <minimizedAffinity>
-5.31354

>  <minimizedRMSD>
2.57404

$$$$
CSSS02437648749


 27 30  0  0  0  0  0  0  0  0999 V2000
   16.6556   -9.6600   16.2895 C   0  0  0  0  0  0  0  0  0  0  0  0
   16.8804  -10.8804   16.9438 C   0  0  0  0  0  0  0  0  0  0  0  0
   17.5917  -11.9092   16.3307 C   0  0  0  0  0  0  0  0  0  0  0  0
   18.0932  -11.7366   15.0443 C   0  0  0  0  0  0  0  0  0  0  0  0
   17.8797  -10.5415   14.3570 C   0  0  0  0  0  0  0  0  0  0  0  0
   17.1679   -9.4801   14.9755 C   0  0  0  0  0  0  0  0  0  0  0  0
   16.8655   -8.2246   14.1897 C   0  0  0  0  0  0  0  0  0  0  0  0
   17.8525   -8.0031   13.0529 C   0  0  0  0  0  0  0  0  0  0  0  0
   17.9674   -9.2372   12.2881 N   0  0  0  0  0  0  0  0  0  0  0  0
   18.5014  -10.3982   12.9946 C   0  0  0  0  0  0  0  0  0  0  0  0
   17.2895   -9.3997   11.0264 C   0  0  0  0  0  0  0  0  0  0  0  0
   16.0506  -10.0559   10.9940 C   0  0  0  0  0  0  0  0  0  0  0  0
   15.3683  -10.2134    9.7880 C   0  0  0  0  0  0  0  0  0  0  0  0
   14.1400  -10.8593    9.7678 O   0  0  0  0  0  0  0  0  0  0  0  0
   15.9020   -9.7364    8.6341 N   0  0  0  0  0  0  0  0  0  0  0  0
   17.1040   -9.1043    8.6127 C   0  0  0  0  0  0  0  0  0  0  0  0
   17.6230   -8.6465    7.3981 C   0  0  0  0  0  0  0  0  0  0  0  0
   18.8690   -8.0162    7.3606 C   0  0  0  0  0  0  0  0  0  0  0  0
   19.6029   -7.8450    8.5366 C   0  0  0  0  0  0  0  0  0  0  0  0
   19.0901   -8.2981    9.7550 C   0  0  0  0  0  0  0  0  0  0  0  0
   17.8346   -8.9220    9.8126 C   0  0  0  0  0  0  0  0  0  0  0  0
   13.7708  -11.1888   10.5634 H   0  0  0  0  0  0  0  0  0  0  0  0
   16.1327   -8.3995   18.4111 N   0  0  0  0  0  0  0  0  0  0  0  0
   15.8890   -8.6190   17.0238 C   0  0  0  0  0  0  0  0  0  0  0  0
   15.0288   -7.9063   16.4431 O   0  0  0  0  0  0  0  0  0  0  0  0
   15.6249   -7.7101   18.8970 H   0  0  0  0  0  0  0  0  0  0  0  0
   16.8088   -8.9373   18.8832 H   0  0  0  0  0  0  0  0  0  0  0  0
 23 24  1  0  0  0
 24 25  2  0  0  0
 24  1  1  0  0  0
  1  2  2  0  0  0
  2  3  1  0  0  0
  3  4  2  0  0  0
  4  5  1  0  0  0
  5  6  2  0  0  0
  6  7  1  0  0  0
  7  8  1  0  0  0
  8  9  1  0  0  0
  9 10  1  0  0  0
  9 11  1  0  0  0
 11 12  2  0  0  0
 12 13  1  0  0  0
 13 14  1  0  0  0
 13 15  2  0  0  0
 15 16  1  0  0  0
 16 17  2  0  0  0
 17 18  1  0  0  0
 18 19  2  0  0  0
 19 20  1  0  0  0
 20 21  2  0  0  0
  6  1  1  0  0  0
 21 11  1  0  0  0
 10  5  1  0  0  0
 21 16  1  0  0  0
 23 26  1  0  0  0
 23 27  1  0  0  0
 14 22  1  0  0  0
M  END
>  <minimizedAffinity>
-5.31260

>  <minimizedRMSD>
0.87285

$$$$
CSC026672177 71795848 CSSS00026672177 MCULE-1180924083 MolPort-020-152-825 PubChem-56824672 Z1095748932 ZINC000071795848 ZINC71795848


 26 28  0  0  0  0  0  0  0  0999 V2000
   16.3654   -8.9277   13.5169 N   0  0  0  0  0  0  0  0  0  0  0  0
   16.2488   -9.0720   12.0940 C   0  0  0  0  0  0  0  0  0  0  0  0
   15.6094   -8.2028   11.4440 O   0  0  0  0  0  0  0  0  0  0  0  0
   16.0165   -8.0895   13.8974 H   0  0  0  0  0  0  0  0  0  0  0  0
   18.7585  -12.9933   16.0333 C   0  0  0  0  0  0  0  0  0  0  0  0
   18.0368  -11.7500   15.6445 C   0  0  0  0  0  0  0  0  0  0  0  0
   17.4738  -10.8187   16.5130 C   0  0  0  0  0  0  0  0  0  0  0  0
   17.5424  -10.9801   17.9957 C   0  0  0  0  0  0  0  0  0  0  0  0
   16.8371   -9.7430   15.8470 C   0  0  0  0  0  0  0  0  0  0  0  0
   16.9302   -9.8597   14.4522 C   0  0  0  0  0  0  0  0  0  0  0  0
   17.7596  -11.2736   14.0604 S   0  0  0  0  0  0  0  0  0  0  0  0
   16.1288   -8.6281   16.5274 C   0  0  0  0  0  0  0  0  0  0  0  0
   16.1366   -8.5106   17.9480 N   0  0  0  0  0  0  0  0  0  0  0  0
   15.5126   -7.7610   15.8526 O   0  0  0  0  0  0  0  0  0  0  0  0
   16.6120   -9.1774   18.4945 H   0  0  0  0  0  0  0  0  0  0  0  0
   15.6666   -7.7627   18.3826 H   0  0  0  0  0  0  0  0  0  0  0  0
   16.9234  -10.1787   11.3489 C   0  0  0  0  0  0  0  0  0  0  0  0
   16.9756   -9.8760    9.9258 N   0  0  0  0  0  0  0  0  0  0  0  0
   16.1291  -10.3434    9.0141 N   0  0  0  0  0  0  0  0  0  0  0  0
   16.4135   -9.8509    7.8070 N   0  0  0  0  0  0  0  0  0  0  0  0
   17.4742   -9.0408    7.9823 C   0  0  0  0  0  0  0  0  0  0  0  0
   18.1611   -8.2803    7.0385 C   0  0  0  0  0  0  0  0  0  0  0  0
   19.2472   -7.5112    7.5048 C   0  0  0  0  0  0  0  0  0  0  0  0
   19.6065   -7.5236    8.8750 C   0  0  0  0  0  0  0  0  0  0  0  0
   18.8857   -8.3058    9.8002 C   0  0  0  0  0  0  0  0  0  0  0  0
   17.8225   -9.0514    9.2972 C   0  0  0  0  0  0  0  0  0  0  0  0
  5  6  1  0  0  0
  6  7  2  0  0  0
  7  8  1  0  0  0
  7  9  1  0  0  0
  9 12  1  0  0  0
  9 10  2  0  0  0
 12 13  1  0  0  0
 12 14  2  0  0  0
 10  1  1  0  0  0
 10 11  1  0  0  0
  1  2  1  0  0  0
  2  3  2  0  0  0
  2 17  1  0  0  0
 17 18  1  0  0  0
 18 19  1  0  0  0
 19 20  2  0  0  0
 20 21  1  0  0  0
 21 22  2  0  0  0
 22 23  1  0  0  0
 23 24  2  0  0  0
 24 25  1  0  0  0
 25 26  2  0  0  0
 26 18  1  0  0  0
 26 21  1  0  0  0
 11  6  1  0  0  0
 13 15  1  0  0  0
 13 16  1  0  0  0
  1  4  1  0  0  0
M  END
>  <minimizedAffinity>
-5.31131

>  <minimizedRMSD>
1.15465

$$$$
CSC086719848 CSSS00086719848 Z2851036842


 25 28  0  0  0  0  0  0  0  0999 V2000
   17.4441  -10.1424   13.4785 N   0  0  0  0  0  0  0  0  0  0  0  0
   18.2564  -11.2502   13.0169 C   0  0  0  0  0  0  0  0  0  0  0  0
   17.8364  -11.5085   11.5819 C   0  0  0  0  0  0  0  0  0  0  0  0
   16.6064  -10.6435   11.3244 C   0  0  0  0  0  0  0  0  0  0  0  0
   16.4628   -9.7019   12.5073 C   0  0  0  0  0  0  0  0  0  0  0  0
   16.7444   -9.8972   10.0772 N   0  0  0  0  0  0  0  0  0  0  0  0
   15.8325   -9.8548    9.0760 C   0  0  0  0  0  0  0  0  0  0  0  0
   16.2362   -9.0736    8.0376 N   0  0  0  0  0  0  0  0  0  0  0  0
   17.4429   -8.6255    8.4293 C   0  0  0  0  0  0  0  0  0  0  0  0
   18.3019   -7.7786    7.7335 C   0  0  0  0  0  0  0  0  0  0  0  0
   19.5217   -7.4437    8.3514 C   0  0  0  0  0  0  0  0  0  0  0  0
   19.8456   -7.9557    9.6282 C   0  0  0  0  0  0  0  0  0  0  0  0
   18.9540   -8.8094   10.3035 C   0  0  0  0  0  0  0  0  0  0  0  0
   17.7558   -9.1189    9.6595 C   0  0  0  0  0  0  0  0  0  0  0  0
   16.7245   -8.4825   16.7400 C   0  0  0  0  0  0  0  0  0  0  0  0
   16.5138   -9.0738   15.4910 C   0  0  0  0  0  0  0  0  0  0  0  0
   17.6181   -9.5316   14.7644 C   0  0  0  0  0  0  0  0  0  0  0  0
   18.8659   -9.3906   15.2892 N   0  0  0  0  0  0  0  0  0  0  0  0
   19.0562   -8.8141   16.5043 C   0  0  0  0  0  0  0  0  0  0  0  0
   17.9920   -8.3657   17.2194 N   0  0  0  0  0  0  0  0  0  0  0  0
   15.6636   -7.9767   18.9567 N   0  0  0  0  0  0  0  0  0  0  0  0
   15.5896   -7.9882   17.5346 C   0  0  0  0  0  0  0  0  0  0  0  0
   14.5448   -7.5716   16.9670 O   0  0  0  0  0  0  0  0  0  0  0  0
   14.9028   -7.6454   19.4865 H   0  0  0  0  0  0  0  0  0  0  0  0
   16.4755   -8.3001   19.4101 H   0  0  0  0  0  0  0  0  0  0  0  0
 21 22  1  0  0  0
 22 23  2  0  0  0
 22 15  1  0  0  0
 15 16  2  0  0  0
 16 17  1  0  0  0
 17 18  2  0  0  0
 18 19  1  0  0  0
 19 20  2  0  0  0
 17  1  1  0  0  0
  1  2  1  0  0  0
  2  3  1  0  0  0
  3  4  1  0  0  0
  4  5  1  0  0  0
  4  6  1  0  0  0
  6  7  1  0  0  0
  7  8  2  0  0  0
  8  9  1  0  0  0
  9 10  2  0  0  0
 10 11  1  0  0  0
 11 12  2  0  0  0
 12 13  1  0  0  0
 13 14  2  0  0  0
 20 15  1  0  0  0
  5  1  1  0  0  0
 14  6  1  0  0  0
 14  9  1  0  0  0
 21 24  1  0  0  0
 21 25  1  0  0  0
M  END
>  <minimizedAffinity>
-5.31051

>  <minimizedRMSD>
1.12180

$$$$
CSC027354790 CSSS00027354790 MCULE-9313713347 MolPort-009-460-381 PubChem-16618533 Z238833884


 30 33  0  0  0  0  0  0  0  0999 V2000
   16.5412   -9.9192   14.8627 N   0  0  0  0  0  0  0  0  0  0  0  0
   16.3285   -8.6363   14.1846 C   0  0  0  0  0  0  0  0  0  0  0  0
   16.2339   -8.8748   12.6872 C   0  0  0  0  0  0  0  0  0  0  0  0
   17.4361   -9.5657   12.2281 N   0  0  0  0  0  0  0  0  0  0  0  0
   17.8561  -10.7585   12.9711 C   0  0  0  0  0  0  0  0  0  0  0  0
   17.8448  -10.4625   14.4730 C   0  0  0  0  0  0  0  0  0  0  0  0
   18.0600   -9.1663   10.9918 C   0  0  0  0  0  0  0  0  0  0  0  0
   17.4922   -9.4064    9.7351 C   0  0  0  0  0  0  0  0  0  0  0  0
   16.3558  -10.0700    9.2954 C   0  0  0  0  0  0  0  0  0  0  0  0
   16.3150   -9.9535    7.9404 N   0  0  0  0  0  0  0  0  0  0  0  0
   17.3641   -9.2446    7.5404 N   0  0  0  0  0  0  0  0  0  0  0  0
   17.6477   -8.9074    6.1582 C   0  0  0  0  0  0  0  0  0  0  0  0
   18.0907   -8.9228    8.6166 C   0  0  0  0  0  0  0  0  0  0  0  0
   19.2456   -8.2125    8.6474 N   0  0  0  0  0  0  0  0  0  0  0  0
   19.8247   -7.9902    9.8651 C   0  0  0  0  0  0  0  0  0  0  0  0
   19.2347   -8.4596   11.0139 N   0  0  0  0  0  0  0  0  0  0  0  0
   17.8857   -9.7625   16.9755 C   0  0  0  0  0  0  0  0  0  0  0  0
   16.4997   -9.7797   16.3282 C   0  0  0  0  0  0  0  0  0  0  0  0
   15.6951   -8.5838   16.7539 C   0  0  0  0  0  0  0  0  0  0  0  0
   15.7859   -7.4922   16.1239 O   0  0  0  0  0  0  0  0  0  0  0  0
   14.7796   -8.7080   17.8501 N   0  0  0  0  0  0  0  0  0  0  0  0
   14.5912   -9.6139   18.1863 H   0  0  0  0  0  0  0  0  0  0  0  0
   14.1179   -7.6099   18.4934 C   0  0  0  0  0  0  0  0  0  0  0  0
   12.9868   -7.0436   17.8834 C   0  0  0  0  0  0  0  0  0  0  0  0
   12.5396   -7.5184   16.6902 F   0  0  0  0  0  0  0  0  0  0  0  0
   12.3283   -5.9647   18.4808 C   0  0  0  0  0  0  0  0  0  0  0  0
   12.7781   -5.4578   19.7002 C   0  0  0  0  0  0  0  0  0  0  0  0
   13.8828   -6.0350   20.3300 C   0  0  0  0  0  0  0  0  0  0  0  0
   14.5505   -7.1116   19.7377 C   0  0  0  0  0  0  0  0  0  0  0  0
   15.5784   -7.6912   20.4013 F   0  0  0  0  0  0  0  0  0  0  0  0
 18 17  1  0  0  0
 18  1  1  0  0  0
 18 19  1  0  0  0
  1  2  1  0  0  0
  2  3  1  0  0  0
  3  4  1  0  0  0
  4  5  1  0  0  0
  4  7  1  0  0  0
  5  6  1  0  0  0
  6  1  1  0  0  0
  7  8  2  0  0  0
  8  9  1  0  0  0
  9 10  2  0  0  0
 10 11  1  0  0  0
 11 12  1  0  0  0
 11 13  1  0  0  0
 13 14  2  0  0  0
 13  8  1  0  0  0
 14 15  1  0  0  0
 15 16  2  0  0  0
 16  7  1  0  0  0
 19 20  2  0  0  0
 19 21  1  0  0  0
 21 23  1  0  0  0
 23 24  2  0  0  0
 24 25  1  0  0  0
 24 26  1  0  0  0
 26 27  2  0  0  0
 27 28  1  0  0  0
 28 29  2  0  0  0
 29 30  1  0  0  0
 29 23  1  0  0  0
 21 22  1  0  0  0
M  END
>  <minimizedAffinity>
-5.30422

>  <minimizedRMSD>
1.93072

$$$$
9290508 CSSS00160647598 LN00768145 MCULE-2935020474 MCULE-6200245219 MolPort-006-384-423 MolPort-046-847-337 ZINC000009290508 ZINC09290508


 25 28  0  0  0  0  0  0  0  0999 V2000
   16.9202   -9.2705   11.1499 N   0  0  0  0  0  0  0  0  0  0  0  0
   18.0329   -8.4846   11.2040 C   0  0  0  0  0  0  0  0  0  0  0  0
   18.7173   -8.1224   10.0430 C   0  0  0  0  0  0  0  0  0  0  0  0
   18.2394   -8.5685    8.8126 C   0  0  0  0  0  0  0  0  0  0  0  0
   17.0722   -9.3572    8.7532 C   0  0  0  0  0  0  0  0  0  0  0  0
   16.6084   -9.7756    7.4856 C   0  0  0  0  0  0  0  0  0  0  0  0
   17.2815   -9.4257    6.3493 N   0  0  0  0  0  0  0  0  0  0  0  0
   18.4009   -8.6684    6.4614 C   0  0  0  0  0  0  0  0  0  0  0  0
   19.1668   -8.2425    5.4448 N   0  0  0  0  0  0  0  0  0  0  0  0
   20.1278   -7.5387    6.1050 C   0  0  0  0  0  0  0  0  0  0  0  0
   19.9439   -7.5439    7.4502 N   0  0  0  0  0  0  0  0  0  0  0  0
   18.8545   -8.2597    7.6441 N   0  0  0  0  0  0  0  0  0  0  0  0
   16.4091   -9.6884    9.9452 C   0  0  0  0  0  0  0  0  0  0  0  0
   15.3329  -10.3467    9.9016 O   0  0  0  0  0  0  0  0  0  0  0  0
   16.2816   -9.5762   12.3659 N   0  0  0  0  0  0  0  0  0  0  0  0
   15.3016   -9.4939   12.4098 H   0  0  0  0  0  0  0  0  0  0  0  0
   18.5066  -13.1087   14.9093 C   0  0  0  0  0  0  0  0  0  0  0  0
   18.0736  -11.6932   14.7803 C   0  0  0  0  0  0  0  0  0  0  0  0
   17.3902  -11.2903   13.6778 N   0  0  0  0  0  0  0  0  0  0  0  0
   16.9776  -10.0001   13.5424 C   0  0  0  0  0  0  0  0  0  0  0  0
   17.2690   -9.0931   14.5117 N   0  0  0  0  0  0  0  0  0  0  0  0
   17.9514   -9.4585   15.6283 C   0  0  0  0  0  0  0  0  0  0  0  0
   18.2324   -8.5172   16.6088 O   0  0  0  0  0  0  0  0  0  0  0  0
   18.3707  -10.7782   15.7886 C   0  0  0  0  0  0  0  0  0  0  0  0
   17.9506   -7.6301   16.5012 H   0  0  0  0  0  0  0  0  0  0  0  0
 17 18  1  0  0  0
 18 19  2  0  0  0
 19 20  1  0  0  0
 20 15  1  0  0  0
 20 21  2  0  0  0
 15  1  1  0  0  0
  1  2  1  0  0  0
  2  3  2  0  0  0
  3  4  1  0  0  0
  4  5  2  0  0  0
  5  6  1  0  0  0
  5 13  1  0  0  0
  6  7  2  0  0  0
  7  8  1  0  0  0
  8  9  2  0  0  0
  9 10  1  0  0  0
 10 11  2  0  0  0
 11 12  1  0  0  0
 12  4  1  0  0  0
 12  8  1  0  0  0
 13 14  2  0  0  0
 13  1  1  0  0  0
 21 22  1  0  0  0
 22 23  1  0  0  0
 22 24  2  0  0  0
 24 18  1  0  0  0
 15 16  1  0  0  0
 23 25  1  0  0  0
M  END
>  <minimizedAffinity>
-5.30067

>  <minimizedRMSD>
2.35643

$$$$
CSSS00138541363 MCULE-8489435823 MolPort-046-722-273 PubChem-139009276 Z1449268897


 26 28  0  0  0  0  0  0  0  0999 V2000
   17.6836   -9.4245   10.8871 N   0  0  0  0  0  0  0  0  0  0  0  0
   18.6876   -8.7546   10.1210 C   0  0  0  0  0  0  0  0  0  0  0  0
   19.6650   -8.2235   10.7178 O   0  0  0  0  0  0  0  0  0  0  0  0
   16.9244   -9.8393   10.4172 H   0  0  0  0  0  0  0  0  0  0  0  0
   18.6060   -8.6734    8.6383 C   0  0  0  0  0  0  0  0  0  0  0  0
   17.5437   -9.2521    7.8610 C   0  0  0  0  0  0  0  0  0  0  0  0
   16.4083   -9.9925    8.4816 C   0  0  0  0  0  0  0  0  0  0  0  0
   17.5421   -9.1336    6.4975 N   0  0  0  0  0  0  0  0  0  0  0  0
   18.5510   -8.4660    5.8908 C   0  0  0  0  0  0  0  0  0  0  0  0
   18.7152   -8.2505    4.5771 N   0  0  0  0  0  0  0  0  0  0  0  0
   17.8405   -8.6896    3.5044 C   0  0  0  0  0  0  0  0  0  0  0  0
   19.8321   -7.5532    4.3971 N   0  0  0  0  0  0  0  0  0  0  0  0
   20.3764   -7.3284    5.6197 C   0  0  0  0  0  0  0  0  0  0  0  0
   21.6401   -6.5774    5.8503 C   0  0  0  0  0  0  0  0  0  0  0  0
   19.5720   -7.9036    6.5818 C   0  0  0  0  0  0  0  0  0  0  0  0
   19.6399   -7.9832    7.9639 C   0  0  0  0  0  0  0  0  0  0  0  0
   18.4748  -10.7860   12.7276 C   0  0  0  0  0  0  0  0  0  0  0  0
   17.7461   -9.5139   12.3361 C   0  0  0  0  0  0  0  0  0  0  0  0
   16.3346   -9.5207   12.9010 C   0  0  0  0  0  0  0  0  0  0  0  0
   16.3550   -9.4636   14.3917 C   0  0  0  0  0  0  0  0  0  0  0  0
   16.8918  -10.4196   15.1720 N   0  0  0  0  0  0  0  0  0  0  0  0
   16.7477  -10.0432   16.4304 N   0  0  0  0  0  0  0  0  0  0  0  0
   16.1238   -8.8522   16.4347 C   0  0  0  0  0  0  0  0  0  0  0  0
   15.7859   -8.1038   17.6737 C   0  0  0  0  0  0  0  0  0  0  0  0
   15.8476   -8.4264   15.1502 C   0  0  0  0  0  0  0  0  0  0  0  0
   17.0444  -10.5453   17.2236 H   0  0  0  0  0  0  0  0  0  0  0  0
 17 18  1  0  0  0
 18 19  1  0  0  0
 19 20  1  0  0  0
 20 21  2  0  0  0
 21 22  1  0  0  0
 22 23  1  0  0  0
 23 24  1  0  0  0
 23 25  2  0  0  0
 18  1  1  0  0  0
  1  2  1  0  0  0
  2  3  2  0  0  0
  2  5  1  0  0  0
  5  6  2  0  0  0
  6  7  1  0  0  0
  6  8  1  0  0  0
  8  9  2  0  0  0
  9 10  1  0  0  0
 10 11  1  0  0  0
 10 12  1  0  0  0
 12 13  2  0  0  0
 13 14  1  0  0  0
 13 15  1  0  0  0
 15 16  2  0  0  0
 25 20  1  0  0  0
 16  5  1  0  0  0
 15  9  1  0  0  0
 22 26  1  0  0  0
  1  4  1  0  0  0
M  END
>  <minimizedAffinity>
-5.26953

>  <minimizedRMSD>
2.59995

$$$$
23141499 CSSS03437076601 MCULE-1101936068 MolPort-009-735-564 PubChem-30864928 ZINC000023141499


 28 31  0  0  0  0  0  0  0  0999 V2000
   16.3810   -9.0954   12.5565 C   0  0  0  0  0  0  0  0  0  0  0  0
   15.7564   -8.0079   13.0508 N   0  0  0  0  0  0  0  0  0  0  0  0
   16.1117   -7.8971   14.3230 N   0  0  0  0  0  0  0  0  0  0  0  0
   16.9545   -8.9137   14.5815 C   0  0  0  0  0  0  0  0  0  0  0  0
   17.1439   -9.6881   13.4982 N   0  0  0  0  0  0  0  0  0  0  0  0
   16.2701   -9.5127   11.1454 C   0  0  0  0  0  0  0  0  0  0  0  0
   15.2067  -10.1401   10.4841 C   0  0  0  0  0  0  0  0  0  0  0  0
   13.8849  -10.4913   11.0723 C   0  0  0  0  0  0  0  0  0  0  0  0
   15.4833  -10.2922    9.1584 N   0  0  0  0  0  0  0  0  0  0  0  0
   16.7115   -9.7487    9.0751 C   0  0  0  0  0  0  0  0  0  0  0  0
   17.7569   -9.5171    7.7953 S   0  0  0  0  0  0  0  0  0  0  0  0
   18.9132   -8.7508    8.8087 C   0  0  0  0  0  0  0  0  0  0  0  0
   18.4143   -8.7089   10.1241 C   0  0  0  0  0  0  0  0  0  0  0  0
   17.1899   -9.2766   10.2043 N   0  0  0  0  0  0  0  0  0  0  0  0
   18.1222  -10.7570   13.3440 C   0  0  0  0  0  0  0  0  0  0  0  0
   19.3284  -10.4906   14.2246 C   0  0  0  0  0  0  0  0  0  0  0  0
   17.7565   -9.1589   16.1664 S   0  0  0  0  0  0  0  0  0  0  0  0
   16.2160   -9.6890   16.9779 C   0  0  0  0  0  0  0  0  0  0  0  0
   15.5603   -8.5398   17.6631 C   0  0  0  0  0  0  0  0  0  0  0  0
   15.1355   -7.5736   16.9759 O   0  0  0  0  0  0  0  0  0  0  0  0
   15.4126   -8.5535   19.0872 N   0  0  0  0  0  0  0  0  0  0  0  0
   15.7399   -9.3458   19.5713 H   0  0  0  0  0  0  0  0  0  0  0  0
   14.8252   -7.5021   19.8596 C   0  0  0  0  0  0  0  0  0  0  0  0
   15.3119   -7.0725   21.0794 C   0  0  0  0  0  0  0  0  0  0  0  0
   14.4148   -6.0686   21.3892 C   0  0  0  0  0  0  0  0  0  0  0  0
   13.5179   -5.9475   20.4405 O   0  0  0  0  0  0  0  0  0  0  0  0
   13.7347   -6.8042   19.4896 N   0  0  0  0  0  0  0  0  0  0  0  0
   14.4471   -5.2342   22.6190 C   0  0  0  0  0  0  0  0  0  0  0  0
  1  2  2  0  0  0
  2  3  1  0  0  0
  3  4  2  0  0  0
  4 17  1  0  0  0
 17 18  1  0  0  0
 18 19  1  0  0  0
 19 20  2  0  0  0
 19 21  1  0  0  0
 21 23  1  0  0  0
 23 24  1  0  0  0
 24 25  2  0  0  0
 25 26  1  0  0  0
 26 27  1  0  0  0
 25 28  1  0  0  0
  4  5  1  0  0  0
  5 15  1  0  0  0
 15 16  1  0  0  0
  1  6  1  0  0  0
  6  7  2  0  0  0
  7  8  1  0  0  0
  7  9  1  0  0  0
  9 10  2  0  0  0
 10 11  1  0  0  0
 11 12  1  0  0  0
 12 13  2  0  0  0
 13 14  1  0  0  0
  5  1  1  0  0  0
 14  6  1  0  0  0
 27 23  2  0  0  0
 14 10  1  0  0  0
 21 22  1  0  0  0
M  END
>  <minimizedAffinity>
-5.26632

>  <minimizedRMSD>
1.99547

$$$$
CSSS00160539197 MCULE-2115015562 MolPort-046-924-741 PubChem-146114923 Z3416859249


 29 33  0  0  0  0  0  0  0  0999 V2000
   18.1021   -9.9830   14.0851 C   0  0  0  0  0  0  0  0  0  0  0  0
   18.8133  -11.1184   13.3702 C   0  0  0  0  0  0  0  0  0  0  0  0
   17.5009  -11.8714   13.3466 C   0  0  0  0  0  0  0  0  0  0  0  0
   16.9054  -10.4792   13.2957 C   0  0  0  0  0  0  0  0  0  0  0  0
   17.3294  -10.0834   11.9667 N   0  0  0  0  0  0  0  0  0  0  0  0
   18.7204  -10.5432   11.9609 C   0  0  0  0  0  0  0  0  0  0  0  0
   16.4668  -10.0114   10.8213 C   0  0  0  0  0  0  0  0  0  0  0  0
   15.2357  -10.2465   10.9644 O   0  0  0  0  0  0  0  0  0  0  0  0
   16.9814   -9.6443    9.4840 C   0  0  0  0  0  0  0  0  0  0  0  0
   18.1341   -8.8620    9.3384 C   0  0  0  0  0  0  0  0  0  0  0  0
   18.5905   -8.5164    8.0676 C   0  0  0  0  0  0  0  0  0  0  0  0
   19.7416   -7.7405    7.9091 C   0  0  0  0  0  0  0  0  0  0  0  0
   20.1830   -7.4046    6.6250 C   0  0  0  0  0  0  0  0  0  0  0  0
   21.2988   -6.6528    6.4694 F   0  0  0  0  0  0  0  0  0  0  0  0
   19.4744   -7.8435    5.5009 C   0  0  0  0  0  0  0  0  0  0  0  0
   18.3211   -8.6200    5.6549 C   0  0  0  0  0  0  0  0  0  0  0  0
   17.8751   -8.9592    6.9354 C   0  0  0  0  0  0  0  0  0  0  0  0
   16.7546   -9.7115    7.0942 N   0  0  0  0  0  0  0  0  0  0  0  0
   16.2991  -10.0560    8.3292 C   0  0  0  0  0  0  0  0  0  0  0  0
   17.1856   -9.4435   16.4474 C   0  0  0  0  0  0  0  0  0  0  0  0
   17.9530  -10.1856   15.5749 C   0  0  0  0  0  0  0  0  0  0  0  0
   18.5520  -11.1205   16.2700 O   0  0  0  0  0  0  0  0  0  0  0  0
   18.1831  -10.9844   17.5260 C   0  0  0  0  0  0  0  0  0  0  0  0
   17.3290   -9.9493   17.6868 N   0  0  0  0  0  0  0  0  0  0  0  0
   15.3001   -7.8998   17.0319 N   0  0  0  0  0  0  0  0  0  0  0  0
   16.3388   -8.2808   16.1363 C   0  0  0  0  0  0  0  0  0  0  0  0
   16.5234   -7.6136   15.0846 O   0  0  0  0  0  0  0  0  0  0  0  0
   14.7327   -7.1222   16.8254 H   0  0  0  0  0  0  0  0  0  0  0  0
   15.1492   -8.4138   17.8579 H   0  0  0  0  0  0  0  0  0  0  0  0
 25 26  1  0  0  0
 26 27  2  0  0  0
 26 20  1  0  0  0
 20 21  2  0  0  0
 21 22  1  0  0  0
 22 23  1  0  0  0
 23 24  2  0  0  0
 21  1  1  0  0  0
  1  2  1  0  0  0
  2  3  1  0  0  0
  3  4  1  0  0  0
  4  5  1  0  0  0
  5  6  1  0  0  0
  5  7  1  0  0  0
  7  8  2  0  0  0
  7  9  1  0  0  0
  9 10  2  0  0  0
 10 11  1  0  0  0
 11 12  2  0  0  0
 12 13  1  0  0  0
 13 14  1  0  0  0
 13 15  2  0  0  0
 15 16  1  0  0  0
 16 17  2  0  0  0
 17 18  1  0  0  0
 18 19  2  0  0  0
 24 20  1  0  0  0
  4  1  1  0  0  0
 19  9  1  0  0  0
  6  2  1  0  0  0
 17 11  1  0  0  0
 25 28  1  0  0  0
 25 29  1  0  0  0
M  END
>  <minimizedAffinity>
-5.26549

>  <minimizedRMSD>
1.28742

$$$$
CSSS00159990760 MCULE-6137957579 MolPort-046-758-041 PubChem-138387314


 26 28  0  0  0  0  0  0  0  0999 V2000
   18.2586  -11.1111   13.3657 C   0  0  0  0  0  0  0  0  0  0  0  0
   17.9153  -12.2349   12.9062 O   0  0  0  0  0  0  0  0  0  0  0  0
   17.9697   -9.9172   12.6332 N   0  0  0  0  0  0  0  0  0  0  0  0
   18.2281   -9.0518   13.0250 H   0  0  0  0  0  0  0  0  0  0  0  0
   17.3518   -9.5472   15.8184 N   0  0  0  0  0  0  0  0  0  0  0  0
   17.1611  -10.5371   16.8771 C   0  0  0  0  0  0  0  0  0  0  0  0
   17.2651  -11.9429   16.2942 C   0  0  0  0  0  0  0  0  0  0  0  0
   18.6431  -12.1378   15.6617 C   0  0  0  0  0  0  0  0  0  0  0  0
   18.9802  -11.0047   14.6813 C   0  0  0  0  0  0  0  0  0  0  0  0
   18.7317   -9.6450   15.3432 C   0  0  0  0  0  0  0  0  0  0  0  0
   17.2121   -8.2366   16.4299 C   0  0  0  0  0  0  0  0  0  0  0  0
   15.7242   -7.9768   18.4498 N   0  0  0  0  0  0  0  0  0  0  0  0
   15.8597   -8.1041   17.0395 C   0  0  0  0  0  0  0  0  0  0  0  0
   14.8347   -8.1411   16.3107 O   0  0  0  0  0  0  0  0  0  0  0  0
   14.8301   -7.8893   18.8525 H   0  0  0  0  0  0  0  0  0  0  0  0
   16.5246   -7.9763   19.0231 H   0  0  0  0  0  0  0  0  0  0  0  0
   17.3107   -9.9230   11.3339 C   0  0  0  0  0  0  0  0  0  0  0  0
   18.1232   -9.1692   10.3303 C   0  0  0  0  0  0  0  0  0  0  0  0
   19.3071   -8.5153   10.7110 C   0  0  0  0  0  0  0  0  0  0  0  0
   20.0703   -7.8122    9.7605 C   0  0  0  0  0  0  0  0  0  0  0  0
   19.6401   -7.7673    8.4267 C   0  0  0  0  0  0  0  0  0  0  0  0
   18.4908   -8.4110    8.1033 N   0  0  0  0  0  0  0  0  0  0  0  0
   17.9410   -8.4698    6.9077 N   0  0  0  0  0  0  0  0  0  0  0  0
   16.8097   -9.2036    7.0285 C   0  0  0  0  0  0  0  0  0  0  0  0
   16.6429   -9.6214    8.3520 C   0  0  0  0  0  0  0  0  0  0  0  0
   17.7461   -9.0860    8.9873 C   0  0  0  0  0  0  0  0  0  0  0  0
 12 13  1  0  0  0
 13 14  2  0  0  0
 13 11  1  0  0  0
 11  5  1  0  0  0
  5  6  1  0  0  0
  6  7  1  0  0  0
  7  8  1  0  0  0
  8  9  1  0  0  0
  9 10  1  0  0  0
  9  1  1  0  0  0
  1  2  2  0  0  0
  1  3  1  0  0  0
  3 17  1  0  0  0
 17 18  1  0  0  0
 18 19  2  0  0  0
 19 20  1  0  0  0
 20 21  2  0  0  0
 21 22  1  0  0  0
 22 23  1  0  0  0
 23 24  2  0  0  0
 24 25  1  0  0  0
 25 26  2  0  0  0
 10  5  1  0  0  0
 26 18  1  0  0  0
 26 22  1  0  0  0
 12 15  1  0  0  0
 12 16  1  0  0  0
  3  4  1  0  0  0
M  END
>  <minimizedAffinity>
-5.25902

>  <minimizedRMSD>
1.64295

$$$$
CSC026632703 7980209 CSSS00026632703 MCULE-6040140778 MolPort-005-748-197 PubChem-9108362 Z52384673 ZINC000007980209 ZINC07980209


 31 33  0  0  0  0  0  0  0  0999 V2000
   16.6471  -10.3279   13.9445 N   0  0  0  0  0  0  0  0  0  0  0  0
   15.9302   -9.7760   12.8327 C   0  0  0  0  0  0  0  0  0  0  0  0
   15.4898   -8.5963   12.8583 O   0  0  0  0  0  0  0  0  0  0  0  0
   16.9513  -11.2600   13.8550 H   0  0  0  0  0  0  0  0  0  0  0  0
   16.3181   -8.5411   17.2319 C   0  0  0  0  0  0  0  0  0  0  0  0
   17.6657   -8.3656   17.5604 C   0  0  0  0  0  0  0  0  0  0  0  0
   18.6621   -8.8346   16.7005 C   0  0  0  0  0  0  0  0  0  0  0  0
   18.3122   -9.4805   15.5111 C   0  0  0  0  0  0  0  0  0  0  0  0
   16.9666   -9.6623   15.1734 C   0  0  0  0  0  0  0  0  0  0  0  0
   15.9716   -9.1875   16.0407 C   0  0  0  0  0  0  0  0  0  0  0  0
   15.0704   -7.9560   18.3185 S   0  0  0  0  0  0  0  0  0  0  0  0
   14.1252   -9.0755   18.6583 O   0  0  0  0  0  0  0  0  0  0  0  0
   14.2986   -6.8699   17.6245 O   0  0  0  0  0  0  0  0  0  0  0  0
   15.8034   -7.3005   19.7630 N   0  0  0  0  0  0  0  0  0  0  0  0
   16.5177   -7.9541   20.0838 H   0  0  0  0  0  0  0  0  0  0  0  0
   13.6765   -6.2392   20.4053 C   0  0  0  0  0  0  0  0  0  0  0  0
   14.8610   -7.0699   20.8669 C   0  0  0  0  0  0  0  0  0  0  0  0
   15.5798   -6.2846   21.9430 C   0  0  0  0  0  0  0  0  0  0  0  0
   14.3776   -8.3701   21.4910 C   0  0  0  0  0  0  0  0  0  0  0  0
   15.7339  -10.6030   11.6076 C   0  0  0  0  0  0  0  0  0  0  0  0
   16.3589   -9.9599   10.4571 N   0  0  0  0  0  0  0  0  0  0  0  0
   15.6609   -9.9066    9.2892 C   0  0  0  0  0  0  0  0  0  0  0  0
   16.1920   -9.3067    8.1927 N   0  0  0  0  0  0  0  0  0  0  0  0
   17.4260   -8.7460    8.2349 C   0  0  0  0  0  0  0  0  0  0  0  0
   17.9563   -8.1316    7.0968 C   0  0  0  0  0  0  0  0  0  0  0  0
   19.2287   -7.5537    7.1426 C   0  0  0  0  0  0  0  0  0  0  0  0
   19.9736   -7.5885    8.3257 C   0  0  0  0  0  0  0  0  0  0  0  0
   19.4490   -8.2015    9.4675 C   0  0  0  0  0  0  0  0  0  0  0  0
   18.1735   -8.7833    9.4289 C   0  0  0  0  0  0  0  0  0  0  0  0
   17.6076   -9.4085   10.5491 C   0  0  0  0  0  0  0  0  0  0  0  0
   18.2493   -9.4626   11.6358 O   0  0  0  0  0  0  0  0  0  0  0  0
 16 17  1  0  0  0
 17 18  1  0  0  0
 17 19  1  0  0  0
 17 14  1  0  0  0
 14 11  1  0  0  0
 11 12  2  0  0  0
 11 13  2  0  0  0
 11  5  1  0  0  0
  5  6  2  0  0  0
  6  7  1  0  0  0
  7  8  2  0  0  0
  8  9  1  0  0  0
  9  1  1  0  0  0
  9 10  2  0  0  0
  1  2  1  0  0  0
  2  3  2  0  0  0
  2 20  1  0  0  0
 20 21  1  0  0  0
 21 22  1  0  0  0
 22 23  2  0  0  0
 23 24  1  0  0  0
 24 25  2  0  0  0
 25 26  1  0  0  0
 26 27  2  0  0  0
 27 28  1  0  0  0
 28 29  2  0  0  0
 29 30  1  0  0  0
 29 24  1  0  0  0
 30 31  2  0  0  0
 30 21  1  0  0  0
 10  5  1  0  0  0
 14 15  1  0  0  0
  1  4  1  0  0  0
M  END
>  <minimizedAffinity>
-5.24486

>  <minimizedRMSD>
2.26418

$$$$
1100477 CSSS03437682281 LN01820999 MCULE-4677170966 MolPort-003-878-584 PubChem-1281439 ZINC000001100477


 32 36  0  0  0  0  0  0  0  0999 V2000
   16.0974   -9.5617   10.1978 C   0  0  0  0  0  0  0  0  0  0  0  0
   14.7291   -9.7734    9.9268 C   0  0  0  0  0  0  0  0  0  0  0  0
   13.8456  -10.1885   10.9481 C   0  0  0  0  0  0  0  0  0  0  0  0
   14.3155  -10.3986   12.2577 C   0  0  0  0  0  0  0  0  0  0  0  0
   15.6696  -10.1822   12.4965 C   0  0  0  0  0  0  0  0  0  0  0  0
   16.5242   -9.7819   11.5120 C   0  0  0  0  0  0  0  0  0  0  0  0
   17.7193   -9.6612   12.0249 O   0  0  0  0  0  0  0  0  0  0  0  0
   17.5946   -9.9818   13.3011 C   0  0  0  0  0  0  0  0  0  0  0  0
   16.3287  -10.3198   13.6589 N   0  0  0  0  0  0  0  0  0  0  0  0
   12.4089  -10.4045   10.6368 C   0  0  0  0  0  0  0  0  0  0  0  0
   16.9975   -9.1390    9.1623 N   0  0  0  0  0  0  0  0  0  0  0  0
   18.0351   -8.3276    9.3666 N   0  0  0  0  0  0  0  0  0  0  0  0
   18.6036   -8.1879    8.1605 C   0  0  0  0  0  0  0  0  0  0  0  0
   17.8962   -8.9180    7.2568 C   0  0  0  0  0  0  0  0  0  0  0  0
   18.2415   -8.9751    5.9103 C   0  0  0  0  0  0  0  0  0  0  0  0
   19.3716   -8.2355    5.5095 C   0  0  0  0  0  0  0  0  0  0  0  0
   20.1076   -7.4758    6.4500 C   0  0  0  0  0  0  0  0  0  0  0  0
   19.7244   -7.4445    7.8055 C   0  0  0  0  0  0  0  0  0  0  0  0
   16.8796   -9.5201    7.8903 N   0  0  0  0  0  0  0  0  0  0  0  0
   18.9620   -9.9730   14.4502 S   0  0  0  0  0  0  0  0  0  0  0  0
   18.2047   -8.6588   15.4502 C   0  0  0  0  0  0  0  0  0  0  0  0
   17.4228   -9.2529   16.5682 C   0  0  0  0  0  0  0  0  0  0  0  0
   17.5667  -10.4729   16.8470 O   0  0  0  0  0  0  0  0  0  0  0  0
   16.5287   -8.4354   17.3240 N   0  0  0  0  0  0  0  0  0  0  0  0
   16.4421   -7.4824   17.0928 H   0  0  0  0  0  0  0  0  0  0  0  0
   15.7423   -8.9681   18.4249 C   0  0  0  0  0  0  0  0  0  0  0  0
   14.7640   -7.9456   18.8840 C   0  0  0  0  0  0  0  0  0  0  0  0
   13.8332   -7.4137   17.9847 C   0  0  0  0  0  0  0  0  0  0  0  0
   12.9287   -6.4359   18.4104 C   0  0  0  0  0  0  0  0  0  0  0  0
   12.9576   -5.9854   19.7340 C   0  0  0  0  0  0  0  0  0  0  0  0
   13.8925   -6.5109   20.6314 C   0  0  0  0  0  0  0  0  0  0  0  0
   14.7972   -7.4886   20.2060 C   0  0  0  0  0  0  0  0  0  0  0  0
 11 12  1  0  0  0
 12 13  2  0  0  0
 13 14  1  0  0  0
 14 15  1  0  0  0
 15 16  2  0  0  0
 16 17  1  0  0  0
 17 18  2  0  0  0
 14 19  2  0  0  0
 11  1  1  0  0  0
  1  2  2  0  0  0
  2  3  1  0  0  0
  3  4  2  0  0  0
  4  5  1  0  0  0
  5  6  2  0  0  0
  6  7  1  0  0  0
  7  8  1  0  0  0
  8  9  2  0  0  0
  8 20  1  0  0  0
 20 21  1  0  0  0
 21 22  1  0  0  0
 22 23  2  0  0  0
 22 24  1  0  0  0
 24 26  1  0  0  0
 26 27  1  0  0  0
 27 28  2  0  0  0
 28 29  1  0  0  0
 29 30  2  0  0  0
 30 31  1  0  0  0
 31 32  2  0  0  0
  3 10  1  0  0  0
 19 11  1  0  0  0
  6  1  1  0  0  0
 32 27  1  0  0  0
 18 13  1  0  0  0
  9  5  1  0  0  0
 24 25  1  0  0  0
M  END
>  <minimizedAffinity>
-5.24267

>  <minimizedRMSD>
2.73850

$$$$
CSC027918385 52938497 CSSS00027918385 MCULE-1647780013 MolPort-010-441-582 PubChem-51255018 Z144961818 ZINC000052938497 ZINC52938497


 30 32  0  0  0  0  0  0  0  0999 V2000
   16.3818   -9.8514   13.9135 N   0  0  0  0  0  0  0  0  0  0  0  0
   16.5874  -10.2214   12.5436 C   0  0  0  0  0  0  0  0  0  0  0  0
   17.3838  -11.1440   12.2263 O   0  0  0  0  0  0  0  0  0  0  0  0
   15.7509   -9.1136   14.0775 H   0  0  0  0  0  0  0  0  0  0  0  0
   16.8265   -9.8447   16.3518 C   0  0  0  0  0  0  0  0  0  0  0  0
   17.4370  -10.4443   17.4652 C   0  0  0  0  0  0  0  0  0  0  0  0
   18.1984  -11.6055   17.3308 C   0  0  0  0  0  0  0  0  0  0  0  0
   18.3615  -12.1875   16.0759 C   0  0  0  0  0  0  0  0  0  0  0  0
   17.7635  -11.6073   14.9576 C   0  0  0  0  0  0  0  0  0  0  0  0
   16.9943  -10.4381   15.0738 C   0  0  0  0  0  0  0  0  0  0  0  0
   15.4416   -8.3686   17.8544 N   0  0  0  0  0  0  0  0  0  0  0  0
   16.0297   -8.6116   16.5730 C   0  0  0  0  0  0  0  0  0  0  0  0
   15.8627   -7.7735   15.6457 O   0  0  0  0  0  0  0  0  0  0  0  0
   15.5773   -9.0271   18.5736 H   0  0  0  0  0  0  0  0  0  0  0  0
   14.6502   -7.1810   18.1283 C   0  0  0  0  0  0  0  0  0  0  0  0
   12.2678   -6.6521   18.0601 C   0  0  0  0  0  0  0  0  0  0  0  0
   13.2166   -7.5603   18.2614 C   0  0  0  0  0  0  0  0  0  0  0  0
   15.8210   -9.5211   11.4746 C   0  0  0  0  0  0  0  0  0  0  0  0
   15.9646  -10.2470   10.1414 C   0  0  0  0  0  0  0  0  0  0  0  0
   16.6938   -9.4301    9.1728 N   0  0  0  0  0  0  0  0  0  0  0  0
   16.0720   -9.1266    8.0301 N   0  0  0  0  0  0  0  0  0  0  0  0
   16.6591   -8.3751    7.0638 C   0  0  0  0  0  0  0  0  0  0  0  0
   17.9484   -7.8906    7.2524 C   0  0  0  0  0  0  0  0  0  0  0  0
   18.4916   -7.1954    6.3521 O   0  0  0  0  0  0  0  0  0  0  0  0
   18.6168   -8.1837    8.4457 C   0  0  0  0  0  0  0  0  0  0  0  0
   19.9145   -7.7090    8.6871 C   0  0  0  0  0  0  0  0  0  0  0  0
   20.5610   -8.0056    9.8890 C   0  0  0  0  0  0  0  0  0  0  0  0
   19.9166   -8.7765   10.8585 C   0  0  0  0  0  0  0  0  0  0  0  0
   18.6247   -9.2551   10.6280 C   0  0  0  0  0  0  0  0  0  0  0  0
   17.9616   -8.9691    9.4217 C   0  0  0  0  0  0  0  0  0  0  0  0
 16 17  2  0  0  0
 17 15  1  0  0  0
 15 11  1  0  0  0
 11 12  1  0  0  0
 12 13  2  0  0  0
 12  5  1  0  0  0
  5  6  2  0  0  0
  6  7  1  0  0  0
  7  8  2  0  0  0
  8  9  1  0  0  0
  9 10  2  0  0  0
 10  1  1  0  0  0
 10  5  1  0  0  0
  1  2  1  0  0  0
  2  3  2  0  0  0
  2 18  1  0  0  0
 18 19  1  0  0  0
 19 20  1  0  0  0
 20 21  1  0  0  0
 21 22  2  0  0  0
 22 23  1  0  0  0
 23 24  2  0  0  0
 23 25  1  0  0  0
 25 26  2  0  0  0
 26 27  1  0  0  0
 27 28  2  0  0  0
 28 29  1  0  0  0
 29 30  2  0  0  0
 30 20  1  0  0  0
 30 25  1  0  0  0
 11 14  1  0  0  0
  1  4  1  0  0  0
M  END
>  <minimizedAffinity>
-5.23928

>  <minimizedRMSD>
2.29710

$$$$
CSSS03437702353 MCULE-9697077585 MolPort-009-014-294 PubChem-49762933 ZINC000036048362 ZINC36048362


 26 28  0  0  0  0  0  0  0  0999 V2000
   17.4711  -10.3427   13.5248 C   0  0  0  0  0  0  0  0  0  0  0  0
   16.1815  -10.1915   13.9229 N   0  0  0  0  0  0  0  0  0  0  0  0
   15.2320   -9.7674   13.0506 C   0  0  0  0  0  0  0  0  0  0  0  0
   15.5765   -9.4822   11.7309 C   0  0  0  0  0  0  0  0  0  0  0  0
   16.9099   -9.6389   11.3281 C   0  0  0  0  0  0  0  0  0  0  0  0
   17.8226  -10.0727   12.2405 N   0  0  0  0  0  0  0  0  0  0  0  0
   17.3079   -9.3543    9.9207 C   0  0  0  0  0  0  0  0  0  0  0  0
   18.4272   -8.5536    9.5631 C   0  0  0  0  0  0  0  0  0  0  0  0
   19.3004   -7.8792   10.5734 C   0  0  0  0  0  0  0  0  0  0  0  0
   18.6849   -8.3813    8.2400 N   0  0  0  0  0  0  0  0  0  0  0  0
   19.6640   -7.6797    7.7013 N   0  0  0  0  0  0  0  0  0  0  0  0
   19.5122   -7.7970    6.3626 C   0  0  0  0  0  0  0  0  0  0  0  0
   20.4191   -7.1502    5.3785 C   0  0  0  0  0  0  0  0  0  0  0  0
   18.4127   -8.5883    6.0263 C   0  0  0  0  0  0  0  0  0  0  0  0
   17.9361   -8.9240    7.2759 C   0  0  0  0  0  0  0  0  0  0  0  0
   16.8583   -9.6879    7.5626 N   0  0  0  0  0  0  0  0  0  0  0  0
   16.5387   -9.9069    8.8688 C   0  0  0  0  0  0  0  0  0  0  0  0
   18.7066  -10.9051   14.6886 S   0  0  0  0  0  0  0  0  0  0  0  0
   19.0077   -9.2319   15.3379 C   0  0  0  0  0  0  0  0  0  0  0  0
   17.0070   -8.8901   16.8365 N   0  0  0  0  0  0  0  0  0  0  0  0
   17.7180   -8.5539   15.6446 C   0  0  0  0  0  0  0  0  0  0  0  0
   17.2554   -7.7015   14.8404 O   0  0  0  0  0  0  0  0  0  0  0  0
   17.3915   -9.5575   17.4496 H   0  0  0  0  0  0  0  0  0  0  0  0
   14.6038   -9.1765   16.7158 C   0  0  0  0  0  0  0  0  0  0  0  0
   15.7330   -8.2766   17.1717 C   0  0  0  0  0  0  0  0  0  0  0  0
   15.6462   -8.0786   18.6705 C   0  0  0  0  0  0  0  0  0  0  0  0
 24 25  1  0  0  0
 25 26  1  0  0  0
 25 20  1  0  0  0
 20 21  1  0  0  0
 21 22  2  0  0  0
 21 19  1  0  0  0
 19 18  1  0  0  0
 18  1  1  0  0  0
  1  2  2  0  0  0
  2  3  1  0  0  0
  3  4  2  0  0  0
  4  5  1  0  0  0
  5  6  2  0  0  0
  5  7  1  0  0  0
  6  1  1  0  0  0
  7  8  2  0  0  0
  8  9  1  0  0  0
  8 10  1  0  0  0
 10 11  1  0  0  0
 11 12  2  0  0  0
 12 13  1  0  0  0
 12 14  1  0  0  0
 14 15  2  0  0  0
 15 16  1  0  0  0
 15 10  1  0  0  0
 16 17  2  0  0  0
 17  7  1  0  0  0
 20 23  1  0  0  0
M  END
>  <minimizedAffinity>
-5.23053

>  <minimizedRMSD>
1.52550

$$$$
CSC028019917 5517232 CHEMBL1359939 CSSS00028019917 MCULE-6858834057 MolPort-004-255-869 OLTGIDHUAQIZQG-UHFFFAOYSA-N PubChem-5197187 Z31705702 ZINC000005517232 ZINC05517232


 28 30  0  0  0  0  0  0  0  0999 V2000
   16.7816  -10.3991   13.7383 N   0  0  0  0  0  0  0  0  0  0  0  0
   15.9726   -9.8477   12.6914 C   0  0  0  0  0  0  0  0  0  0  0  0
   15.4737   -8.6953   12.7879 O   0  0  0  0  0  0  0  0  0  0  0  0
   17.1314  -11.3080   13.5936 H   0  0  0  0  0  0  0  0  0  0  0  0
   16.5415   -8.6548   17.0564 C   0  0  0  0  0  0  0  0  0  0  0  0
   17.8976   -8.5248   17.3722 C   0  0  0  0  0  0  0  0  0  0  0  0
   18.8700   -9.0133   16.4959 C   0  0  0  0  0  0  0  0  0  0  0  0
   18.4879   -9.6307   15.3013 C   0  0  0  0  0  0  0  0  0  0  0  0
   17.1341   -9.7638   14.9743 C   0  0  0  0  0  0  0  0  0  0  0  0
   16.1630   -9.2701   15.8586 C   0  0  0  0  0  0  0  0  0  0  0  0
   16.0791   -7.2062   19.4632 N   0  0  0  0  0  0  0  0  0  0  0  0
   15.3196   -8.0318   18.1491 S   0  0  0  0  0  0  0  0  0  0  0  0
   14.5037   -9.1685   18.6976 O   0  0  0  0  0  0  0  0  0  0  0  0
   14.4218   -7.0804   17.4104 O   0  0  0  0  0  0  0  0  0  0  0  0
   15.3652   -6.8455   20.0962 H   0  0  0  0  0  0  0  0  0  0  0  0
   16.6358   -6.4316   19.1018 H   0  0  0  0  0  0  0  0  0  0  0  0
   15.7485  -10.6396   11.4481 C   0  0  0  0  0  0  0  0  0  0  0  0
   16.3765   -9.9809   10.3081 N   0  0  0  0  0  0  0  0  0  0  0  0
   15.6942   -9.9385    9.1305 C   0  0  0  0  0  0  0  0  0  0  0  0
   16.2284   -9.3250    8.0431 N   0  0  0  0  0  0  0  0  0  0  0  0
   17.4502   -8.7398    8.1041 C   0  0  0  0  0  0  0  0  0  0  0  0
   17.9840   -8.1118    6.9751 C   0  0  0  0  0  0  0  0  0  0  0  0
   19.2437   -7.5086    7.0404 C   0  0  0  0  0  0  0  0  0  0  0  0
   19.9725   -7.5316    8.2337 C   0  0  0  0  0  0  0  0  0  0  0  0
   19.4442   -8.1581    9.3666 C   0  0  0  0  0  0  0  0  0  0  0  0
   18.1813   -8.7653    9.3084 C   0  0  0  0  0  0  0  0  0  0  0  0
   17.6125   -9.4047   10.4190 C   0  0  0  0  0  0  0  0  0  0  0  0
   18.2397   -9.4489   11.5145 O   0  0  0  0  0  0  0  0  0  0  0  0
 11 12  1  0  0  0
 12 13  2  0  0  0
 12 14  2  0  0  0
 12  5  1  0  0  0
  5  6  2  0  0  0
  6  7  1  0  0  0
  7  8  2  0  0  0
  8  9  1  0  0  0
  9  1  1  0  0  0
  9 10  2  0  0  0
  1  2  1  0  0  0
  2  3  2  0  0  0
  2 17  1  0  0  0
 17 18  1  0  0  0
 18 19  1  0  0  0
 19 20  2  0  0  0
 20 21  1  0  0  0
 21 22  2  0  0  0
 22 23  1  0  0  0
 23 24  2  0  0  0
 24 25  1  0  0  0
 25 26  2  0  0  0
 26 27  1  0  0  0
 26 21  1  0  0  0
 27 28  2  0  0  0
 27 18  1  0  0  0
 10  5  1  0  0  0
 11 15  1  0  0  0
 11 16  1  0  0  0
  1  4  1  0  0  0
M  END
>  <minimizedAffinity>
-5.20046

>  <minimizedRMSD>
1.41953

$$$$
CSSS03545861749 Z5001783828


 29 31  0  0  0  0  0  0  0  0999 V2000
   16.7247   -8.8596   13.3977 N   0  0  0  0  0  0  0  0  0  0  0  0
   16.1172   -8.2715   12.8271 H   0  0  0  0  0  0  0  0  0  0  0  0
   17.6878   -9.8755   12.3787 S   0  0  0  0  0  0  0  0  0  0  0  0
   17.4723  -11.3203   12.7349 O   0  0  0  0  0  0  0  0  0  0  0  0
   19.1395   -9.5448   12.5857 O   0  0  0  0  0  0  0  0  0  0  0  0
   15.0044  -10.6816   10.6989 C   0  0  0  0  0  0  0  0  0  0  0  0
   16.1137   -9.9731   10.0841 N   0  0  0  0  0  0  0  0  0  0  0  0
   16.1106   -9.5832    8.8135 N   0  0  0  0  0  0  0  0  0  0  0  0
   17.2784   -8.9461    8.6090 C   0  0  0  0  0  0  0  0  0  0  0  0
   17.7273   -8.3522    7.4320 C   0  0  0  0  0  0  0  0  0  0  0  0
   18.9893   -7.7286    7.4615 C   0  0  0  0  0  0  0  0  0  0  0  0
   19.7582   -7.7136    8.6476 C   0  0  0  0  0  0  0  0  0  0  0  0
   19.2777   -8.3232    9.8219 C   0  0  0  0  0  0  0  0  0  0  0  0
   18.0271   -8.9323    9.7567 C   0  0  0  0  0  0  0  0  0  0  0  0
   17.2673   -9.5985   10.6896 C   0  0  0  0  0  0  0  0  0  0  0  0
   15.9206   -9.7218   14.2507 C   0  0  0  0  0  0  0  0  0  0  0  0
   15.8041   -9.1257   15.6101 C   0  0  0  0  0  0  0  0  0  0  0  0
   16.6452   -9.5672   16.6362 C   0  0  0  0  0  0  0  0  0  0  0  0
   16.5354   -9.0178   17.9171 C   0  0  0  0  0  0  0  0  0  0  0  0
   15.5832   -8.0257   18.1749 C   0  0  0  0  0  0  0  0  0  0  0  0
   14.7345   -7.5907   17.1509 C   0  0  0  0  0  0  0  0  0  0  0  0
   14.8446   -8.1395   15.8700 C   0  0  0  0  0  0  0  0  0  0  0  0
   15.4513   -7.4558   19.5450 C   0  0  0  0  0  0  0  0  0  0  0  0
   13.7407   -7.1355   19.9340 S   0  0  0  0  0  0  0  0  0  0  0  0
   13.6319   -5.8058   20.6238 O   0  0  0  0  0  0  0  0  0  0  0  0
   12.9260   -7.1093   18.6719 O   0  0  0  0  0  0  0  0  0  0  0  0
   13.1393   -8.3713   20.9807 N   0  0  0  0  0  0  0  0  0  0  0  0
   13.6920   -8.3896   21.8378 H   0  0  0  0  0  0  0  0  0  0  0  0
   13.2068   -9.2754   20.5133 H   0  0  0  0  0  0  0  0  0  0  0  0
  6  7  1  0  0  0
  7  8  1  0  0  0
  8  9  2  0  0  0
  9 10  1  0  0  0
 10 11  2  0  0  0
 11 12  1  0  0  0
 12 13  2  0  0  0
 13 14  1  0  0  0
 14 15  2  0  0  0
 15  3  1  0  0  0
  3  4  2  0  0  0
  3  5  2  0  0  0
  3  1  1  0  0  0
  1 16  1  0  0  0
 16 17  1  0  0  0
 17 18  2  0  0  0
 18 19  1  0  0  0
 19 20  2  0  0  0
 20 23  1  0  0  0
 23 24  1  0  0  0
 24 25  2  0  0  0
 24 26  2  0  0  0
 24 27  1  0  0  0
 20 21  1  0  0  0
 21 22  2  0  0  0
 15  7  1  0  0  0
 22 17  1  0  0  0
 14  9  1  0  0  0
  1  2  1  0  0  0
 27 28  1  0  0  0
 27 29  1  0  0  0
M  END
>  <minimizedAffinity>
-5.19832

>  <minimizedRMSD>
2.70747

$$$$
CSSS00104619370


 26 29  0  0  0  0  0  0  0  0999 V2000
   18.3728  -12.1287   13.4274 O   0  0  0  0  0  0  0  0  0  0  0  0
   17.8045  -11.0025   13.4064 C   0  0  0  0  0  0  0  0  0  0  0  0
   17.5919  -10.3334   12.1612 N   0  0  0  0  0  0  0  0  0  0  0  0
   17.1437   -9.4568   12.1616 H   0  0  0  0  0  0  0  0  0  0  0  0
   17.3611  -10.3769   14.6643 C   0  0  0  0  0  0  0  0  0  0  0  0
   16.4299   -9.3162   14.6378 C   0  0  0  0  0  0  0  0  0  0  0  0
   16.0456   -8.7612   15.8552 C   0  0  0  0  0  0  0  0  0  0  0  0
   15.1837   -7.7572   16.0625 N   0  0  0  0  0  0  0  0  0  0  0  0
   15.1837   -7.6278   17.4161 C   0  0  0  0  0  0  0  0  0  0  0  0
   16.0057   -8.5058   18.0505 N   0  0  0  0  0  0  0  0  0  0  0  0
   16.5356   -9.2075   17.0400 C   0  0  0  0  0  0  0  0  0  0  0  0
   17.4547  -10.2495   17.1167 C   0  0  0  0  0  0  0  0  0  0  0  0
   17.8674  -10.8363   15.9063 C   0  0  0  0  0  0  0  0  0  0  0  0
   16.1709   -8.6022   19.0162 H   0  0  0  0  0  0  0  0  0  0  0  0
   18.0165  -10.9060   10.8946 C   0  0  0  0  0  0  0  0  0  0  0  0
   17.4268  -10.1237    9.7719 C   0  0  0  0  0  0  0  0  0  0  0  0
   18.0226   -9.0931    9.1545 N   0  0  0  0  0  0  0  0  0  0  0  0
   17.1098   -8.6747    8.2736 C   0  0  0  0  0  0  0  0  0  0  0  0
   17.3868   -7.5944    7.4419 C   0  0  0  0  0  0  0  0  0  0  0  0
   16.5451   -7.1784    6.6032 O   0  0  0  0  0  0  0  0  0  0  0  0
   18.6063   -6.9917    7.5622 N   0  0  0  0  0  0  0  0  0  0  0  0
   19.5359   -7.4260    8.4704 C   0  0  0  0  0  0  0  0  0  0  0  0
   19.2408   -8.5178    9.3035 C   0  0  0  0  0  0  0  0  0  0  0  0
   15.9792   -9.4036    8.3346 N   0  0  0  0  0  0  0  0  0  0  0  0
   16.1796  -10.3144    9.2851 N   0  0  0  0  0  0  0  0  0  0  0  0
   18.8228   -6.2262    6.9823 H   0  0  0  0  0  0  0  0  0  0  0  0
  1  2  2  0  0  0
  2  3  1  0  0  0
  3 15  1  0  0  0
 15 16  1  0  0  0
 16 17  1  0  0  0
 17 18  1  0  0  0
 18 19  1  0  0  0
 19 20  2  0  0  0
 19 21  1  0  0  0
 21 22  1  0  0  0
 22 23  2  0  0  0
 18 24  2  0  0  0
 24 25  1  0  0  0
  2  5  1  0  0  0
  5  6  2  0  0  0
  6  7  1  0  0  0
  7  8  1  0  0  0
  8  9  2  0  0  0
  9 10  1  0  0  0
 10 11  1  0  0  0
 11 12  1  0  0  0
 12 13  2  0  0  0
 25 16  2  0  0  0
 13  5  1  0  0  0
 23 17  1  0  0  0
 11  7  2  0  0  0
  3  4  1  0  0  0
 21 26  1  0  0  0
 10 14  1  0  0  0
M  END
>  <minimizedAffinity>
-5.18981

>  <minimizedRMSD>
0.48450

$$$$
CSC027030283 9219616 CSSS00027030283 MCULE-6006933170 MolPort-004-223-369 PubChem-16381856 Z102332688 ZINC000009219616 ZINC09219616


 32 35  0  0  0  0  0  0  0  0999 V2000
   17.3895   -9.7702   14.7896 C   0  0  0  0  0  0  0  0  0  0  0  0
   18.7014   -9.5781   15.2491 C   0  0  0  0  0  0  0  0  0  0  0  0
   18.9364   -8.9404   16.4707 C   0  0  0  0  0  0  0  0  0  0  0  0
   17.8613   -8.4907   17.2415 C   0  0  0  0  0  0  0  0  0  0  0  0
   16.5496   -8.6779   16.7932 C   0  0  0  0  0  0  0  0  0  0  0  0
   16.3168   -9.3153   15.5695 C   0  0  0  0  0  0  0  0  0  0  0  0
   16.2938   -9.8195   12.5248 N   0  0  0  0  0  0  0  0  0  0  0  0
   17.1401  -10.4386   13.5009 C   0  0  0  0  0  0  0  0  0  0  0  0
   17.6719  -11.5565   13.2566 O   0  0  0  0  0  0  0  0  0  0  0  0
   15.8529   -8.9702   12.7563 H   0  0  0  0  0  0  0  0  0  0  0  0
   16.0557  -10.3891   11.2057 C   0  0  0  0  0  0  0  0  0  0  0  0
   15.8849  -10.8008    8.1516 C   0  0  0  0  0  0  0  0  0  0  0  0
   16.7920   -9.9004    8.8482 N   0  0  0  0  0  0  0  0  0  0  0  0
   16.9074   -9.7042   10.1854 C   0  0  0  0  0  0  0  0  0  0  0  0
   17.8474   -8.7782   10.5159 N   0  0  0  0  0  0  0  0  0  0  0  0
   18.3316   -8.4012    9.3165 C   0  0  0  0  0  0  0  0  0  0  0  0
   19.3276   -7.4608    9.0608 C   0  0  0  0  0  0  0  0  0  0  0  0
   19.6650   -7.2238    7.7145 C   0  0  0  0  0  0  0  0  0  0  0  0
   19.0080   -7.9207    6.6744 C   0  0  0  0  0  0  0  0  0  0  0  0
   18.0039   -8.8641    6.9661 C   0  0  0  0  0  0  0  0  0  0  0  0
   17.6977   -9.0732    8.3102 C   0  0  0  0  0  0  0  0  0  0  0  0
   15.2034   -8.1129   17.7685 S   0  0  0  0  0  0  0  0  0  0  0  0
   14.5703   -6.9270   17.0971 O   0  0  0  0  0  0  0  0  0  0  0  0
   14.1768   -9.2037   17.9061 O   0  0  0  0  0  0  0  0  0  0  0  0
   15.7665   -7.6509   19.3393 N   0  0  0  0  0  0  0  0  0  0  0  0
   15.8520   -6.6359   19.3930 H   0  0  0  0  0  0  0  0  0  0  0  0
   14.7931   -8.1180   20.3136 C   0  0  0  0  0  0  0  0  0  0  0  0
   14.7796   -7.2039   21.4886 C   0  0  0  0  0  0  0  0  0  0  0  0
   15.0807   -7.5749   22.7796 C   0  0  0  0  0  0  0  0  0  0  0  0
   14.9363   -6.4135   23.5209 C   0  0  0  0  0  0  0  0  0  0  0  0
   14.5582   -5.4200   22.6332 C   0  0  0  0  0  0  0  0  0  0  0  0
   14.4750   -5.9328   21.4284 O   0  0  0  0  0  0  0  0  0  0  0  0
 12 13  1  0  0  0
 13 14  1  0  0  0
 14 11  1  0  0  0
 14 15  2  0  0  0
 11  7  1  0  0  0
  7  8  1  0  0  0
  8  9  2  0  0  0
  8  1  1  0  0  0
  1  2  2  0  0  0
  2  3  1  0  0  0
  3  4  2  0  0  0
  4  5  1  0  0  0
  5  6  2  0  0  0
  5 22  1  0  0  0
  6  1  1  0  0  0
 22 23  2  0  0  0
 22 24  2  0  0  0
 22 25  1  0  0  0
 25 27  1  0  0  0
 27 28  1  0  0  0
 28 29  2  0  0  0
 29 30  1  0  0  0
 30 31  2  0  0  0
 31 32  1  0  0  0
 32 28  1  0  0  0
 15 16  1  0  0  0
 16 17  2  0  0  0
 17 18  1  0  0  0
 18 19  2  0  0  0
 19 20  1  0  0  0
 20 21  2  0  0  0
 21 13  1  0  0  0
 21 16  1  0  0  0
  7 10  1  0  0  0
 25 26  1  0  0  0
M  END
>  <minimizedAffinity>
-5.17822

>  <minimizedRMSD>
2.80344

$$$$
CSSS00132985779 LN01190084 MolPort-001-671-209 PubChem-6873250 ZINC00998566


 36 39  0  0  0  0  0  0  0  0999 V2000
   17.6612  -10.7772   14.1538 S   0  0  0  0  0  0  0  0  0  0  0  0
   17.7227  -10.0528   12.5145 C   0  0  0  0  0  0  0  0  0  0  0  0
   18.8601   -9.8857   11.8118 N   0  0  0  0  0  0  0  0  0  0  0  0
   18.5230   -9.3148   10.6626 N   0  0  0  0  0  0  0  0  0  0  0  0
   17.1877   -9.1387   10.6897 C   0  0  0  0  0  0  0  0  0  0  0  0
   16.6536   -9.6079   11.8313 N   0  0  0  0  0  0  0  0  0  0  0  0
   16.4041   -8.5645    9.5567 C   0  0  0  0  0  0  0  0  0  0  0  0
   16.9872   -8.9806    8.2905 N   0  0  0  0  0  0  0  0  0  0  0  0
   16.7297  -10.1309    7.6764 N   0  0  0  0  0  0  0  0  0  0  0  0
   17.4632  -10.2529    6.5699 N   0  0  0  0  0  0  0  0  0  0  0  0
   18.2099   -9.1350    6.5024 C   0  0  0  0  0  0  0  0  0  0  0  0
   19.1524   -8.7717    5.5455 C   0  0  0  0  0  0  0  0  0  0  0  0
   19.8054   -7.5359    5.7281 C   0  0  0  0  0  0  0  0  0  0  0  0
   19.5035   -6.7168    6.8427 C   0  0  0  0  0  0  0  0  0  0  0  0
   18.5437   -7.1197    7.7922 C   0  0  0  0  0  0  0  0  0  0  0  0
   17.9203   -8.3454    7.5713 C   0  0  0  0  0  0  0  0  0  0  0  0
   15.2599   -9.5822   12.2544 C   0  0  0  0  0  0  0  0  0  0  0  0
   14.3828  -10.0715   11.1508 C   0  0  0  0  0  0  0  0  0  0  0  0
   13.1753  -10.5550   11.4249 C   0  0  0  0  0  0  0  0  0  0  0  0
   16.1769   -9.8349   14.6197 C   0  0  0  0  0  0  0  0  0  0  0  0
   15.5660   -8.2854   16.5124 N   0  0  0  0  0  0  0  0  0  0  0  0
   16.2343   -9.4617   16.0594 C   0  0  0  0  0  0  0  0  0  0  0  0
   16.8528  -10.1979   16.8734 O   0  0  0  0  0  0  0  0  0  0  0  0
   15.0914   -7.7166   15.8639 H   0  0  0  0  0  0  0  0  0  0  0  0
   14.4668   -7.6486   18.4683 C   0  0  0  0  0  0  0  0  0  0  0  0
   15.5756   -7.9287   17.8654 N   0  0  0  0  0  0  0  0  0  0  0  0
   14.3844   -6.5378   22.6061 C   0  0  0  0  0  0  0  0  0  0  0  0
   15.6016   -6.8423   21.9783 C   0  0  0  0  0  0  0  0  0  0  0  0
   15.6270   -7.2050   20.6304 C   0  0  0  0  0  0  0  0  0  0  0  0
   14.4377   -7.2697   19.8896 C   0  0  0  0  0  0  0  0  0  0  0  0
   13.2127   -6.9683   20.5118 C   0  0  0  0  0  0  0  0  0  0  0  0
   13.1988   -6.6036   21.8694 C   0  0  0  0  0  0  0  0  0  0  0  0
   15.2227   -6.6892   24.9279 C   0  0  0  0  0  0  0  0  0  0  0  0
   14.3252   -6.1744   23.9540 O   0  0  0  0  0  0  0  0  0  0  0  0
   12.0259   -7.0336   19.7712 O   0  0  0  0  0  0  0  0  0  0  0  0
   11.2028   -5.8992   19.5318 C   0  0  0  0  0  0  0  0  0  0  0  0
 33 34  1  0  0  0
 34 27  1  0  0  0
 27 28  2  0  0  0
 28 29  1  0  0  0
 29 30  2  0  0  0
 30 25  1  0  0  0
 25 26  2  0  0  0
 26 21  1  0  0  0
 21 22  1  0  0  0
 22 23  2  0  0  0
 22 20  1  0  0  0
 20  1  1  0  0  0
  1  2  1  0  0  0
  2  3  2  0  0  0
  3  4  1  0  0  0
  4  5  2  0  0  0
  5  7  1  0  0  0
  7  8  1  0  0  0
  8  9  1  0  0  0
  9 10  2  0  0  0
 10 11  1  0  0  0
 11 12  2  0  0  0
 12 13  1  0  0  0
 13 14  2  0  0  0
 14 15  1  0  0  0
 15 16  2  0  0  0
  5  6  1  0  0  0
  6 17  1  0  0  0
 17 18  1  0  0  0
 18 19  2  0  0  0
 30 31  1  0  0  0
 31 35  1  0  0  0
 35 36  1  0  0  0
 31 32  2  0  0  0
 32 27  1  0  0  0
  6  2  1  0  0  0
 16  8  1  0  0  0
 16 11  1  0  0  0
 21 24  1  0  0  0
M  END
>  <minimizedAffinity>
-5.17060

>  <minimizedRMSD>
3.45619

$$$$
CSC026683558 25802680 CSSS00026683558 MCULE-3376701806 MolPort-009-466-296 PubChem-33076756 Z242818348 ZINC000025802680 ZINC25802680


 31 34  0  0  0  0  0  0  0  0999 V2000
   16.8541  -10.1260   11.1628 C   0  0  0  0  0  0  0  0  0  0  0  0
   15.5936  -10.1463   11.2255 O   0  0  0  0  0  0  0  0  0  0  0  0
   17.6567  -10.5338   12.3262 C   0  0  0  0  0  0  0  0  0  0  0  0
   18.2366  -11.8097   12.3831 C   0  0  0  0  0  0  0  0  0  0  0  0
   18.9958  -12.1908   13.4933 C   0  0  0  0  0  0  0  0  0  0  0  0
   19.1814  -11.2986   14.5527 C   0  0  0  0  0  0  0  0  0  0  0  0
   18.6127  -10.0224   14.5006 C   0  0  0  0  0  0  0  0  0  0  0  0
   17.8486   -9.6443   13.3917 C   0  0  0  0  0  0  0  0  0  0  0  0
   18.7895   -9.0789   15.6422 C   0  0  0  0  0  0  0  0  0  0  0  0
   17.5120   -8.8234   16.2957 N   0  0  0  0  0  0  0  0  0  0  0  0
   16.5669   -7.8266   15.9409 C   0  0  0  0  0  0  0  0  0  0  0  0
   16.8362   -6.8506   15.1925 O   0  0  0  0  0  0  0  0  0  0  0  0
   15.2204   -8.0848   16.5367 C   0  0  0  0  0  0  0  0  0  0  0  0
   15.4023   -9.3523   17.2431 N   0  0  0  0  0  0  0  0  0  0  0  0
   16.7564   -9.7458   17.0572 C   0  0  0  0  0  0  0  0  0  0  0  0
   17.2275  -10.8209   17.5126 O   0  0  0  0  0  0  0  0  0  0  0  0
   14.7161   -9.8416   17.7519 H   0  0  0  0  0  0  0  0  0  0  0  0
   17.4961   -9.7133    9.9908 O   0  0  0  0  0  0  0  0  0  0  0  0
   16.7892   -9.2013    8.8677 C   0  0  0  0  0  0  0  0  0  0  0  0
   18.8187   -7.9387    8.0675 N   0  0  0  0  0  0  0  0  0  0  0  0
   17.7484   -8.7380    7.8195 C   0  0  0  0  0  0  0  0  0  0  0  0
   17.6497   -9.1210    6.5190 N   0  0  0  0  0  0  0  0  0  0  0  0
   18.7082   -8.5161    5.9477 C   0  0  0  0  0  0  0  0  0  0  0  0
   19.0946   -8.5684    4.6109 C   0  0  0  0  0  0  0  0  0  0  0  0
   20.2501   -7.8538    4.2419 C   0  0  0  0  0  0  0  0  0  0  0  0
   20.9792   -7.1180    5.2033 C   0  0  0  0  0  0  0  0  0  0  0  0
   20.5627   -7.0862    6.5471 C   0  0  0  0  0  0  0  0  0  0  0  0
   19.4134   -7.8044    6.8752 C   0  0  0  0  0  0  0  0  0  0  0  0
   19.9527   -8.2808   10.0729 F   0  0  0  0  0  0  0  0  0  0  0  0
   19.2440   -7.3521    9.3333 C   0  0  0  0  0  0  0  0  0  0  0  0
   18.1422   -6.9226   10.0500 F   0  0  0  0  0  0  0  0  0  0  0  0
 29 30  1  0  0  0
 30 31  1  0  0  0
 30 20  1  0  0  0
 20 21  1  0  0  0
 21 19  1  0  0  0
 21 22  2  0  0  0
 19 18  1  0  0  0
 18  1  1  0  0  0
  1  2  2  0  0  0
  1  3  1  0  0  0
  3  4  2  0  0  0
  4  5  1  0  0  0
  5  6  2  0  0  0
  6  7  1  0  0  0
  7  9  1  0  0  0
  7  8  2  0  0  0
  9 10  1  0  0  0
 10 11  1  0  0  0
 11 12  2  0  0  0
 11 13  1  0  0  0
 13 14  1  0  0  0
 14 15  1  0  0  0
 15 16  2  0  0  0
 15 10  1  0  0  0
  8  3  1  0  0  0
 22 23  1  0  0  0
 23 24  2  0  0  0
 24 25  1  0  0  0
 25 26  2  0  0  0
 26 27  1  0  0  0
 27 28  2  0  0  0
 28 20  1  0  0  0
 28 23  1  0  0  0
 14 17  1  0  0  0
M  END
>  <minimizedAffinity>
-5.16397

>  <minimizedRMSD>
2.20000

$$$$
11784801 CSSS00159463408 MCULE-5267563841 MolPort-005-038-884 PubChem-42164949 ZINC000011784801 ZINC11784801


 33 35  0  0  0  0  0  0  0  0999 V2000
   15.7460   -8.7203   16.6167 C   0  0  0  0  0  0  0  0  0  0  0  0
   16.5393   -9.8295   16.9284 C   0  0  0  0  0  0  0  0  0  0  0  0
   16.9969  -10.6656   15.9550 N   0  0  0  0  0  0  0  0  0  0  0  0
   16.6936  -10.4453   14.6496 C   0  0  0  0  0  0  0  0  0  0  0  0
   15.9041   -9.3569   14.2618 C   0  0  0  0  0  0  0  0  0  0  0  0
   15.4248   -8.4814   15.2618 C   0  0  0  0  0  0  0  0  0  0  0  0
   14.7150   -7.4876   14.9457 O   0  0  0  0  0  0  0  0  0  0  0  0
   15.9341   -7.9081   18.9949 N   0  0  0  0  0  0  0  0  0  0  0  0
   15.2827   -7.8469   17.7227 C   0  0  0  0  0  0  0  0  0  0  0  0
   14.3199   -7.0494   17.5545 O   0  0  0  0  0  0  0  0  0  0  0  0
   16.6904   -8.5270   19.1135 H   0  0  0  0  0  0  0  0  0  0  0  0
   15.5149   -7.0853   20.1189 C   0  0  0  0  0  0  0  0  0  0  0  0
   14.9622   -7.5603   22.4968 C   0  0  0  0  0  0  0  0  0  0  0  0
   14.6340   -7.8934   21.0542 C   0  0  0  0  0  0  0  0  0  0  0  0
   13.1818   -7.5606   20.7857 C   0  0  0  0  0  0  0  0  0  0  0  0
   15.6117   -9.1720   12.8195 C   0  0  0  0  0  0  0  0  0  0  0  0
   15.6016   -8.0193   12.3074 O   0  0  0  0  0  0  0  0  0  0  0  0
   15.3341  -10.3129   11.9992 N   0  0  0  0  0  0  0  0  0  0  0  0
   15.3009  -11.2006   12.4235 H   0  0  0  0  0  0  0  0  0  0  0  0
   15.0987  -10.2179   10.5652 C   0  0  0  0  0  0  0  0  0  0  0  0
   16.2788   -9.6067    9.8898 C   0  0  0  0  0  0  0  0  0  0  0  0
   16.2851   -9.3003    8.5664 N   0  0  0  0  0  0  0  0  0  0  0  0
   17.4959   -8.7487    8.4057 C   0  0  0  0  0  0  0  0  0  0  0  0
   18.0504   -8.2423    7.2329 C   0  0  0  0  0  0  0  0  0  0  0  0
   19.3473   -7.7013    7.3121 C   0  0  0  0  0  0  0  0  0  0  0  0
   20.0427   -7.6807    8.5423 C   0  0  0  0  0  0  0  0  0  0  0  0
   19.4494   -8.2007    9.7078 C   0  0  0  0  0  0  0  0  0  0  0  0
   18.1660   -8.7287    9.5912 C   0  0  0  0  0  0  0  0  0  0  0  0
   17.4119   -9.2679   10.5590 N   0  0  0  0  0  0  0  0  0  0  0  0
   17.6248   -9.3880   11.5127 H   0  0  0  0  0  0  0  0  0  0  0  0
   17.8232  -11.8229   16.2868 C   0  0  0  0  0  0  0  0  0  0  0  0
   18.6279  -11.5758   17.5517 C   0  0  0  0  0  0  0  0  0  0  0  0
   18.7461  -12.1842   15.1352 C   0  0  0  0  0  0  0  0  0  0  0  0
 13 14  1  0  0  0
 14 15  1  0  0  0
 14 12  1  0  0  0
 12  8  1  0  0  0
  8  9  1  0  0  0
  9 10  2  0  0  0
  9  1  1  0  0  0
  1  2  2  0  0  0
  2  3  1  0  0  0
  3  4  1  0  0  0
  3 31  1  0  0  0
  4  5  2  0  0  0
  5 16  1  0  0  0
  5  6  1  0  0  0
 16 17  2  0  0  0
 16 18  1  0  0  0
 18 20  1  0  0  0
 20 21  1  0  0  0
 21 22  2  0  0  0
 22 23  1  0  0  0
 23 24  2  0  0  0
 24 25  1  0  0  0
 25 26  2  0  0  0
 26 27  1  0  0  0
 27 28  2  0  0  0
 28 29  1  0  0  0
 28 23  1  0  0  0
 29 21  1  0  0  0
  6  7  2  0  0  0
  6  1  1  0  0  0
 31 32  1  0  0  0
 31 33  1  0  0  0
  8 11  1  0  0  0
 18 19  1  0  0  0
 29 30  1  0  0  0
M  END
>  <minimizedAffinity>
-5.15751

>  <minimizedRMSD>
1.40506

$$$$
5351450 CHEMBL1574459 CSSS00132894128 ChemDiv-D103-1283 LN00728428 MCULE-9913996455 MolPort-000-521-273 PubChem-4901475 ZINC000005351450 ZINC05351450


 29 31  0  0  0  0  0  0  0  0999 V2000
   17.6527  -11.3793   13.4309 N   0  0  0  0  0  0  0  0  0  0  0  0
   18.2505  -10.2008   12.8807 C   0  0  0  0  0  0  0  0  0  0  0  0
   18.9988   -9.4784   13.5931 O   0  0  0  0  0  0  0  0  0  0  0  0
   17.1106  -11.9514   12.8409 H   0  0  0  0  0  0  0  0  0  0  0  0
   18.0007   -9.8278   11.4815 C   0  0  0  0  0  0  0  0  0  0  0  0
   16.8223  -10.2322   10.8409 C   0  0  0  0  0  0  0  0  0  0  0  0
   16.6070   -9.8650    9.5139 C   0  0  0  0  0  0  0  0  0  0  0  0
   15.5491  -10.2254    8.9315 O   0  0  0  0  0  0  0  0  0  0  0  0
   17.5737   -9.0997    8.8500 C   0  0  0  0  0  0  0  0  0  0  0  0
   17.4138   -8.6998    7.5161 C   0  0  0  0  0  0  0  0  0  0  0  0
   18.4036   -7.9360    6.8910 C   0  0  0  0  0  0  0  0  0  0  0  0
   18.2007   -7.4386    5.2256 Cl  0  0  0  0  0  0  0  0  0  0  0  0
   19.5554   -7.5686    7.5936 C   0  0  0  0  0  0  0  0  0  0  0  0
   19.7228   -7.9632    8.9244 C   0  0  0  0  0  0  0  0  0  0  0  0
   18.7385   -8.7271    9.5579 C   0  0  0  0  0  0  0  0  0  0  0  0
   18.9024   -9.0999   10.8239 O   0  0  0  0  0  0  0  0  0  0  0  0
   17.8112  -11.7695   14.8254 C   0  0  0  0  0  0  0  0  0  0  0  0
   15.8103   -8.9709   17.3907 C   0  0  0  0  0  0  0  0  0  0  0  0
   15.4434   -9.0739   16.0440 C   0  0  0  0  0  0  0  0  0  0  0  0
   16.0912   -9.9889   15.2089 C   0  0  0  0  0  0  0  0  0  0  0  0
   17.1080  -10.8043   15.7184 C   0  0  0  0  0  0  0  0  0  0  0  0
   17.4796  -10.6973   17.0626 C   0  0  0  0  0  0  0  0  0  0  0  0
   16.8318   -9.7820   17.8973 C   0  0  0  0  0  0  0  0  0  0  0  0
   16.1492   -7.1239   19.5312 N   0  0  0  0  0  0  0  0  0  0  0  0
   15.0057   -7.8145   18.4351 S   0  0  0  0  0  0  0  0  0  0  0  0
   13.9332   -8.5080   19.2271 O   0  0  0  0  0  0  0  0  0  0  0  0
   14.3906   -6.7265   17.6016 O   0  0  0  0  0  0  0  0  0  0  0  0
   15.6771   -6.4522   20.1365 H   0  0  0  0  0  0  0  0  0  0  0  0
   16.8822   -6.6497   19.0037 H   0  0  0  0  0  0  0  0  0  0  0  0
 24 25  1  0  0  0
 25 26  2  0  0  0
 25 27  2  0  0  0
 25 18  1  0  0  0
 18 19  2  0  0  0
 19 20  1  0  0  0
 20 21  2  0  0  0
 21 17  1  0  0  0
 21 22  1  0  0  0
 17  1  1  0  0  0
  1  2  1  0  0  0
  2  3  2  0  0  0
  2  5  1  0  0  0
  5  6  2  0  0  0
  6  7  1  0  0  0
  7  8  2  0  0  0
  7  9  1  0  0  0
  9 10  2  0  0  0
 10 11  1  0  0  0
 11 12  1  0  0  0
 11 13  2  0  0  0
 13 14  1  0  0  0
 14 15  2  0  0  0
 15 16  1  0  0  0
 15  9  1  0  0  0
 16  5  1  0  0  0
 22 23  2  0  0  0
 23 18  1  0  0  0
 24 28  1  0  0  0
 24 29  1  0  0  0
  1  4  1  0  0  0
M  END
>  <minimizedAffinity>
-5.15560

>  <minimizedRMSD>
1.31233

$$$$
CSSS00629210597 MCULE-1269102297 MolPort-047-463-397 PubChem-154835932 Z2077157563


 34 38  0  0  0  0  0  0  0  0999 V2000
   17.4616   -9.5719   12.2054 C   0  0  0  0  0  0  0  0  0  0  0  0
   18.5597  -10.1355   12.4627 O   0  0  0  0  0  0  0  0  0  0  0  0
   16.6242   -9.0907   13.2653 N   0  0  0  0  0  0  0  0  0  0  0  0
   15.7473   -8.7278   13.0033 H   0  0  0  0  0  0  0  0  0  0  0  0
   14.2624  -10.4437   12.4180 C   0  0  0  0  0  0  0  0  0  0  0  0
   14.5543  -10.3070   10.9655 C   0  0  0  0  0  0  0  0  0  0  0  0
   13.6176  -10.4979   10.0061 N   0  0  0  0  0  0  0  0  0  0  0  0
   14.1637  -10.2009    8.8581 O   0  0  0  0  0  0  0  0  0  0  0  0
   15.4019   -9.8231    9.0407 C   0  0  0  0  0  0  0  0  0  0  0  0
   16.2637   -9.3926    8.0889 N   0  0  0  0  0  0  0  0  0  0  0  0
   17.5182   -8.9858    8.4551 C   0  0  0  0  0  0  0  0  0  0  0  0
   17.8988   -9.0291    9.8196 C   0  0  0  0  0  0  0  0  0  0  0  0
   17.0054   -9.4909   10.8065 C   0  0  0  0  0  0  0  0  0  0  0  0
   15.7299   -9.8803   10.3655 C   0  0  0  0  0  0  0  0  0  0  0  0
   18.4653   -8.5062    7.4259 C   0  0  0  0  0  0  0  0  0  0  0  0
   18.2961   -8.8798    6.0835 C   0  0  0  0  0  0  0  0  0  0  0  0
   19.1866   -8.4311    5.1040 C   0  0  0  0  0  0  0  0  0  0  0  0
   20.2556   -7.6040    5.4576 C   0  0  0  0  0  0  0  0  0  0  0  0
   20.4343   -7.2254    6.7904 C   0  0  0  0  0  0  0  0  0  0  0  0
   19.5437   -7.6742    7.7699 C   0  0  0  0  0  0  0  0  0  0  0  0
   16.9290   -9.0820   14.6663 C   0  0  0  0  0  0  0  0  0  0  0  0
   18.1317   -9.6510   15.0967 C   0  0  0  0  0  0  0  0  0  0  0  0
   18.4606   -9.6669   16.4547 C   0  0  0  0  0  0  0  0  0  0  0  0
   17.5851   -9.1134   17.3922 C   0  0  0  0  0  0  0  0  0  0  0  0
   16.3755   -8.5413   16.9770 C   0  0  0  0  0  0  0  0  0  0  0  0
   16.0536   -8.5299   15.6134 C   0  0  0  0  0  0  0  0  0  0  0  0
   15.4513   -7.9586   17.9624 C   0  0  0  0  0  0  0  0  0  0  0  0
   14.2676   -7.3993   17.6390 N   0  0  0  0  0  0  0  0  0  0  0  0
   13.7182   -6.9886   18.7687 N   0  0  0  0  0  0  0  0  0  0  0  0
   14.5855   -7.3117   19.7419 C   0  0  0  0  0  0  0  0  0  0  0  0
   14.3808   -7.0648   20.9588 O   0  0  0  0  0  0  0  0  0  0  0  0
   15.6943   -7.9248   19.2896 N   0  0  0  0  0  0  0  0  0  0  0  0
   12.8497   -6.5375   18.8752 H   0  0  0  0  0  0  0  0  0  0  0  0
   16.4728   -8.2587   19.7913 H   0  0  0  0  0  0  0  0  0  0  0  0
  5  6  1  0  0  0
  6  7  2  0  0  0
  7  8  1  0  0  0
  8  9  1  0  0  0
  9 10  2  0  0  0
 10 11  1  0  0  0
 11 12  2  0  0  0
 12 13  1  0  0  0
 13  1  1  0  0  0
  1  2  2  0  0  0
  1  3  1  0  0  0
  3 21  1  0  0  0
 21 22  2  0  0  0
 22 23  1  0  0  0
 23 24  2  0  0  0
 24 25  1  0  0  0
 25 26  2  0  0  0
 25 27  1  0  0  0
 27 28  2  0  0  0
 28 29  1  0  0  0
 29 30  1  0  0  0
 30 31  2  0  0  0
 30 32  1  0  0  0
 13 14  2  0  0  0
 11 15  1  0  0  0
 15 16  2  0  0  0
 16 17  1  0  0  0
 17 18  2  0  0  0
 18 19  1  0  0  0
 19 20  2  0  0  0
 14  6  1  0  0  0
 20 15  1  0  0  0
 14  9  1  0  0  0
 26 21  1  0  0  0
 32 27  1  0  0  0
  3  4  1  0  0  0
 29 33  1  0  0  0
 32 34  1  0  0  0
M  END
>  <minimizedAffinity>
-5.15092

>  <minimizedRMSD>
2.66442

$$$$
CSC026762183 13119988 CSSS00026762183 MCULE-7815472936 MolPort-005-808-840 PubChem-16321552 Z62866493 ZINC000013119988


 35 38  0  0  0  0  0  0  0  0999 V2000
   17.3530  -10.5518   15.8123 C   0  0  0  0  0  0  0  0  0  0  0  0
   16.8334   -9.4163   15.1650 C   0  0  0  0  0  0  0  0  0  0  0  0
   16.9496   -9.2927   13.7758 C   0  0  0  0  0  0  0  0  0  0  0  0
   17.5725  -10.2919   13.0167 C   0  0  0  0  0  0  0  0  0  0  0  0
   18.0807  -11.4254   13.6630 C   0  0  0  0  0  0  0  0  0  0  0  0
   17.9733  -11.5541   15.0489 C   0  0  0  0  0  0  0  0  0  0  0  0
   17.6903  -10.1520   11.5551 C   0  0  0  0  0  0  0  0  0  0  0  0
   16.5368   -9.8275   10.7712 N   0  0  0  0  0  0  0  0  0  0  0  0
   18.8076  -10.3208   10.9938 O   0  0  0  0  0  0  0  0  0  0  0  0
   15.6736   -9.7134   11.2308 H   0  0  0  0  0  0  0  0  0  0  0  0
   16.5816   -9.6584    9.3252 C   0  0  0  0  0  0  0  0  0  0  0  0
   17.6005   -8.6307    8.9534 C   0  0  0  0  0  0  0  0  0  0  0  0
   18.2162   -8.5531    7.7646 N   0  0  0  0  0  0  0  0  0  0  0  0
   19.0471   -7.5126    7.8998 C   0  0  0  0  0  0  0  0  0  0  0  0
   19.8754   -7.1111    6.8558 C   0  0  0  0  0  0  0  0  0  0  0  0
   19.7972   -7.8465    5.6598 C   0  0  0  0  0  0  0  0  0  0  0  0
   18.9126   -8.9389    5.5429 C   0  0  0  0  0  0  0  0  0  0  0  0
   18.1038   -9.2928    6.6336 C   0  0  0  0  0  0  0  0  0  0  0  0
   18.9606   -6.9572    9.1226 N   0  0  0  0  0  0  0  0  0  0  0  0
   18.0488   -7.6644    9.7870 N   0  0  0  0  0  0  0  0  0  0  0  0
   16.0418   -8.1381   16.0789 S   0  0  0  0  0  0  0  0  0  0  0  0
   16.7170   -6.8236   15.7998 O   0  0  0  0  0  0  0  0  0  0  0  0
   14.5998   -8.0462   15.6615 O   0  0  0  0  0  0  0  0  0  0  0  0
   16.1533   -8.4981   17.7679 N   0  0  0  0  0  0  0  0  0  0  0  0
   16.9511   -8.0104   18.1754 H   0  0  0  0  0  0  0  0  0  0  0  0
   14.9224   -8.0466   18.3970 C   0  0  0  0  0  0  0  0  0  0  0  0
   15.1794   -7.6863   19.8187 C   0  0  0  0  0  0  0  0  0  0  0  0
   16.3408   -6.9884   20.1745 C   0  0  0  0  0  0  0  0  0  0  0  0
   16.5698   -6.6456   21.5104 C   0  0  0  0  0  0  0  0  0  0  0  0
   15.6372   -6.9964   22.4916 C   0  0  0  0  0  0  0  0  0  0  0  0
   15.9237   -6.5675   24.1651 Cl  0  0  0  0  0  0  0  0  0  0  0  0
   14.4737   -7.6858   22.1365 C   0  0  0  0  0  0  0  0  0  0  0  0
   14.2444   -8.0289   20.8004 C   0  0  0  0  0  0  0  0  0  0  0  0
   18.0469  -11.5613   17.9657 C   0  0  0  0  0  0  0  0  0  0  0  0
   17.2465  -10.6677   17.2031 O   0  0  0  0  0  0  0  0  0  0  0  0
 34 35  1  0  0  0
 35  1  1  0  0  0
  1  2  2  0  0  0
  2 21  1  0  0  0
 21 24  1  0  0  0
 24 26  1  0  0  0
 26 27  1  0  0  0
 27 28  2  0  0  0
 28 29  1  0  0  0
 29 30  2  0  0  0
 30 31  1  0  0  0
 30 32  1  0  0  0
 32 33  2  0  0  0
 21 22  2  0  0  0
 21 23  2  0  0  0
  2  3  1  0  0  0
  3  4  2  0  0  0
  4  7  1  0  0  0
  7  8  1  0  0  0
  8 11  1  0  0  0
 11 12  1  0  0  0
 12 13  1  0  0  0
 13 14  1  0  0  0
 14 15  1  0  0  0
 15 16  2  0  0  0
 16 17  1  0  0  0
 17 18  2  0  0  0
 14 19  2  0  0  0
 19 20  1  0  0  0
  7  9  2  0  0  0
  4  5  1  0  0  0
  5  6  2  0  0  0
  6  1  1  0  0  0
 33 27  1  0  0  0
 20 12  2  0  0  0
 18 13  1  0  0  0
 24 25  1  0  0  0
  8 10  1  0  0  0
M  END
>  <minimizedAffinity>
-5.13220

>  <minimizedRMSD>
2.26357

$$$$
CSSS03437857011 MolPort-047-841-106 Z4918308345


 36 40  0  0  0  0  0  0  0  0999 V2000
   14.3660   -9.4709   11.0147 N   0  0  0  0  0  0  0  0  0  0  0  0
   15.4338   -9.7844   11.9023 C   0  0  0  0  0  0  0  0  0  0  0  0
   15.2444  -10.2373   13.1536 N   0  0  0  0  0  0  0  0  0  0  0  0
   16.4350  -10.4304   13.7019 N   0  0  0  0  0  0  0  0  0  0  0  0
   17.3839  -10.1034   12.8017 C   0  0  0  0  0  0  0  0  0  0  0  0
   16.7831   -9.6861   11.6230 C   0  0  0  0  0  0  0  0  0  0  0  0
   13.4329   -9.5752   11.3109 H   0  0  0  0  0  0  0  0  0  0  0  0
   14.5605   -9.1497   10.1046 H   0  0  0  0  0  0  0  0  0  0  0  0
   14.3747  -10.3972   13.5863 H   0  0  0  0  0  0  0  0  0  0  0  0
   17.4297   -9.2347   10.3759 C   0  0  0  0  0  0  0  0  0  0  0  0
   17.0022   -9.6049    9.1426 N   0  0  0  0  0  0  0  0  0  0  0  0
   17.7721   -9.0571    8.1699 C   0  0  0  0  0  0  0  0  0  0  0  0
   17.5728   -9.2583    6.8042 C   0  0  0  0  0  0  0  0  0  0  0  0
   18.4450   -8.6301    5.8993 C   0  0  0  0  0  0  0  0  0  0  0  0
   19.4959   -7.8164    6.3667 C   0  0  0  0  0  0  0  0  0  0  0  0
   19.6874   -7.6207    7.7441 C   0  0  0  0  0  0  0  0  0  0  0  0
   18.8085   -8.2547    8.6180 C   0  0  0  0  0  0  0  0  0  0  0  0
   18.7813   -8.2115   10.2934 S   0  0  0  0  0  0  0  0  0  0  0  0
   18.8488  -10.1728   13.1112 C   0  0  0  0  0  0  0  0  0  0  0  0
   19.2918   -9.1497   14.1567 C   0  0  0  0  0  0  0  0  0  0  0  0
   19.1192   -9.6542   15.5813 C   0  0  0  0  0  0  0  0  0  0  0  0
   18.1111   -8.8536   16.2564 N   0  0  0  0  0  0  0  0  0  0  0  0
   16.9718   -9.4383   16.8886 C   0  0  0  0  0  0  0  0  0  0  0  0
   16.9119  -10.6858   17.0618 O   0  0  0  0  0  0  0  0  0  0  0  0
   18.2173   -7.8751   16.2786 H   0  0  0  0  0  0  0  0  0  0  0  0
   15.8511   -8.5865   17.2995 C   0  0  0  0  0  0  0  0  0  0  0  0
   14.8234   -8.1536   16.4679 C   0  0  0  0  0  0  0  0  0  0  0  0
   13.8553   -7.3972   17.1428 C   0  0  0  0  0  0  0  0  0  0  0  0
   14.1318   -7.2508   18.4972 C   0  0  0  0  0  0  0  0  0  0  0  0
   15.5640   -8.0497   18.8666 S   0  0  0  0  0  0  0  0  0  0  0  0
   13.2967   -6.5240   19.4578 C   0  0  0  0  0  0  0  0  0  0  0  0
   12.6785   -5.3584   19.1972 N   0  0  0  0  0  0  0  0  0  0  0  0
   12.0397   -5.0624   20.3173 N   0  0  0  0  0  0  0  0  0  0  0  0
   12.2579   -6.0053   21.2204 N   0  0  0  0  0  0  0  0  0  0  0  0
   13.0445   -6.9396   20.7117 N   0  0  0  0  0  0  0  0  0  0  0  0
   11.8901   -6.0106   22.1336 H   0  0  0  0  0  0  0  0  0  0  0  0
  1  2  1  0  0  0
  2  3  1  0  0  0
  3  4  1  0  0  0
  4  5  2  0  0  0
  5 19  1  0  0  0
 19 20  1  0  0  0
 20 21  1  0  0  0
 21 22  1  0  0  0
 22 23  1  0  0  0
 23 24  2  0  0  0
 23 26  1  0  0  0
 26 27  2  0  0  0
 27 28  1  0  0  0
 28 29  2  0  0  0
 29 30  1  0  0  0
 29 31  1  0  0  0
 31 32  1  0  0  0
 32 33  2  0  0  0
 33 34  1  0  0  0
 34 35  1  0  0  0
  5  6  1  0  0  0
  6 10  1  0  0  0
 10 11  2  0  0  0
 11 12  1  0  0  0
 12 13  2  0  0  0
 13 14  1  0  0  0
 14 15  2  0  0  0
 15 16  1  0  0  0
 16 17  2  0  0  0
 17 18  1  0  0  0
  6  2  2  0  0  0
 18 10  1  0  0  0
 30 26  1  0  0  0
 35 31  2  0  0  0
 17 12  1  0  0  0
  1  7  1  0  0  0
  1  8  1  0  0  0
  3  9  1  0  0  0
 22 25  1  0  0  0
 34 36  1  0  0  0
M  END
>  <minimizedAffinity>
-5.13142

>  <minimizedRMSD>
3.92107

$$$$
72454775 CSSS00160043548 MCULE-7688331457 MolPort-021-766-201 PubChem-70759268 ZINC000072454775 ZINC72454775


 26 28  0  0  0  0  0  0  0  0999 V2000
   15.3222  -10.0285    9.9573 C   0  0  0  0  0  0  0  0  0  0  0  0
   15.7965   -9.4329    8.8226 N   0  0  0  0  0  0  0  0  0  0  0  0
   17.0772   -8.9892    8.8076 C   0  0  0  0  0  0  0  0  0  0  0  0
   17.7565   -8.3663    7.7912 C   0  0  0  0  0  0  0  0  0  0  0  0
   17.2571   -8.0137    6.4328 C   0  0  0  0  0  0  0  0  0  0  0  0
   19.0185   -8.1446    8.3333 C   0  0  0  0  0  0  0  0  0  0  0  0
   20.1629   -7.4889    7.6437 C   0  0  0  0  0  0  0  0  0  0  0  0
   19.0765   -8.6141    9.6033 N   0  0  0  0  0  0  0  0  0  0  0  0
   17.8833   -9.1228    9.8679 N   0  0  0  0  0  0  0  0  0  0  0  0
   17.4766   -9.7084   11.0216 C   0  0  0  0  0  0  0  0  0  0  0  0
   16.1551  -10.1837   11.0831 C   0  0  0  0  0  0  0  0  0  0  0  0
   13.3570  -10.3941   11.4043 C   0  0  0  0  0  0  0  0  0  0  0  0
   13.9235  -10.5386   10.0048 C   0  0  0  0  0  0  0  0  0  0  0  0
   18.3738   -9.8319   12.1288 N   0  0  0  0  0  0  0  0  0  0  0  0
   19.1632   -9.2447   12.1637 H   0  0  0  0  0  0  0  0  0  0  0  0
   18.1691  -10.7885   13.2051 C   0  0  0  0  0  0  0  0  0  0  0  0
   17.9826  -10.0613   14.4889 C   0  0  0  0  0  0  0  0  0  0  0  0
   18.9812   -9.8041   15.4076 C   0  0  0  0  0  0  0  0  0  0  0  0
   18.3643   -9.0919   16.4243 C   0  0  0  0  0  0  0  0  0  0  0  0
   17.0411   -8.9713   16.0373 C   0  0  0  0  0  0  0  0  0  0  0  0
   16.8421   -9.5546   14.8819 O   0  0  0  0  0  0  0  0  0  0  0  0
   15.9902   -8.2882   16.7985 C   0  0  0  0  0  0  0  0  0  0  0  0
   15.0691   -7.6841   16.1857 O   0  0  0  0  0  0  0  0  0  0  0  0
   16.0134   -8.3087   18.2272 N   0  0  0  0  0  0  0  0  0  0  0  0
   14.9943   -7.6462   19.0233 C   0  0  0  0  0  0  0  0  0  0  0  0
   16.7419   -8.7863   18.6860 H   0  0  0  0  0  0  0  0  0  0  0  0
 12 13  1  0  0  0
 13  1  1  0  0  0
  1  2  2  0  0  0
  2  3  1  0  0  0
  3  4  2  0  0  0
  4  5  1  0  0  0
  4  6  1  0  0  0
  6  7  1  0  0  0
  6  8  2  0  0  0
  8  9  1  0  0  0
  9 10  1  0  0  0
  9  3  1  0  0  0
 10 14  1  0  0  0
 10 11  2  0  0  0
 14 16  1  0  0  0
 16 17  1  0  0  0
 17 18  2  0  0  0
 18 19  1  0  0  0
 19 20  2  0  0  0
 20 21  1  0  0  0
 20 22  1  0  0  0
 21 17  1  0  0  0
 22 23  2  0  0  0
 22 24  1  0  0  0
 24 25  1  0  0  0
 11  1  1  0  0  0
 14 15  1  0  0  0
 24 26  1  0  0  0
M  END
>  <minimizedAffinity>
-5.07671

>  <minimizedRMSD>
1.73765

$$$$
CSSS03505155162


 27 30  0  0  0  0  0  0  0  0999 V2000
   16.2920   -9.9976   11.2900 C   0  0  0  0  0  0  0  0  0  0  0  0
   15.0456  -10.4947   11.0188 N   0  0  0  0  0  0  0  0  0  0  0  0
   14.4934  -10.4179    9.7665 C   0  0  0  0  0  0  0  0  0  0  0  0
   15.1795   -9.8322    8.7412 N   0  0  0  0  0  0  0  0  0  0  0  0
   16.4125   -9.3370    8.9998 C   0  0  0  0  0  0  0  0  0  0  0  0
   16.9788   -9.4011   10.2272 C   0  0  0  0  0  0  0  0  0  0  0  0
   18.1844   -8.8136   10.2044 N   0  0  0  0  0  0  0  0  0  0  0  0
   18.2973   -8.4229    8.9058 C   0  0  0  0  0  0  0  0  0  0  0  0
   17.2177   -8.7136    8.1302 N   0  0  0  0  0  0  0  0  0  0  0  0
   17.0677   -8.5168    7.1774 H   0  0  0  0  0  0  0  0  0  0  0  0
   18.1972   -9.3646   15.0264 C   0  0  0  0  0  0  0  0  0  0  0  0
   18.9677   -9.8467   13.7920 C   0  0  0  0  0  0  0  0  0  0  0  0
   18.1096  -10.7410   12.9010 C   0  0  0  0  0  0  0  0  0  0  0  0
   16.8332  -10.0877   12.6218 N   0  0  0  0  0  0  0  0  0  0  0  0
   16.0214   -9.6845   13.7665 C   0  0  0  0  0  0  0  0  0  0  0  0
   16.8294   -8.7659   14.6798 C   0  0  0  0  0  0  0  0  0  0  0  0
   17.9692  -12.4996   14.9227 F   0  0  0  0  0  0  0  0  0  0  0  0
   18.0481  -11.7446   16.0446 C   0  0  0  0  0  0  0  0  0  0  0  0
   18.0428  -12.2118   17.3400 C   0  0  0  0  0  0  0  0  0  0  0  0
   18.1375  -11.1433   18.1589 N   0  0  0  0  0  0  0  0  0  0  0  0
   18.2015  -10.0342   17.4358 N   0  0  0  0  0  0  0  0  0  0  0  0
   18.1487  -10.3731   16.1369 C   0  0  0  0  0  0  0  0  0  0  0  0
   18.1563  -11.1817   19.1425 H   0  0  0  0  0  0  0  0  0  0  0  0
   19.4737   -7.6552    8.3950 C   0  0  0  0  0  0  0  0  0  0  0  0
   20.5645   -7.8578    9.2206 F   0  0  0  0  0  0  0  0  0  0  0  0
   19.7926   -8.0746    7.1163 F   0  0  0  0  0  0  0  0  0  0  0  0
   19.1655   -6.3083    8.3693 F   0  0  0  0  0  0  0  0  0  0  0  0
 17 18  1  0  0  0
 18 19  2  0  0  0
 19 20  1  0  0  0
 20 21  1  0  0  0
 21 22  2  0  0  0
 22 11  1  0  0  0
 11 12  1  0  0  0
 12 13  1  0  0  0
 13 14  1  0  0  0
 14 15  1  0  0  0
 15 16  1  0  0  0
 14  1  1  0  0  0
  1  2  2  0  0  0
  2  3  1  0  0  0
  3  4  2  0  0  0
  4  5  1  0  0  0
  5  6  2  0  0  0
  6  7  1  0  0  0
  7  8  2  0  0  0
  8  9  1  0  0  0
  8 24  1  0  0  0
 24 25  1  0  0  0
 24 26  1  0  0  0
 24 27  1  0  0  0
 22 18  1  0  0  0
 16 11  1  0  0  0
  6  1  1  0  0  0
  9  5  1  0  0  0
 20 23  1  0  0  0
  9 10  1  0  0  0
M  END
>  <minimizedAffinity>
-5.06406

>  <minimizedRMSD>
2.32903

$$$$
CSC026885346 11966601 CSSS00026885346 MCULE-5320092525 MolPort-005-674-085 PubChem-24231356 Z225636302 ZINC000011966601 ZINC11966601


 30 33  0  0  0  0  0  0  0  0999 V2000
   16.6080   -9.0532   12.8060 O   0  0  0  0  0  0  0  0  0  0  0  0
   17.3267   -9.8649   12.1644 C   0  0  0  0  0  0  0  0  0  0  0  0
   18.6433  -10.1894   12.6167 N   0  0  0  0  0  0  0  0  0  0  0  0
   19.1879  -10.8064   12.0763 H   0  0  0  0  0  0  0  0  0  0  0  0
   16.8188  -10.4558   10.8942 C   0  0  0  0  0  0  0  0  0  0  0  0
   16.1564   -9.3876   10.0311 C   0  0  0  0  0  0  0  0  0  0  0  0
   16.9041   -9.1738    8.7951 N   0  0  0  0  0  0  0  0  0  0  0  0
   16.5254   -9.8548    7.6673 C   0  0  0  0  0  0  0  0  0  0  0  0
   17.1917   -9.6816    6.4909 N   0  0  0  0  0  0  0  0  0  0  0  0
   18.2338   -8.8199    6.4577 C   0  0  0  0  0  0  0  0  0  0  0  0
   18.6408   -8.1114    7.5608 C   0  0  0  0  0  0  0  0  0  0  0  0
   19.7348   -7.2724    7.3185 C   0  0  0  0  0  0  0  0  0  0  0  0
   20.1788   -7.3398    5.9923 C   0  0  0  0  0  0  0  0  0  0  0  0
   19.2007   -8.4413    5.1496 S   0  0  0  0  0  0  0  0  0  0  0  0
   17.9540   -8.2908    8.7607 C   0  0  0  0  0  0  0  0  0  0  0  0
   18.2995   -7.6548    9.7946 O   0  0  0  0  0  0  0  0  0  0  0  0
   19.2146   -9.6475   13.8419 C   0  0  0  0  0  0  0  0  0  0  0  0
   18.4855  -10.1713   15.0320 C   0  0  0  0  0  0  0  0  0  0  0  0
   18.4374  -11.5473   15.2766 C   0  0  0  0  0  0  0  0  0  0  0  0
   17.7401  -12.0359   16.3846 C   0  0  0  0  0  0  0  0  0  0  0  0
   17.0872  -11.1496   17.2464 C   0  0  0  0  0  0  0  0  0  0  0  0
   17.1259   -9.7714   17.0078 C   0  0  0  0  0  0  0  0  0  0  0  0
   17.8285   -9.2878   15.8938 C   0  0  0  0  0  0  0  0  0  0  0  0
   16.4383   -8.8947   17.9103 N   0  0  0  0  0  0  0  0  0  0  0  0
   15.3757   -7.9871   17.5832 C   0  0  0  0  0  0  0  0  0  0  0  0
   14.9689   -7.8640   16.3964 O   0  0  0  0  0  0  0  0  0  0  0  0
   16.7248   -8.9176   18.8519 H   0  0  0  0  0  0  0  0  0  0  0  0
   14.7763   -7.1391   18.6575 C   0  0  0  0  0  0  0  0  0  0  0  0
   13.5614   -7.8330   19.2470 C   0  0  0  0  0  0  0  0  0  0  0  0
   14.8748   -7.8507   19.9949 C   0  0  0  0  0  0  0  0  0  0  0  0
  1  2  2  0  0  0
  2  5  1  0  0  0
  2  3  1  0  0  0
  5  6  1  0  0  0
  6  7  1  0  0  0
  7  8  1  0  0  0
  8  9  2  0  0  0
  9 10  1  0  0  0
 10 11  2  0  0  0
 11 12  1  0  0  0
 11 15  1  0  0  0
 12 13  2  0  0  0
 13 14  1  0  0  0
 14 10  1  0  0  0
 15 16  2  0  0  0
 15  7  1  0  0  0
  3 17  1  0  0  0
 17 18  1  0  0  0
 18 19  2  0  0  0
 19 20  1  0  0  0
 20 21  2  0  0  0
 21 22  1  0  0  0
 22 24  1  0  0  0
 22 23  2  0  0  0
 24 25  1  0  0  0
 25 26  2  0  0  0
 25 28  1  0  0  0
 28 29  1  0  0  0
 29 30  1  0  0  0
 30 28  1  0  0  0
 23 18  1  0  0  0
  3  4  1  0  0  0
 24 27  1  0  0  0
M  END
>  <minimizedAffinity>
-5.04769

>  <minimizedRMSD>
1.65361

$$$$
CSSS01173106332


 30 33  0  0  0  0  0  0  0  0999 V2000
   16.0827   -9.9533   13.6180 N   0  0  0  0  0  0  0  0  0  0  0  0
   16.9599   -9.8614   12.4876 C   0  0  0  0  0  0  0  0  0  0  0  0
   18.2060   -9.7671   12.6566 O   0  0  0  0  0  0  0  0  0  0  0  0
   15.1173  -10.0254   13.4389 H   0  0  0  0  0  0  0  0  0  0  0  0
   16.3948   -9.8777   11.1228 C   0  0  0  0  0  0  0  0  0  0  0  0
   15.1298  -10.4506   10.8780 C   0  0  0  0  0  0  0  0  0  0  0  0
   14.5950  -10.4607    9.5706 C   0  0  0  0  0  0  0  0  0  0  0  0
   15.2940   -9.9173    8.5298 N   0  0  0  0  0  0  0  0  0  0  0  0
   16.5097   -9.3703    8.7747 C   0  0  0  0  0  0  0  0  0  0  0  0
   17.0617   -9.3389   10.0155 C   0  0  0  0  0  0  0  0  0  0  0  0
   18.2592   -8.7356    9.9622 N   0  0  0  0  0  0  0  0  0  0  0  0
   18.3763   -8.4289    8.6429 C   0  0  0  0  0  0  0  0  0  0  0  0
   17.3169   -8.7949    7.8742 N   0  0  0  0  0  0  0  0  0  0  0  0
   17.1788   -8.6696    6.9075 H   0  0  0  0  0  0  0  0  0  0  0  0
   19.5516   -7.6996    8.0915 C   0  0  0  0  0  0  0  0  0  0  0  0
   19.1878   -7.0611    6.7655 C   0  0  0  0  0  0  0  0  0  0  0  0
   19.0884   -8.1384    5.7050 C   0  0  0  0  0  0  0  0  0  0  0  0
   20.3254   -7.2704    5.7882 C   0  0  0  0  0  0  0  0  0  0  0  0
   18.1227  -11.2167   17.9514 C   0  0  0  0  0  0  0  0  0  0  0  0
   17.3913  -10.5018   16.8676 C   0  0  0  0  0  0  0  0  0  0  0  0
   17.2567  -10.9547   15.5681 C   0  0  0  0  0  0  0  0  0  0  0  0
   16.5015   -9.9483   14.9862 C   0  0  0  0  0  0  0  0  0  0  0  0
   16.2065   -8.9724   15.8675 N   0  0  0  0  0  0  0  0  0  0  0  0
   16.7621   -9.3208   17.0129 N   0  0  0  0  0  0  0  0  0  0  0  0
   16.6446   -8.5431   18.2380 C   0  0  0  0  0  0  0  0  0  0  0  0
   15.3017   -7.9022   18.3105 C   0  0  0  0  0  0  0  0  0  0  0  0
   14.5929   -7.8727   19.5435 N   0  0  0  0  0  0  0  0  0  0  0  0
   14.7784   -7.4188   17.2735 O   0  0  0  0  0  0  0  0  0  0  0  0
   15.0016   -8.2507   20.3555 H   0  0  0  0  0  0  0  0  0  0  0  0
   13.6935   -7.4744   19.5848 H   0  0  0  0  0  0  0  0  0  0  0  0
 19 20  1  0  0  0
 20 21  2  0  0  0
 21 22  1  0  0  0
 22  1  1  0  0  0
  1  2  1  0  0  0
  2  3  2  0  0  0
  2  5  1  0  0  0
  5  6  2  0  0  0
  6  7  1  0  0  0
  7  8  2  0  0  0
  8  9  1  0  0  0
  9 10  2  0  0  0
 10 11  1  0  0  0
 11 12  2  0  0  0
 12 15  1  0  0  0
 15 16  1  0  0  0
 16 17  1  0  0  0
 17 18  1  0  0  0
 12 13  1  0  0  0
 22 23  2  0  0  0
 23 24  1  0  0  0
 24 25  1  0  0  0
 25 26  1  0  0  0
 26 27  1  0  0  0
 26 28  2  0  0  0
 24 20  1  0  0  0
 10  5  1  0  0  0
 18 16  1  0  0  0
 13  9  1  0  0  0
  1  4  1  0  0  0
 13 14  1  0  0  0
 27 29  1  0  0  0
 27 30  1  0  0  0
M  END
>  <minimizedAffinity>
-5.04428

>  <minimizedRMSD>
2.11569

$$$$
CSSS00106912467 PubChem-78503228 Z74460971


 29 32  0  0  0  0  0  0  0  0999 V2000
   17.5951  -10.0699   12.5015 N   0  0  0  0  0  0  0  0  0  0  0  0
   17.5481   -8.9745   13.4655 C   0  0  0  0  0  0  0  0  0  0  0  0
   18.8425   -8.9286   14.2749 C   0  0  0  0  0  0  0  0  0  0  0  0
   19.1741  -10.2925   14.8869 C   0  0  0  0  0  0  0  0  0  0  0  0
   19.1842  -11.3951   13.8244 C   0  0  0  0  0  0  0  0  0  0  0  0
   17.8929  -11.4085   13.0062 C   0  0  0  0  0  0  0  0  0  0  0  0
   19.6363   -8.6236   10.8755 C   0  0  0  0  0  0  0  0  0  0  0  0
   18.5636   -8.8402    9.8611 C   0  0  0  0  0  0  0  0  0  0  0  0
   18.6837   -8.4118    8.5362 C   0  0  0  0  0  0  0  0  0  0  0  0
   17.2556   -8.7309    7.6920 S   0  0  0  0  0  0  0  0  0  0  0  0
   16.4827   -9.4202    9.0103 C   0  0  0  0  0  0  0  0  0  0  0  0
   15.2126   -9.8865    9.0440 N   0  0  0  0  0  0  0  0  0  0  0  0
   14.7276  -10.3874   10.2128 C   0  0  0  0  0  0  0  0  0  0  0  0
   15.5140  -10.4226   11.3279 N   0  0  0  0  0  0  0  0  0  0  0  0
   16.7999   -9.9628   11.3175 C   0  0  0  0  0  0  0  0  0  0  0  0
   17.3088   -9.4271   10.1211 C   0  0  0  0  0  0  0  0  0  0  0  0
   19.8722   -7.7392    7.9416 C   0  0  0  0  0  0  0  0  0  0  0  0
   18.2853  -10.6260   16.0445 C   0  0  0  0  0  0  0  0  0  0  0  0
   18.2162  -11.8205   16.4410 O   0  0  0  0  0  0  0  0  0  0  0  0
   17.5422   -9.6222   16.6739 O   0  0  0  0  0  0  0  0  0  0  0  0
   16.1228   -9.6595   16.7571 C   0  0  0  0  0  0  0  0  0  0  0  0
   15.5385   -9.8088   15.3657 C   0  0  0  0  0  0  0  0  0  0  0  0
   15.6069   -8.4128   17.3994 C   0  0  0  0  0  0  0  0  0  0  0  0
   15.1481   -7.4761   16.6899 O   0  0  0  0  0  0  0  0  0  0  0  0
   15.6549   -8.2882   18.8207 N   0  0  0  0  0  0  0  0  0  0  0  0
   16.0102   -9.0360   19.3533 H   0  0  0  0  0  0  0  0  0  0  0  0
   15.1956   -7.0917   19.5058 C   0  0  0  0  0  0  0  0  0  0  0  0
   15.2191   -7.3320   21.0013 C   0  0  0  0  0  0  0  0  0  0  0  0
   13.9107   -7.4038   20.2433 C   0  0  0  0  0  0  0  0  0  0  0  0
  7  8  1  0  0  0
  8  9  2  0  0  0
  9 10  1  0  0  0
  9 17  1  0  0  0
 10 11  1  0  0  0
 11 12  2  0  0  0
 12 13  1  0  0  0
 13 14  2  0  0  0
 14 15  1  0  0  0
 15 16  2  0  0  0
 15  1  1  0  0  0
 16  8  1  0  0  0
 16 11  1  0  0  0
  1  2  1  0  0  0
  2  3  1  0  0  0
  3  4  1  0  0  0
  4  5  1  0  0  0
  4 18  1  0  0  0
  5  6  1  0  0  0
  6  1  1  0  0  0
 18 19  2  0  0  0
 18 20  1  0  0  0
 21 20  1  0  0  0
 21 22  1  0  0  0
 21 23  1  0  0  0
 23 24  2  0  0  0
 23 25  1  0  0  0
 25 27  1  0  0  0
 27 28  1  0  0  0
 28 29  1  0  0  0
 29 27  1  0  0  0
 25 26  1  0  0  0
M  END
>  <minimizedAffinity>
-5.03123

>  <minimizedRMSD>
2.45219

$$$$
CSSS00159811131 MCULE-4039850856 MolPort-020-226-114 PubChem-56912426


 29 32  0  0  0  0  0  0  0  0999 V2000
   15.7482   -9.6493   13.4808 C   0  0  0  0  0  0  0  0  0  0  0  0
   16.9778  -10.4688   13.8677 C   0  0  0  0  0  0  0  0  0  0  0  0
   17.9064  -10.4616   12.6680 C   0  0  0  0  0  0  0  0  0  0  0  0
   17.1292   -9.9147   11.5767 N   0  0  0  0  0  0  0  0  0  0  0  0
   15.8047   -9.4835   11.9740 C   0  0  0  0  0  0  0  0  0  0  0  0
   17.6455   -9.7662   10.2483 C   0  0  0  0  0  0  0  0  0  0  0  0
   18.8082  -10.1656    9.9739 O   0  0  0  0  0  0  0  0  0  0  0  0
   15.8054   -8.2737   14.1316 C   0  0  0  0  0  0  0  0  0  0  0  0
   15.6562   -8.0777   17.9205 C   0  0  0  0  0  0  0  0  0  0  0  0
   15.3017   -7.9737   16.5673 C   0  0  0  0  0  0  0  0  0  0  0  0
   16.1951   -8.3745   15.5680 C   0  0  0  0  0  0  0  0  0  0  0  0
   17.4479   -8.8877   15.9184 C   0  0  0  0  0  0  0  0  0  0  0  0
   17.8086   -8.9948   17.2641 C   0  0  0  0  0  0  0  0  0  0  0  0
   16.9160   -8.5910   18.2613 C   0  0  0  0  0  0  0  0  0  0  0  0
   15.0133   -7.8889   20.3452 N   0  0  0  0  0  0  0  0  0  0  0  0
   14.7152   -7.6536   18.9719 C   0  0  0  0  0  0  0  0  0  0  0  0
   13.6370   -7.0775   18.6665 O   0  0  0  0  0  0  0  0  0  0  0  0
   14.3799   -7.6028   21.0425 H   0  0  0  0  0  0  0  0  0  0  0  0
   15.8527   -8.3376   20.5969 H   0  0  0  0  0  0  0  0  0  0  0  0
   16.8376   -9.1005    9.1828 C   0  0  0  0  0  0  0  0  0  0  0  0
   17.7073   -8.6577    8.1061 N   0  0  0  0  0  0  0  0  0  0  0  0
   17.6274   -9.1255    6.8622 N   0  0  0  0  0  0  0  0  0  0  0  0
   18.6192   -8.5057    6.2059 C   0  0  0  0  0  0  0  0  0  0  0  0
   18.9907   -8.6270    4.8707 C   0  0  0  0  0  0  0  0  0  0  0  0
   20.0882   -7.8551    4.4407 C   0  0  0  0  0  0  0  0  0  0  0  0
   20.7692   -7.0032    5.3429 C   0  0  0  0  0  0  0  0  0  0  0  0
   20.3628   -6.9102    6.6888 C   0  0  0  0  0  0  0  0  0  0  0  0
   19.2745   -7.6864    7.0735 C   0  0  0  0  0  0  0  0  0  0  0  0
   18.6983   -7.7860    8.2800 N   0  0  0  0  0  0  0  0  0  0  0  0
 15 16  1  0  0  0
 16 17  2  0  0  0
 16  9  1  0  0  0
  9 10  2  0  0  0
 10 11  1  0  0  0
 11  8  1  0  0  0
 11 12  2  0  0  0
  1  8  1  0  0  0
  1  2  1  0  0  0
  2  3  1  0  0  0
  3  4  1  0  0  0
  4  5  1  0  0  0
  4  6  1  0  0  0
  5  1  1  0  0  0
  6  7  2  0  0  0
  6 20  1  0  0  0
 20 21  1  0  0  0
 21 22  1  0  0  0
 22 23  2  0  0  0
 23 24  1  0  0  0
 24 25  2  0  0  0
 25 26  1  0  0  0
 26 27  2  0  0  0
 27 28  1  0  0  0
 28 29  2  0  0  0
 28 23  1  0  0  0
 29 21  1  0  0  0
 12 13  1  0  0  0
 13 14  2  0  0  0
 14  9  1  0  0  0
 15 18  1  0  0  0
 15 19  1  0  0  0
M  END
>  <minimizedAffinity>
-5.02362

>  <minimizedRMSD>
2.54798

$$$$
CSC027721186 24658635 CSSS00027721186 MCULE-8407824293 MolPort-030-006-657 PubChem-31981156 Z367550748 ZINC000024658635


 25 27  0  0  0  0  0  0  0  0999 V2000
   17.9499  -10.4308   12.4253 C   0  0  0  0  0  0  0  0  0  0  0  0
   18.0796  -10.0008   13.8434 C   0  0  0  0  0  0  0  0  0  0  0  0
   16.9496   -9.5818   14.5536 C   0  0  0  0  0  0  0  0  0  0  0  0
   17.0725   -9.1527   15.8798 C   0  0  0  0  0  0  0  0  0  0  0  0
   18.3300   -9.1442   16.4943 C   0  0  0  0  0  0  0  0  0  0  0  0
   19.4611   -9.5558   15.7830 C   0  0  0  0  0  0  0  0  0  0  0  0
   19.3366   -9.9810   14.4571 C   0  0  0  0  0  0  0  0  0  0  0  0
   15.6520   -8.6429   16.7735 S   0  0  0  0  0  0  0  0  0  0  0  0
   14.3877   -9.7993   16.5568 N   0  0  0  0  0  0  0  0  0  0  0  0
   15.9850   -8.5318   18.2348 O   0  0  0  0  0  0  0  0  0  0  0  0
   15.1956   -7.3004   16.2755 O   0  0  0  0  0  0  0  0  0  0  0  0
   14.6984  -10.7101   16.8951 H   0  0  0  0  0  0  0  0  0  0  0  0
   14.1542   -9.8661   15.5662 H   0  0  0  0  0  0  0  0  0  0  0  0
   17.6867   -9.2745   11.5842 N   0  0  0  0  0  0  0  0  0  0  0  0
   17.6980   -8.3772   11.9892 H   0  0  0  0  0  0  0  0  0  0  0  0
   18.7410   -7.9229    5.7735 C   0  0  0  0  0  0  0  0  0  0  0  0
   18.7032   -8.0676    7.2179 N   0  0  0  0  0  0  0  0  0  0  0  0
   17.8714   -8.8331    7.9305 C   0  0  0  0  0  0  0  0  0  0  0  0
   18.1506   -8.6973    9.2482 C   0  0  0  0  0  0  0  0  0  0  0  0
   17.4121   -9.4006   10.1887 C   0  0  0  0  0  0  0  0  0  0  0  0
   16.4141  -10.2167    9.7299 N   0  0  0  0  0  0  0  0  0  0  0  0
   16.1502  -10.3375    8.3885 C   0  0  0  0  0  0  0  0  0  0  0  0
   16.8845   -9.6395    7.4698 N   0  0  0  0  0  0  0  0  0  0  0  0
   19.2044   -7.8043    9.3330 C   0  0  0  0  0  0  0  0  0  0  0  0
   19.5166   -7.4388    8.0591 N   0  0  0  0  0  0  0  0  0  0  0  0
 16 17  1  0  0  0
 17 18  1  0  0  0
 18 19  2  0  0  0
 19 20  1  0  0  0
 20 21  2  0  0  0
 21 22  1  0  0  0
 22 23  2  0  0  0
 20 14  1  0  0  0
 14  1  1  0  0  0
  1  2  1  0  0  0
  2  3  2  0  0  0
  3  4  1  0  0  0
  4  8  1  0  0  0
  8  9  1  0  0  0
  8 10  2  0  0  0
  8 11  2  0  0  0
  4  5  2  0  0  0
  5  6  1  0  0  0
  6  7  2  0  0  0
 19 24  1  0  0  0
 24 25  2  0  0  0
 25 17  1  0  0  0
 23 18  1  0  0  0
  7  2  1  0  0  0
 14 15  1  0  0  0
  9 12  1  0  0  0
  9 13  1  0  0  0
M  END
>  <minimizedAffinity>
-5.01450

>  <minimizedRMSD>
1.02267

$$$$
CSSS00159564698 MCULE-8177090641 MolPort-005-156-886 PubChem-45248723


 28 31  0  0  0  0  0  0  0  0999 V2000
   15.6666   -9.4106   13.4612 C   0  0  0  0  0  0  0  0  0  0  0  0
   14.5019   -9.1201   12.5135 C   0  0  0  0  0  0  0  0  0  0  0  0
   14.6891   -9.8030   11.1476 C   0  0  0  0  0  0  0  0  0  0  0  0
   15.9589  -10.5313   11.0622 N   0  0  0  0  0  0  0  0  0  0  0  0
   17.0488   -9.5919   11.3315 C   0  0  0  0  0  0  0  0  0  0  0  0
   17.0122   -9.1095   12.7891 C   0  0  0  0  0  0  0  0  0  0  0  0
   15.5054   -8.6197   14.7501 C   0  0  0  0  0  0  0  0  0  0  0  0
   16.8182   -7.9740   15.1796 C   0  0  0  0  0  0  0  0  0  0  0  0
   18.8309   -8.6003   16.2957 O   0  0  0  0  0  0  0  0  0  0  0  0
   17.6610   -8.9327   15.9559 C   0  0  0  0  0  0  0  0  0  0  0  0
   17.1374  -10.2185   16.3019 N   0  0  0  0  0  0  0  0  0  0  0  0
   16.1861  -10.4059   16.1310 H   0  0  0  0  0  0  0  0  0  0  0  0
   17.9643  -11.2618   16.8994 C   0  0  0  0  0  0  0  0  0  0  0  0
   18.7244  -12.0507   15.8341 C   0  0  0  0  0  0  0  0  0  0  0  0
   19.2595  -11.1608   14.7352 C   0  0  0  0  0  0  0  0  0  0  0  0
   19.1407  -12.0269   13.5271 C   0  0  0  0  0  0  0  0  0  0  0  0
   17.9944  -12.9438   13.8836 C   0  0  0  0  0  0  0  0  0  0  0  0
   17.9224  -13.0706   15.2853 O   0  0  0  0  0  0  0  0  0  0  0  0
   16.0992  -10.9769    9.6867 C   0  0  0  0  0  0  0  0  0  0  0  0
   16.9758  -10.0347    8.9323 C   0  0  0  0  0  0  0  0  0  0  0  0
   17.0183   -9.9924    7.5775 N   0  0  0  0  0  0  0  0  0  0  0  0
   17.9125   -9.0599    7.1554 C   0  0  0  0  0  0  0  0  0  0  0  0
   18.1738   -8.7793    5.8153 C   0  0  0  0  0  0  0  0  0  0  0  0
   19.1166   -7.7808    5.5089 C   0  0  0  0  0  0  0  0  0  0  0  0
   19.7821   -7.0806    6.5374 C   0  0  0  0  0  0  0  0  0  0  0  0
   19.5123   -7.3702    7.8848 C   0  0  0  0  0  0  0  0  0  0  0  0
   18.5736   -8.3653    8.1599 C   0  0  0  0  0  0  0  0  0  0  0  0
   18.0383   -8.9208    9.6505 S   0  0  0  0  0  0  0  0  0  0  0  0
  9 10  2  0  0  0
 10  8  1  0  0  0
 10 11  1  0  0  0
  8  7  1  0  0  0
  7  1  1  0  0  0
  1  2  1  0  0  0
  2  3  1  0  0  0
  3  4  1  0  0  0
  4 19  1  0  0  0
  4  5  1  0  0  0
 19 20  1  0  0  0
 20 21  2  0  0  0
 21 22  1  0  0  0
 22 23  2  0  0  0
 23 24  1  0  0  0
 24 25  2  0  0  0
 25 26  1  0  0  0
 26 27  2  0  0  0
 27 28  1  0  0  0
 27 22  1  0  0  0
 28 20  1  0  0  0
  5  6  1  0  0  0
  6  1  1  0  0  0
 11 13  1  0  0  0
 14 13  1  0  0  0
 14 15  1  0  0  0
 15 16  1  0  0  0
 16 17  1  0  0  0
 17 18  1  0  0  0
 18 14  1  0  0  0
 11 12  1  0  0  0
M  END
>  <minimizedAffinity>
-4.98948

>  <minimizedRMSD>
2.49206

$$$$
1588141848 CSSS00426244218 MCULE-6718818655 MolPort-047-478-271 PubChem-154850175 Z4499936436


 28 31  0  0  0  0  0  0  0  0999 V2000
   18.3372  -10.0154   11.8078 C   0  0  0  0  0  0  0  0  0  0  0  0
   19.5237  -10.3942   11.6059 O   0  0  0  0  0  0  0  0  0  0  0  0
   17.8394   -9.9527   13.1572 N   0  0  0  0  0  0  0  0  0  0  0  0
   16.6625   -9.1378   13.4742 C   0  0  0  0  0  0  0  0  0  0  0  0
   16.8710   -8.4181   14.7962 C   0  0  0  0  0  0  0  0  0  0  0  0
   17.1185   -9.4278   15.8764 C   0  0  0  0  0  0  0  0  0  0  0  0
   16.5411   -9.3146   17.1684 C   0  0  0  0  0  0  0  0  0  0  0  0
   16.8323  -10.3007   18.1237 C   0  0  0  0  0  0  0  0  0  0  0  0
   17.6654  -11.3770   17.8189 C   0  0  0  0  0  0  0  0  0  0  0  0
   18.2195  -11.4902   16.5459 C   0  0  0  0  0  0  0  0  0  0  0  0
   17.9447  -10.5297   15.5718 C   0  0  0  0  0  0  0  0  0  0  0  0
   18.5578  -10.6922   14.2069 C   0  0  0  0  0  0  0  0  0  0  0  0
   13.9466  -10.3691    9.4924 C   0  0  0  0  0  0  0  0  0  0  0  0
   15.3443   -9.8657    9.5155 C   0  0  0  0  0  0  0  0  0  0  0  0
   15.8205   -9.1404    8.4709 N   0  0  0  0  0  0  0  0  0  0  0  0
   17.0926   -8.6644    8.4553 C   0  0  0  0  0  0  0  0  0  0  0  0
   17.5381   -7.9170    7.3612 C   0  0  0  0  0  0  0  0  0  0  0  0
   18.8407   -7.4133    7.3391 C   0  0  0  0  0  0  0  0  0  0  0  0
   19.7028   -7.6527    8.4118 C   0  0  0  0  0  0  0  0  0  0  0  0
   19.2659   -8.3995    9.5090 C   0  0  0  0  0  0  0  0  0  0  0  0
   17.9620   -8.9195    9.5443 C   0  0  0  0  0  0  0  0  0  0  0  0
   17.4825   -9.6701   10.6423 C   0  0  0  0  0  0  0  0  0  0  0  0
   16.1644  -10.1427   10.6089 C   0  0  0  0  0  0  0  0  0  0  0  0
   15.6451   -8.2005   17.5724 C   0  0  0  0  0  0  0  0  0  0  0  0
   15.6559   -7.7279   18.9171 N   0  0  0  0  0  0  0  0  0  0  0  0
   14.8645   -7.6562   16.7480 O   0  0  0  0  0  0  0  0  0  0  0  0
   16.2584   -8.1389   19.5785 H   0  0  0  0  0  0  0  0  0  0  0  0
   15.0610   -6.9905   19.1846 H   0  0  0  0  0  0  0  0  0  0  0  0
 13 14  1  0  0  0
 14 15  2  0  0  0
 15 16  1  0  0  0
 16 17  2  0  0  0
 17 18  1  0  0  0
 18 19  2  0  0  0
 19 20  1  0  0  0
 20 21  2  0  0  0
 21 22  1  0  0  0
 22 23  2  0  0  0
 22  1  1  0  0  0
  1  2  2  0  0  0
  1  3  1  0  0  0
  3  4  1  0  0  0
  4  5  1  0  0  0
  5  6  1  0  0  0
  6  7  2  0  0  0
  7  8  1  0  0  0
  8  9  2  0  0  0
  9 10  1  0  0  0
 10 11  2  0  0  0
 11 12  1  0  0  0
  7 24  1  0  0  0
 24 25  1  0  0  0
 24 26  2  0  0  0
 23 14  1  0  0  0
 12  3  1  0  0  0
 21 16  1  0  0  0
 11  6  1  0  0  0
 25 27  1  0  0  0
 25 28  1  0  0  0
M  END
>  <minimizedAffinity>
-4.95118

>  <minimizedRMSD>
0.75589

$$$$
CSSS00160531101 MCULE-1602154135 MolPort-046-924-755 PubChem-146114937 Z3416860943


 30 34  0  0  0  0  0  0  0  0999 V2000
   16.4787  -10.1712   11.6732 C   0  0  0  0  0  0  0  0  0  0  0  0
   15.2943  -10.0312   12.0824 O   0  0  0  0  0  0  0  0  0  0  0  0
   17.4111  -10.9090   12.4776 N   0  0  0  0  0  0  0  0  0  0  0  0
   18.8451  -10.6189   12.5663 C   0  0  0  0  0  0  0  0  0  0  0  0
   19.1080  -11.0157   14.0148 C   0  0  0  0  0  0  0  0  0  0  0  0
   18.3197  -12.3077   14.0012 C   0  0  0  0  0  0  0  0  0  0  0  0
   17.1374  -11.3793   13.8225 C   0  0  0  0  0  0  0  0  0  0  0  0
   17.8958  -10.3289   14.6142 C   0  0  0  0  0  0  0  0  0  0  0  0
   14.7400  -10.3986    9.2164 C   0  0  0  0  0  0  0  0  0  0  0  0
   16.0803   -9.7441    9.1909 C   0  0  0  0  0  0  0  0  0  0  0  0
   16.5154   -9.2296    8.0079 N   0  0  0  0  0  0  0  0  0  0  0  0
   17.7076   -8.5899    7.8946 C   0  0  0  0  0  0  0  0  0  0  0  0
   18.1179   -8.0771    6.6608 C   0  0  0  0  0  0  0  0  0  0  0  0
   19.3467   -7.4170    6.5534 C   0  0  0  0  0  0  0  0  0  0  0  0
   19.7446   -6.9203    5.3578 F   0  0  0  0  0  0  0  0  0  0  0  0
   20.1656   -7.2687    7.6785 C   0  0  0  0  0  0  0  0  0  0  0  0
   19.7594   -7.7797    8.9155 C   0  0  0  0  0  0  0  0  0  0  0  0
   18.5326   -8.4393    9.0255 C   0  0  0  0  0  0  0  0  0  0  0  0
   18.1098   -8.9563   10.2466 C   0  0  0  0  0  0  0  0  0  0  0  0
   16.8782   -9.6163   10.3549 C   0  0  0  0  0  0  0  0  0  0  0  0
   17.8000  -10.4924   16.1128 C   0  0  0  0  0  0  0  0  0  0  0  0
   17.0397   -9.7480   16.9898 C   0  0  0  0  0  0  0  0  0  0  0  0
   17.2312  -10.2200   18.2359 N   0  0  0  0  0  0  0  0  0  0  0  0
   18.1019  -11.2408   18.0741 C   0  0  0  0  0  0  0  0  0  0  0  0
   18.4357  -11.4005   16.8111 O   0  0  0  0  0  0  0  0  0  0  0  0
   16.1435   -8.6240   16.6745 C   0  0  0  0  0  0  0  0  0  0  0  0
   15.4579   -7.9480   17.7229 N   0  0  0  0  0  0  0  0  0  0  0  0
   15.9715   -8.2529   15.4839 O   0  0  0  0  0  0  0  0  0  0  0  0
   15.5859   -8.2308   18.6572 H   0  0  0  0  0  0  0  0  0  0  0  0
   14.8559   -7.1977   17.5137 H   0  0  0  0  0  0  0  0  0  0  0  0
  9 10  1  0  0  0
 10 11  2  0  0  0
 11 12  1  0  0  0
 12 13  2  0  0  0
 13 14  1  0  0  0
 14 15  1  0  0  0
 14 16  2  0  0  0
 16 17  1  0  0  0
 17 18  2  0  0  0
 18 19  1  0  0  0
 19 20  2  0  0  0
 20  1  1  0  0  0
  1  2  2  0  0  0
  1  3  1  0  0  0
  3  4  1  0  0  0
  4  5  1  0  0  0
  5  6  1  0  0  0
  6  7  1  0  0  0
  7  8  1  0  0  0
  8 21  1  0  0  0
 21 22  2  0  0  0
 22 23  1  0  0  0
 23 24  2  0  0  0
 24 25  1  0  0  0
 22 26  1  0  0  0
 26 27  1  0  0  0
 26 28  2  0  0  0
 20 10  1  0  0  0
  7  3  1  0  0  0
 25 21  1  0  0  0
 18 12  1  0  0  0
  8  5  1  0  0  0
 27 29  1  0  0  0
 27 30  1  0  0  0
M  END
>  <minimizedAffinity>
-4.94642

>  <minimizedRMSD>
1.20975

$$$$
CSC027416971 225573279 CSSS00027416971 MCULE-2310593998 MolPort-038-979-610 PubChem-100683236 Z1983361879 ZINC000225573279


 27 29  0  0  0  0  0  0  0  0999 V2000
   18.5953   -9.9606   12.0137 N   0  0  0  0  0  0  0  0  0  0  0  0
   19.0817  -10.8165   12.0134 H   0  0  0  0  0  0  0  0  0  0  0  0
   15.6230   -9.9420    9.7502 C   0  0  0  0  0  0  0  0  0  0  0  0
   16.4578  -10.1803   10.8563 C   0  0  0  0  0  0  0  0  0  0  0  0
   15.9481  -10.9593   12.0299 C   0  0  0  0  0  0  0  0  0  0  0  0
   17.7773   -9.6873   10.8589 C   0  0  0  0  0  0  0  0  0  0  0  0
   18.2342   -8.9505    9.7359 C   0  0  0  0  0  0  0  0  0  0  0  0
   19.5320   -8.4223    9.6543 C   0  0  0  0  0  0  0  0  0  0  0  0
   19.9442   -7.7005    8.5314 C   0  0  0  0  0  0  0  0  0  0  0  0
   19.0616   -7.4954    7.4702 C   0  0  0  0  0  0  0  0  0  0  0  0
   17.7664   -8.0119    7.5308 C   0  0  0  0  0  0  0  0  0  0  0  0
   17.3488   -8.7354    8.6521 C   0  0  0  0  0  0  0  0  0  0  0  0
   16.0869   -9.2290    8.6917 N   0  0  0  0  0  0  0  0  0  0  0  0
   13.4929  -10.0615   11.0023 C   0  0  0  0  0  0  0  0  0  0  0  0
   14.2135  -10.4426    9.7230 C   0  0  0  0  0  0  0  0  0  0  0  0
   18.7813   -9.1103   13.1799 C   0  0  0  0  0  0  0  0  0  0  0  0
   18.3111   -9.8212   14.3986 C   0  0  0  0  0  0  0  0  0  0  0  0
   18.5204  -11.1970   14.5311 C   0  0  0  0  0  0  0  0  0  0  0  0
   18.0569  -11.8676   15.6661 C   0  0  0  0  0  0  0  0  0  0  0  0
   17.3790  -11.1637   16.6661 C   0  0  0  0  0  0  0  0  0  0  0  0
   17.1580   -9.7877   16.5389 C   0  0  0  0  0  0  0  0  0  0  0  0
   17.6261   -9.1206   15.3965 C   0  0  0  0  0  0  0  0  0  0  0  0
   16.4551   -9.1018   17.5839 N   0  0  0  0  0  0  0  0  0  0  0  0
   15.4594   -8.0838   17.4216 C   0  0  0  0  0  0  0  0  0  0  0  0
   14.8346   -7.4794   18.6266 C   0  0  0  0  0  0  0  0  0  0  0  0
   15.1034   -7.6915   16.2793 O   0  0  0  0  0  0  0  0  0  0  0  0
   16.6796   -9.3565   18.5080 H   0  0  0  0  0  0  0  0  0  0  0  0
 14 15  1  0  0  0
 15  3  1  0  0  0
  3  4  2  0  0  0
  4  5  1  0  0  0
  4  6  1  0  0  0
  6  1  1  0  0  0
  1 16  1  0  0  0
 16 17  1  0  0  0
 17 18  2  0  0  0
 18 19  1  0  0  0
 19 20  2  0  0  0
 20 21  1  0  0  0
 21 23  1  0  0  0
 23 24  1  0  0  0
 24 25  1  0  0  0
 24 26  2  0  0  0
 21 22  2  0  0  0
  6  7  2  0  0  0
  7  8  1  0  0  0
  8  9  2  0  0  0
  9 10  1  0  0  0
 10 11  2  0  0  0
 11 12  1  0  0  0
 12 13  2  0  0  0
 13  3  1  0  0  0
 22 17  1  0  0  0
 12  7  1  0  0  0
  1  2  1  0  0  0
 23 27  1  0  0  0
M  END
>  <minimizedAffinity>
-4.94527

>  <minimizedRMSD>
1.34833

$$$$
CSC027360151 14901924 CSSS00027360151 MCULE-4375544366 MolPort-009-164-429 PubChem-16624505 Z242034118 ZINC000014901924 ZINC14901924


 30 32  0  0  0  0  0  0  0  0999 V2000
   16.0982   -9.1819   12.7727 C   0  0  0  0  0  0  0  0  0  0  0  0
   15.1227   -8.4431   12.4618 O   0  0  0  0  0  0  0  0  0  0  0  0
   17.3078  -10.4550   14.6028 C   0  0  0  0  0  0  0  0  0  0  0  0
   17.5201  -10.6803   15.9736 C   0  0  0  0  0  0  0  0  0  0  0  0
   16.8206   -9.9495   16.9339 C   0  0  0  0  0  0  0  0  0  0  0  0
   15.8987   -8.9806   16.5382 C   0  0  0  0  0  0  0  0  0  0  0  0
   15.6813   -8.7448   15.1787 C   0  0  0  0  0  0  0  0  0  0  0  0
   16.3716   -9.4746   14.1983 C   0  0  0  0  0  0  0  0  0  0  0  0
   15.0307   -8.0518   17.7466 S   0  0  0  0  0  0  0  0  0  0  0  0
   16.1055   -7.6235   19.0299 N   0  0  0  0  0  0  0  0  0  0  0  0
   13.9055   -8.8745   18.3092 O   0  0  0  0  0  0  0  0  0  0  0  0
   14.4726   -6.8060   17.1181 O   0  0  0  0  0  0  0  0  0  0  0  0
   16.4827   -8.4707   19.4546 H   0  0  0  0  0  0  0  0  0  0  0  0
   15.5980   -7.0873   19.7338 H   0  0  0  0  0  0  0  0  0  0  0  0
   18.5144  -12.4995   13.8856 C   0  0  0  0  0  0  0  0  0  0  0  0
   18.0225  -11.1876   13.6472 O   0  0  0  0  0  0  0  0  0  0  0  0
   16.9072   -9.7237   11.7693 O   0  0  0  0  0  0  0  0  0  0  0  0
   16.3819  -10.2262   10.5465 C   0  0  0  0  0  0  0  0  0  0  0  0
   17.1164   -9.6321    9.3887 C   0  0  0  0  0  0  0  0  0  0  0  0
   16.6694   -9.7308    8.1091 N   0  0  0  0  0  0  0  0  0  0  0  0
   17.5929   -9.0384    7.4156 C   0  0  0  0  0  0  0  0  0  0  0  0
   17.6236   -8.8066    6.0428 C   0  0  0  0  0  0  0  0  0  0  0  0
   18.6891   -8.0369    5.5390 C   0  0  0  0  0  0  0  0  0  0  0  0
   19.6799   -7.5243    6.4067 C   0  0  0  0  0  0  0  0  0  0  0  0
   19.6192   -7.7749    7.7900 C   0  0  0  0  0  0  0  0  0  0  0  0
   18.5518   -8.5440    8.2522 C   0  0  0  0  0  0  0  0  0  0  0  0
   18.2627   -8.9160    9.5075 N   0  0  0  0  0  0  0  0  0  0  0  0
   18.9812   -8.5883   10.7335 C   0  0  0  0  0  0  0  0  0  0  0  0
   20.1447   -7.9060   10.4291 F   0  0  0  0  0  0  0  0  0  0  0  0
   19.2845   -9.7448   11.4285 F   0  0  0  0  0  0  0  0  0  0  0  0
 15 16  1  0  0  0
 16  3  1  0  0  0
  3  4  2  0  0  0
  4  5  1  0  0  0
  5  6  2  0  0  0
  6  7  1  0  0  0
  6  9  1  0  0  0
  7  8  2  0  0  0
  8  1  1  0  0  0
  8  3  1  0  0  0
  1  2  2  0  0  0
  1 17  1  0  0  0
 17 18  1  0  0  0
 18 19  1  0  0  0
 19 20  2  0  0  0
 20 21  1  0  0  0
 21 22  2  0  0  0
 22 23  1  0  0  0
 23 24  2  0  0  0
 24 25  1  0  0  0
 25 26  2  0  0  0
 26 27  1  0  0  0
 26 21  1  0  0  0
 27 28  1  0  0  0
 27 19  1  0  0  0
 28 29  1  0  0  0
 28 30  1  0  0  0
  9 10  1  0  0  0
  9 11  2  0  0  0
  9 12  2  0  0  0
 10 13  1  0  0  0
 10 14  1  0  0  0
M  END
>  <minimizedAffinity>
-4.94069

>  <minimizedRMSD>
1.55822

$$$$
CSC027923035 11460098 CSSS00027923035 MCULE-5901504129 MolPort-009-022-442 Z18856998 ZINC000011460098


 34 37  0  0  0  0  0  0  0  0999 V2000
   16.7188   -8.9400   17.0939 C   0  0  0  0  0  0  0  0  0  0  0  0
   16.7175  -10.3181   16.8538 C   0  0  0  0  0  0  0  0  0  0  0  0
   17.4477  -10.8550   15.7899 C   0  0  0  0  0  0  0  0  0  0  0  0
   18.1955  -10.0014   14.9478 C   0  0  0  0  0  0  0  0  0  0  0  0
   18.9188  -10.5736   13.8895 C   0  0  0  0  0  0  0  0  0  0  0  0
   18.8648  -11.9543   13.6997 C   0  0  0  0  0  0  0  0  0  0  0  0
   18.1045  -12.7334   14.5748 C   0  0  0  0  0  0  0  0  0  0  0  0
   17.4333  -12.1670   15.5740 O   0  0  0  0  0  0  0  0  0  0  0  0
   18.0532  -13.9802   14.4152 O   0  0  0  0  0  0  0  0  0  0  0  0
   18.1958   -8.6208   15.1887 C   0  0  0  0  0  0  0  0  0  0  0  0
   17.4616   -8.0954   16.2548 C   0  0  0  0  0  0  0  0  0  0  0  0
   14.7469   -7.6615   18.1212 C   0  0  0  0  0  0  0  0  0  0  0  0
   15.9528   -8.4328   18.1953 N   0  0  0  0  0  0  0  0  0  0  0  0
   14.2492   -7.3435   17.0064 O   0  0  0  0  0  0  0  0  0  0  0  0
   16.2910   -8.6357   19.0974 H   0  0  0  0  0  0  0  0  0  0  0  0
   14.1282   -7.2641   19.3067 O   0  0  0  0  0  0  0  0  0  0  0  0
   11.7640   -6.8809   19.4100 C   0  0  0  0  0  0  0  0  0  0  0  0
   13.1374   -6.2475   19.3330 C   0  0  0  0  0  0  0  0  0  0  0  0
   19.7112   -9.7445   12.9332 C   0  0  0  0  0  0  0  0  0  0  0  0
   18.8302   -9.0558   12.0577 O   0  0  0  0  0  0  0  0  0  0  0  0
   19.2145   -8.6715   10.7705 C   0  0  0  0  0  0  0  0  0  0  0  0
   20.3251   -8.0994   10.5941 O   0  0  0  0  0  0  0  0  0  0  0  0
   18.3028   -8.9439    9.6306 C   0  0  0  0  0  0  0  0  0  0  0  0
   18.5724   -8.5642    8.2916 C   0  0  0  0  0  0  0  0  0  0  0  0
   17.6230   -8.8780    7.2862 C   0  0  0  0  0  0  0  0  0  0  0  0
   17.8598   -8.5170    5.9565 C   0  0  0  0  0  0  0  0  0  0  0  0
   19.0335   -7.8451    5.6094 C   0  0  0  0  0  0  0  0  0  0  0  0
   19.9757   -7.5309    6.5907 C   0  0  0  0  0  0  0  0  0  0  0  0
   19.7464   -7.8880    7.9218 C   0  0  0  0  0  0  0  0  0  0  0  0
   16.4769   -9.5316    7.6075 N   0  0  0  0  0  0  0  0  0  0  0  0
   16.2025   -9.9029    8.8837 C   0  0  0  0  0  0  0  0  0  0  0  0
   15.0197  -10.5694    9.1720 O   0  0  0  0  0  0  0  0  0  0  0  0
   17.1053   -9.6163    9.9065 C   0  0  0  0  0  0  0  0  0  0  0  0
   14.4117  -10.7629    8.4857 H   0  0  0  0  0  0  0  0  0  0  0  0
 17 18  1  0  0  0
 18 16  1  0  0  0
 16 12  1  0  0  0
 12 13  1  0  0  0
 13  1  1  0  0  0
  1  2  2  0  0  0
  2  3  1  0  0  0
  3  4  2  0  0  0
  4  5  1  0  0  0
  5  6  2  0  0  0
  6  7  1  0  0  0
  7  8  1  0  0  0
  7  9  2  0  0  0
  5 19  1  0  0  0
 19 20  1  0  0  0
 20 21  1  0  0  0
 21 23  1  0  0  0
 23 24  1  0  0  0
 24 25  1  0  0  0
 25 26  2  0  0  0
 26 27  1  0  0  0
 27 28  2  0  0  0
 28 29  1  0  0  0
 25 30  1  0  0  0
 30 31  2  0  0  0
 31 32  1  0  0  0
 31 33  1  0  0  0
 21 22  2  0  0  0
  4 10  1  0  0  0
 10 11  2  0  0  0
 12 14  2  0  0  0
 11  1  1  0  0  0
  8  3  1  0  0  0
 33 23  2  0  0  0
 29 24  2  0  0  0
 13 15  1  0  0  0
 32 34  1  0  0  0
M  END
>  <minimizedAffinity>
-4.91892

>  <minimizedRMSD>
0.82491

$$$$
CSC028118176 26504351 CSSS00028118176 MCULE-5078123802 MolPort-007-226-300 PubChem-33776244 Z62868493 ZINC000026504351


 28 30  0  0  0  0  0  0  0  0999 V2000
   16.1290   -8.6151   16.4431 C   0  0  0  0  0  0  0  0  0  0  0  0
   15.5809   -9.0518   15.2324 C   0  0  0  0  0  0  0  0  0  0  0  0
   16.4117   -9.5020   14.1959 C   0  0  0  0  0  0  0  0  0  0  0  0
   17.8011   -9.5102   14.3861 C   0  0  0  0  0  0  0  0  0  0  0  0
   18.3516   -9.0770   15.5956 C   0  0  0  0  0  0  0  0  0  0  0  0
   17.5162   -8.6328   16.6234 C   0  0  0  0  0  0  0  0  0  0  0  0
   15.8313   -9.9723   12.9268 C   0  0  0  0  0  0  0  0  0  0  0  0
   16.6851  -10.2748   11.8186 N   0  0  0  0  0  0  0  0  0  0  0  0
   14.5825  -10.1116   12.8161 O   0  0  0  0  0  0  0  0  0  0  0  0
   17.6581  -10.1788   11.9346 H   0  0  0  0  0  0  0  0  0  0  0  0
   16.1789  -10.7182   10.5275 C   0  0  0  0  0  0  0  0  0  0  0  0
   16.6507   -9.8055    9.4441 C   0  0  0  0  0  0  0  0  0  0  0  0
   17.8084   -9.1277    9.4526 N   0  0  0  0  0  0  0  0  0  0  0  0
   17.7877   -8.4427    8.3025 C   0  0  0  0  0  0  0  0  0  0  0  0
   18.8453   -7.6142    7.9364 C   0  0  0  0  0  0  0  0  0  0  0  0
   19.9280   -7.5281    8.8293 C   0  0  0  0  0  0  0  0  0  0  0  0
   19.9244   -8.2579   10.0364 C   0  0  0  0  0  0  0  0  0  0  0  0
   18.8278   -9.0781   10.3462 C   0  0  0  0  0  0  0  0  0  0  0  0
   16.6626   -8.6739    7.6011 N   0  0  0  0  0  0  0  0  0  0  0  0
   15.9457   -9.5321    8.3231 N   0  0  0  0  0  0  0  0  0  0  0  0
   15.0701   -8.0755   17.7369 S   0  0  0  0  0  0  0  0  0  0  0  0
   14.2035   -9.2242   18.1699 O   0  0  0  0  0  0  0  0  0  0  0  0
   14.1989   -6.9534   17.2421 O   0  0  0  0  0  0  0  0  0  0  0  0
   15.9988   -7.5303   19.0952 N   0  0  0  0  0  0  0  0  0  0  0  0
   16.8458   -8.0917   19.1833 H   0  0  0  0  0  0  0  0  0  0  0  0
   15.1809   -7.6808   20.2872 C   0  0  0  0  0  0  0  0  0  0  0  0
   17.0130   -6.5689   21.4565 C   0  0  0  0  0  0  0  0  0  0  0  0
   15.7080   -6.7982   21.3637 C   0  0  0  0  0  0  0  0  0  0  0  0
 27 28  2  0  0  0
 28 26  1  0  0  0
 26 24  1  0  0  0
 24 21  1  0  0  0
 21  1  1  0  0  0
  1  2  2  0  0  0
  2  3  1  0  0  0
  3  7  1  0  0  0
  7  8  1  0  0  0
  8 11  1  0  0  0
 11 12  1  0  0  0
 12 13  1  0  0  0
 13 14  1  0  0  0
 14 15  1  0  0  0
 15 16  2  0  0  0
 16 17  1  0  0  0
 17 18  2  0  0  0
 14 19  2  0  0  0
 19 20  1  0  0  0
  7  9  2  0  0  0
  3  4  2  0  0  0
  4  5  1  0  0  0
  5  6  2  0  0  0
 21 22  2  0  0  0
 21 23  2  0  0  0
  6  1  1  0  0  0
 20 12  2  0  0  0
 18 13  1  0  0  0
 24 25  1  0  0  0
  8 10  1  0  0  0
M  END
>  <minimizedAffinity>
-4.91787

>  <minimizedRMSD>
1.45843

$$$$
CSC026811825 9157169 CSSS00026811825 MCULE-9056629792 MolPort-004-540-513 PubChem-17550389 YKODDDSXKIDWGQ-UHFFFAOYSA-N Z73235327 ZINC000009157169 ZINC09157169


 30 33  0  0  0  0  0  0  0  0999 V2000
   16.7902  -10.1103   12.6154 C   0  0  0  0  0  0  0  0  0  0  0  0
   17.5899  -10.7801   13.5476 C   0  0  0  0  0  0  0  0  0  0  0  0
   17.5647  -10.4121   14.8957 C   0  0  0  0  0  0  0  0  0  0  0  0
   16.7377   -9.3684   15.3222 C   0  0  0  0  0  0  0  0  0  0  0  0
   15.9350   -8.6948   14.3959 C   0  0  0  0  0  0  0  0  0  0  0  0
   15.9611   -9.0641   13.0483 C   0  0  0  0  0  0  0  0  0  0  0  0
   14.6854   -9.9002   10.5626 O   0  0  0  0  0  0  0  0  0  0  0  0
   15.8077  -10.3878   10.2644 C   0  0  0  0  0  0  0  0  0  0  0  0
   16.8489  -10.5137   11.2410 N   0  0  0  0  0  0  0  0  0  0  0  0
   17.6924  -10.9196   10.9363 H   0  0  0  0  0  0  0  0  0  0  0  0
   16.0739  -10.8054    8.8601 C   0  0  0  0  0  0  0  0  0  0  0  0
   16.8924   -9.8061    8.1904 N   0  0  0  0  0  0  0  0  0  0  0  0
   16.6719   -9.3435    6.9642 N   0  0  0  0  0  0  0  0  0  0  0  0
   17.5538   -8.3948    6.6482 N   0  0  0  0  0  0  0  0  0  0  0  0
   18.3466   -8.2602    7.7278 C   0  0  0  0  0  0  0  0  0  0  0  0
   19.4159   -7.3917    7.9215 C   0  0  0  0  0  0  0  0  0  0  0  0
   20.0684   -7.4496    9.1695 C   0  0  0  0  0  0  0  0  0  0  0  0
   19.6382   -8.3557   10.1688 C   0  0  0  0  0  0  0  0  0  0  0  0
   18.5500   -9.2190    9.9356 C   0  0  0  0  0  0  0  0  0  0  0  0
   17.9368   -9.1316    8.6883 C   0  0  0  0  0  0  0  0  0  0  0  0
   16.7205   -8.9028   17.0135 S   0  0  0  0  0  0  0  0  0  0  0  0
   16.3550  -10.0789   17.8757 O   0  0  0  0  0  0  0  0  0  0  0  0
   18.0860   -8.4127   17.4035 O   0  0  0  0  0  0  0  0  0  0  0  0
   15.5646   -7.6386   17.2603 N   0  0  0  0  0  0  0  0  0  0  0  0
   15.5326   -6.8907   16.6209 H   0  0  0  0  0  0  0  0  0  0  0  0
   14.6567   -7.6458   18.3610 C   0  0  0  0  0  0  0  0  0  0  0  0
   13.3159   -7.6866   18.2322 N   0  0  0  0  0  0  0  0  0  0  0  0
   12.6949   -7.6767   19.4427 C   0  0  0  0  0  0  0  0  0  0  0  0
   13.5423   -7.6261   20.5508 C   0  0  0  0  0  0  0  0  0  0  0  0
   15.1228   -7.5943   19.9653 S   0  0  0  0  0  0  0  0  0  0  0  0
  7  8  2  0  0  0
  8 11  1  0  0  0
  8  9  1  0  0  0
 11 12  1  0  0  0
 12 13  1  0  0  0
 13 14  2  0  0  0
 14 15  1  0  0  0
 15 16  2  0  0  0
 16 17  1  0  0  0
 17 18  2  0  0  0
 18 19  1  0  0  0
 19 20  2  0  0  0
 20 12  1  0  0  0
 20 15  1  0  0  0
  9  1  1  0  0  0
  1  2  2  0  0  0
  2  3  1  0  0  0
  3  4  2  0  0  0
  4  5  1  0  0  0
  4 21  1  0  0  0
  5  6  2  0  0  0
  6  1  1  0  0  0
 21 22  2  0  0  0
 21 23  2  0  0  0
 21 24  1  0  0  0
 24 26  1  0  0  0
 26 27  2  0  0  0
 27 28  1  0  0  0
 28 29  2  0  0  0
 29 30  1  0  0  0
 30 26  1  0  0  0
  9 10  1  0  0  0
 24 25  1  0  0  0
M  END
>  <minimizedAffinity>
-4.90801

>  <minimizedRMSD>
2.16170

$$$$
CSSS06835386789 Z6739484316


 29 32  0  0  0  0  0  0  0  0999 V2000
   17.9819  -10.4451   13.5526 C   0  0  0  0  0  0  0  0  0  0  0  0
   18.6261  -11.8159   13.6277 C   0  0  0  0  0  0  0  0  0  0  0  0
   19.3384   -7.2667    6.7434 C   0  0  0  0  0  0  0  0  0  0  0  0
   18.9308   -7.9377    8.0087 C   0  0  0  0  0  0  0  0  0  0  0  0
   17.7324   -8.6249    8.2212 C   0  0  0  0  0  0  0  0  0  0  0  0
   16.6788   -8.7768    7.1742 C   0  0  0  0  0  0  0  0  0  0  0  0
   17.6438   -9.1471    9.5237 C   0  0  0  0  0  0  0  0  0  0  0  0
   18.7567   -8.8628   10.2918 C   0  0  0  0  0  0  0  0  0  0  0  0
   18.8762   -9.2723   11.5767 N   0  0  0  0  0  0  0  0  0  0  0  0
   17.8629   -9.9917   12.1360 C   0  0  0  0  0  0  0  0  0  0  0  0
   16.7459  -10.2916   11.4041 N   0  0  0  0  0  0  0  0  0  0  0  0
   16.6104   -9.8869   10.1096 C   0  0  0  0  0  0  0  0  0  0  0  0
   15.5684  -10.1813    9.4670 O   0  0  0  0  0  0  0  0  0  0  0  0
   19.8738   -7.9726    9.4128 S   0  0  0  0  0  0  0  0  0  0  0  0
   16.0228  -10.8123   11.8228 H   0  0  0  0  0  0  0  0  0  0  0  0
   16.6709  -10.4787   14.1817 N   0  0  0  0  0  0  0  0  0  0  0  0
   16.0308  -11.1775   13.9150 H   0  0  0  0  0  0  0  0  0  0  0  0
   16.2851   -9.5283   15.1742 C   0  0  0  0  0  0  0  0  0  0  0  0
   15.6163   -9.8231   16.3395 C   0  0  0  0  0  0  0  0  0  0  0  0
   15.4511   -8.6476   16.9709 N   0  0  0  0  0  0  0  0  0  0  0  0
   15.9726   -7.6524   16.2660 N   0  0  0  0  0  0  0  0  0  0  0  0
   16.5025   -8.1640   15.1380 C   0  0  0  0  0  0  0  0  0  0  0  0
   14.7765   -8.4878   18.2539 C   0  0  0  0  0  0  0  0  0  0  0  0
   15.7861   -8.1289   19.3457 C   0  0  0  0  0  0  0  0  0  0  0  0
   15.4234   -6.7316   19.8684 C   0  0  0  0  0  0  0  0  0  0  0  0
   14.2430   -6.3039   19.1422 N   0  0  0  0  0  0  0  0  0  0  0  0
   13.8808   -7.3139   18.2282 C   0  0  0  0  0  0  0  0  0  0  0  0
   12.8791   -7.2140   17.4727 O   0  0  0  0  0  0  0  0  0  0  0  0
   13.7720   -5.4484   19.2671 H   0  0  0  0  0  0  0  0  0  0  0  0
  3  4  1  0  0  0
  4  5  2  0  0  0
  5  6  1  0  0  0
  5  7  1  0  0  0
  7  8  2  0  0  0
  8  9  1  0  0  0
  9 10  2  0  0  0
 10  1  1  0  0  0
  1  2  1  0  0  0
  1 16  1  0  0  0
 16 18  1  0  0  0
 18 19  2  0  0  0
 19 20  1  0  0  0
 20 23  1  0  0  0
 23 24  1  0  0  0
 24 25  1  0  0  0
 25 26  1  0  0  0
 26 27  1  0  0  0
 27 28  2  0  0  0
 20 21  1  0  0  0
 21 22  2  0  0  0
 10 11  1  0  0  0
 11 12  1  0  0  0
 12 13  2  0  0  0
  8 14  1  0  0  0
 14  4  1  0  0  0
 12  7  1  0  0  0
 22 18  1  0  0  0
 27 23  1  0  0  0
 16 17  1  0  0  0
 26 29  1  0  0  0
 11 15  1  0  0  0
M  END
>  <minimizedAffinity>
-4.89681

>  <minimizedRMSD>
2.02363

$$$$
CSSS00496116594 PubChem-166229924 Z1470382551


 30 32  0  0  0  0  0  0  0  0999 V2000
   17.5482   -8.9715   13.5594 N   0  0  0  0  0  0  0  0  0  0  0  0
   16.5374   -9.1402   14.5557 C   0  0  0  0  0  0  0  0  0  0  0  0
   15.8648  -10.2036   14.6165 O   0  0  0  0  0  0  0  0  0  0  0  0
   18.0155   -8.1066   13.5057 H   0  0  0  0  0  0  0  0  0  0  0  0
   17.9182  -10.0216   12.6195 C   0  0  0  0  0  0  0  0  0  0  0  0
   15.3506  -10.0143    9.8400 C   0  0  0  0  0  0  0  0  0  0  0  0
   16.0188   -9.3600    8.8491 N   0  0  0  0  0  0  0  0  0  0  0  0
   17.2894   -8.9092    9.0194 C   0  0  0  0  0  0  0  0  0  0  0  0
   17.9546   -9.1128   10.2507 C   0  0  0  0  0  0  0  0  0  0  0  0
   19.2687   -8.6462   10.4073 C   0  0  0  0  0  0  0  0  0  0  0  0
   19.9105   -7.9835    9.3575 C   0  0  0  0  0  0  0  0  0  0  0  0
   19.2465   -7.7829    8.1440 C   0  0  0  0  0  0  0  0  0  0  0  0
   17.9385   -8.2451    7.9748 C   0  0  0  0  0  0  0  0  0  0  0  0
   17.2776   -9.7818   11.2859 C   0  0  0  0  0  0  0  0  0  0  0  0
   15.9723  -10.2343   11.0708 C   0  0  0  0  0  0  0  0  0  0  0  0
   13.0411  -10.3232   10.6356 C   0  0  0  0  0  0  0  0  0  0  0  0
   14.0467  -10.4705    9.6443 O   0  0  0  0  0  0  0  0  0  0  0  0
   16.3022   -8.0629   15.5531 C   0  0  0  0  0  0  0  0  0  0  0  0
   15.1907   -8.4768   16.4958 C   0  0  0  0  0  0  0  0  0  0  0  0
   15.1656   -7.5407   17.6940 C   0  0  0  0  0  0  0  0  0  0  0  0
   13.8239   -7.5764   18.4248 C   0  0  0  0  0  0  0  0  0  0  0  0
   13.0747   -8.8732   18.1580 C   0  0  0  0  0  0  0  0  0  0  0  0
   12.9996   -6.4310   18.0549 N   0  0  0  0  0  0  0  0  0  0  0  0
   12.7803   -5.6789   19.2419 C   0  0  0  0  0  0  0  0  0  0  0  0
   12.1014   -4.6199   19.2604 O   0  0  0  0  0  0  0  0  0  0  0  0
   13.3884   -6.2196   20.4016 N   0  0  0  0  0  0  0  0  0  0  0  0
   14.0260   -7.3835   19.8958 C   0  0  0  0  0  0  0  0  0  0  0  0
   14.6913   -8.1626   20.6288 O   0  0  0  0  0  0  0  0  0  0  0  0
   12.6601   -6.2191   17.1554 H   0  0  0  0  0  0  0  0  0  0  0  0
   13.3729   -5.8759   21.3240 H   0  0  0  0  0  0  0  0  0  0  0  0
 16 17  1  0  0  0
 17  6  1  0  0  0
  6  7  2  0  0  0
  7  8  1  0  0  0
  8  9  2  0  0  0
  9 10  1  0  0  0
 10 11  2  0  0  0
 11 12  1  0  0  0
 12 13  2  0  0  0
  9 14  1  0  0  0
 14  5  1  0  0  0
  5  1  1  0  0  0
  1  2  1  0  0  0
  2  3  2  0  0  0
  2 18  1  0  0  0
 18 19  1  0  0  0
 19 20  1  0  0  0
 20 21  1  0  0  0
 21 22  1  0  0  0
 21 23  1  0  0  0
 23 24  1  0  0  0
 24 25  2  0  0  0
 24 26  1  0  0  0
 26 27  1  0  0  0
 27 28  2  0  0  0
 14 15  2  0  0  0
 15  6  1  0  0  0
 13  8  1  0  0  0
 27 21  1  0  0  0
  1  4  1  0  0  0
 23 29  1  0  0  0
 26 30  1  0  0  0
M  END
>  <minimizedAffinity>
-4.89365

>  <minimizedRMSD>
3.64721

$$$$
CSSS02341944169 MCULE-6159540523 MolPort-047-628-499 Z4783317052


 26 29  0  0  0  0  0  0  0  0999 V2000
   15.9466   -9.0341   12.6912 N   0  0  0  0  0  0  0  0  0  0  0  0
   15.6084   -8.2121   12.2679 H   0  0  0  0  0  0  0  0  0  0  0  0
   16.2349   -9.0121   14.0908 C   0  0  0  0  0  0  0  0  0  0  0  0
   17.3883   -9.6278   14.6017 C   0  0  0  0  0  0  0  0  0  0  0  0
   17.6425   -9.5890   15.9740 C   0  0  0  0  0  0  0  0  0  0  0  0
   16.7474   -8.9388   16.8227 C   0  0  0  0  0  0  0  0  0  0  0  0
   16.9732   -8.8878   18.1605 N   0  0  0  0  0  0  0  0  0  0  0  0
   16.0999   -8.2535   18.9871 C   0  0  0  0  0  0  0  0  0  0  0  0
   14.9852   -7.6602   18.4812 N   0  0  0  0  0  0  0  0  0  0  0  0
   14.7177   -7.6855   17.1486 C   0  0  0  0  0  0  0  0  0  0  0  0
   13.6774   -7.1271   16.7094 O   0  0  0  0  0  0  0  0  0  0  0  0
   15.6014   -8.3319   16.2789 C   0  0  0  0  0  0  0  0  0  0  0  0
   15.3743   -8.3827   14.9373 N   0  0  0  0  0  0  0  0  0  0  0  0
   14.3612   -7.2042   19.0910 H   0  0  0  0  0  0  0  0  0  0  0  0
   16.1303  -10.2172   11.8636 C   0  0  0  0  0  0  0  0  0  0  0  0
   17.5331   -9.1834    5.6456 F   0  0  0  0  0  0  0  0  0  0  0  0
   18.1039   -8.6954    6.7748 C   0  0  0  0  0  0  0  0  0  0  0  0
   19.1809   -7.8082    6.6765 C   0  0  0  0  0  0  0  0  0  0  0  0
   19.7803   -7.2950    7.8317 C   0  0  0  0  0  0  0  0  0  0  0  0
   19.3064   -7.6660    9.0937 C   0  0  0  0  0  0  0  0  0  0  0  0
   18.2316   -8.5519    9.2003 C   0  0  0  0  0  0  0  0  0  0  0  0
   17.7462   -8.9320   10.4515 C   0  0  0  0  0  0  0  0  0  0  0  0
   16.6736   -9.8225   10.5363 C   0  0  0  0  0  0  0  0  0  0  0  0
   16.0912  -10.3113    9.3629 C   0  0  0  0  0  0  0  0  0  0  0  0
   16.5742   -9.9322    8.1486 N   0  0  0  0  0  0  0  0  0  0  0  0
   17.6232   -9.0721    8.0361 C   0  0  0  0  0  0  0  0  0  0  0  0
 16 17  1  0  0  0
 17 18  2  0  0  0
 18 19  1  0  0  0
 19 20  2  0  0  0
 20 21  1  0  0  0
 21 22  2  0  0  0
 22 23  1  0  0  0
 23 15  1  0  0  0
 15  1  1  0  0  0
  1  3  1  0  0  0
  3  4  2  0  0  0
  4  5  1  0  0  0
  5  6  2  0  0  0
  6  7  1  0  0  0
  7  8  2  0  0  0
  8  9  1  0  0  0
  9 10  1  0  0  0
 10 11  2  0  0  0
 10 12  1  0  0  0
 12 13  2  0  0  0
 23 24  2  0  0  0
 24 25  1  0  0  0
 25 26  2  0  0  0
 26 17  1  0  0  0
 26 21  1  0  0  0
 13  3  1  0  0  0
 12  6  1  0  0  0
  1  2  1  0  0  0
  9 14  1  0  0  0
M  END
>  <minimizedAffinity>
-4.87744

>  <minimizedRMSD>
1.27056

$$$$
CSSS00160233457 MCULE-4605161704 MolPort-046-583-534 PubChem-135111885


 30 33  0  0  0  0  0  0  0  0999 V2000
   16.8552   -8.8450   14.5167 N   0  0  0  0  0  0  0  0  0  0  0  0
   16.8879   -9.3498   15.8526 C   0  0  0  0  0  0  0  0  0  0  0  0
   17.5876  -10.3601   16.1336 O   0  0  0  0  0  0  0  0  0  0  0  0
   16.2959   -8.0599   14.3168 H   0  0  0  0  0  0  0  0  0  0  0  0
   16.1067   -8.6889   16.9034 C   0  0  0  0  0  0  0  0  0  0  0  0
   16.3990   -8.7671   18.2130 N   0  0  0  0  0  0  0  0  0  0  0  0
   15.4932   -8.0638   18.8683 N   0  0  0  0  0  0  0  0  0  0  0  0
   15.6072   -7.8543   20.3057 C   0  0  0  0  0  0  0  0  0  0  0  0
   14.2597   -7.8423   20.9854 C   0  0  0  0  0  0  0  0  0  0  0  0
   14.4362   -8.0903   22.3453 O   0  0  0  0  0  0  0  0  0  0  0  0
   13.6941   -6.4572   20.8088 C   0  0  0  0  0  0  0  0  0  0  0  0
   12.9497   -6.3663   19.5660 N   0  0  0  0  0  0  0  0  0  0  0  0
   13.4333   -6.6734   18.2534 C   0  0  0  0  0  0  0  0  0  0  0  0
   12.7645   -6.2544   17.2716 O   0  0  0  0  0  0  0  0  0  0  0  0
   14.6312   -7.5098   17.9782 C   0  0  0  0  0  0  0  0  0  0  0  0
   14.9898   -7.8999   16.6960 C   0  0  0  0  0  0  0  0  0  0  0  0
   15.0264   -7.4192   22.7225 H   0  0  0  0  0  0  0  0  0  0  0  0
   12.0157   -6.0621   19.6322 H   0  0  0  0  0  0  0  0  0  0  0  0
   17.6224   -9.4551   13.4435 C   0  0  0  0  0  0  0  0  0  0  0  0
   13.5295  -10.3992   10.8646 C   0  0  0  0  0  0  0  0  0  0  0  0
   14.9204  -10.0978   11.1568 N   0  0  0  0  0  0  0  0  0  0  0  0
   15.4151   -9.9939   12.3840 N   0  0  0  0  0  0  0  0  0  0  0  0
   16.7338   -9.7037   12.2748 C   0  0  0  0  0  0  0  0  0  0  0  0
   17.0670   -9.6081   10.9326 C   0  0  0  0  0  0  0  0  0  0  0  0
   18.2534   -9.3173   10.2497 C   0  0  0  0  0  0  0  0  0  0  0  0
   19.7643   -8.9801   11.0752 Cl  0  0  0  0  0  0  0  0  0  0  0  0
   18.2062   -9.3042    8.8436 C   0  0  0  0  0  0  0  0  0  0  0  0
   16.9995   -9.5733    8.1609 C   0  0  0  0  0  0  0  0  0  0  0  0
   15.8210   -9.8592    8.8735 C   0  0  0  0  0  0  0  0  0  0  0  0
   15.8990   -9.8670   10.2658 C   0  0  0  0  0  0  0  0  0  0  0  0
 20 21  1  0  0  0
 21 22  1  0  0  0
 22 23  2  0  0  0
 23 19  1  0  0  0
 19  1  1  0  0  0
  1  2  1  0  0  0
  2  3  2  0  0  0
  2  5  1  0  0  0
  5  6  2  0  0  0
  6  7  1  0  0  0
  7  8  1  0  0  0
  8  9  1  0  0  0
  9 10  1  0  0  0
  9 11  1  0  0  0
 11 12  1  0  0  0
 12 13  1  0  0  0
 13 14  2  0  0  0
 13 15  1  0  0  0
 15 16  2  0  0  0
 23 24  1  0  0  0
 24 25  2  0  0  0
 25 26  1  0  0  0
 25 27  1  0  0  0
 27 28  2  0  0  0
 28 29  1  0  0  0
 29 30  2  0  0  0
 30 21  1  0  0  0
 16  5  1  0  0  0
 30 24  1  0  0  0
 15  7  1  0  0  0
  1  4  1  0  0  0
 10 17  1  0  0  0
 12 18  1  0  0  0
M  END
>  <minimizedAffinity>
-4.87580

>  <minimizedRMSD>
3.50381

$$$$
CSSS00133113094 MCULE-8298677026 MolPort-046-443-820 PubChem-137982339 Z2233651933


 27 29  0  0  0  0  0  0  0  0999 V2000
   17.2977  -10.5306   12.6931 C   0  0  0  0  0  0  0  0  0  0  0  0
   17.7920  -11.6547   12.4041 O   0  0  0  0  0  0  0  0  0  0  0  0
   16.3507   -9.9172   11.8118 N   0  0  0  0  0  0  0  0  0  0  0  0
   15.9429   -9.0624   12.0807 H   0  0  0  0  0  0  0  0  0  0  0  0
   17.2120   -8.2529   15.7096 C   0  0  0  0  0  0  0  0  0  0  0  0
   18.4372   -8.5524   16.3122 C   0  0  0  0  0  0  0  0  0  0  0  0
   19.2867   -9.5016   15.7379 C   0  0  0  0  0  0  0  0  0  0  0  0
   18.9142  -10.1497   14.5568 C   0  0  0  0  0  0  0  0  0  0  0  0
   17.6904   -9.8517   13.9398 C   0  0  0  0  0  0  0  0  0  0  0  0
   16.8448   -8.8969   14.5218 C   0  0  0  0  0  0  0  0  0  0  0  0
   16.3213   -7.2252   16.3230 C   0  0  0  0  0  0  0  0  0  0  0  0
   15.8923   -7.6986   19.1242 N   0  0  0  0  0  0  0  0  0  0  0  0
   15.2413   -7.9512   17.5439 S   0  0  0  0  0  0  0  0  0  0  0  0
   13.8896   -7.3022   17.4546 O   0  0  0  0  0  0  0  0  0  0  0  0
   15.1012   -9.4257   17.2900 O   0  0  0  0  0  0  0  0  0  0  0  0
   15.2716   -8.1152   19.8182 H   0  0  0  0  0  0  0  0  0  0  0  0
   15.9769   -6.6976   19.3010 H   0  0  0  0  0  0  0  0  0  0  0  0
   15.9638  -10.5018   10.5350 C   0  0  0  0  0  0  0  0  0  0  0  0
   16.6897   -9.8337    9.4172 C   0  0  0  0  0  0  0  0  0  0  0  0
   17.7026   -8.9003    9.6793 C   0  0  0  0  0  0  0  0  0  0  0  0
   18.3309   -8.3436    8.6177 N   0  0  0  0  0  0  0  0  0  0  0  0
   19.3176   -7.4393    8.5777 C   0  0  0  0  0  0  0  0  0  0  0  0
   19.5879   -7.2190    7.2274 C   0  0  0  0  0  0  0  0  0  0  0  0
   18.7734   -7.9826    6.4543 N   0  0  0  0  0  0  0  0  0  0  0  0
   18.0297   -8.6465    7.3528 C   0  0  0  0  0  0  0  0  0  0  0  0
   17.0596   -9.5455    7.0542 N   0  0  0  0  0  0  0  0  0  0  0  0
   16.3841  -10.1459    8.0778 C   0  0  0  0  0  0  0  0  0  0  0  0
 12 13  1  0  0  0
 13 14  2  0  0  0
 13 15  2  0  0  0
 13 11  1  0  0  0
 11  5  1  0  0  0
  5  6  2  0  0  0
  6  7  1  0  0  0
  7  8  2  0  0  0
  8  9  1  0  0  0
  9 10  2  0  0  0
  9  1  1  0  0  0
  1  2  2  0  0  0
  1  3  1  0  0  0
  3 18  1  0  0  0
 18 19  1  0  0  0
 19 20  2  0  0  0
 20 21  1  0  0  0
 21 22  1  0  0  0
 22 23  2  0  0  0
 23 24  1  0  0  0
 24 25  2  0  0  0
 25 26  1  0  0  0
 26 27  2  0  0  0
 10  5  1  0  0  0
 27 19  1  0  0  0
 25 21  1  0  0  0
 12 16  1  0  0  0
 12 17  1  0  0  0
  3  4  1  0  0  0
M  END
>  <minimizedAffinity>
-4.85977

>  <minimizedRMSD>
1.76013

$$$$
23141483 CSSS03437166626 MCULE-4104476169 MolPort-009-735-560 PubChem-30864910 ZINC000023141483


 31 35  0  0  0  0  0  0  0  0999 V2000
   17.4975  -10.0243   12.5105 C   0  0  0  0  0  0  0  0  0  0  0  0
   18.0402  -11.1983   12.8919 N   0  0  0  0  0  0  0  0  0  0  0  0
   18.3170  -11.1012   14.1845 N   0  0  0  0  0  0  0  0  0  0  0  0
   17.9308   -9.8723   14.5735 C   0  0  0  0  0  0  0  0  0  0  0  0
   17.4199   -9.1661   13.5489 N   0  0  0  0  0  0  0  0  0  0  0  0
   17.0216   -9.7639   11.1363 C   0  0  0  0  0  0  0  0  0  0  0  0
   15.7979  -10.1374   10.5734 C   0  0  0  0  0  0  0  0  0  0  0  0
   14.6813  -10.8215   11.2826 C   0  0  0  0  0  0  0  0  0  0  0  0
   15.7420   -9.7943    9.2571 N   0  0  0  0  0  0  0  0  0  0  0  0
   16.9477   -9.2238    9.0777 C   0  0  0  0  0  0  0  0  0  0  0  0
   17.7114   -8.6227    7.7211 S   0  0  0  0  0  0  0  0  0  0  0  0
   19.1520   -8.3143    8.6016 C   0  0  0  0  0  0  0  0  0  0  0  0
   18.9655   -8.7136    9.9377 C   0  0  0  0  0  0  0  0  0  0  0  0
   17.7188   -9.1960   10.1438 N   0  0  0  0  0  0  0  0  0  0  0  0
   16.7555   -7.8712   13.6206 C   0  0  0  0  0  0  0  0  0  0  0  0
   15.2512   -8.0513   13.5407 C   0  0  0  0  0  0  0  0  0  0  0  0
   18.0584   -9.2807   16.2590 S   0  0  0  0  0  0  0  0  0  0  0  0
   16.3206   -9.6796   16.6089 C   0  0  0  0  0  0  0  0  0  0  0  0
   15.6713   -8.5501   17.3273 C   0  0  0  0  0  0  0  0  0  0  0  0
   15.3009   -7.5392   16.6742 O   0  0  0  0  0  0  0  0  0  0  0  0
   15.4638   -8.6384   18.7435 N   0  0  0  0  0  0  0  0  0  0  0  0
   15.7597   -9.4689   19.1817 H   0  0  0  0  0  0  0  0  0  0  0  0
   14.8702   -7.6428   19.5875 C   0  0  0  0  0  0  0  0  0  0  0  0
   13.6184   -7.0528   19.2805 C   0  0  0  0  0  0  0  0  0  0  0  0
   13.0555   -6.0763   20.1215 C   0  0  0  0  0  0  0  0  0  0  0  0
   13.7745   -5.7174   21.2575 C   0  0  0  0  0  0  0  0  0  0  0  0
   14.9733   -6.2770   21.5578 C   0  0  0  0  0  0  0  0  0  0  0  0
   15.4529   -5.7340   22.7329 O   0  0  0  0  0  0  0  0  0  0  0  0
   14.4961   -4.7729   23.2010 C   0  0  0  0  0  0  0  0  0  0  0  0
   13.4411   -4.7949   22.2290 O   0  0  0  0  0  0  0  0  0  0  0  0
   15.5606   -7.2461   20.7487 C   0  0  0  0  0  0  0  0  0  0  0  0
  1  2  2  0  0  0
  2  3  1  0  0  0
  3  4  2  0  0  0
  4 17  1  0  0  0
 17 18  1  0  0  0
 18 19  1  0  0  0
 19 20  2  0  0  0
 19 21  1  0  0  0
 21 23  1  0  0  0
 23 24  2  0  0  0
 24 25  1  0  0  0
 25 26  2  0  0  0
 26 27  1  0  0  0
 27 28  1  0  0  0
 28 29  1  0  0  0
 29 30  1  0  0  0
 27 31  2  0  0  0
  4  5  1  0  0  0
  5 15  1  0  0  0
 15 16  1  0  0  0
  1  6  1  0  0  0
  6  7  2  0  0  0
  7  8  1  0  0  0
  7  9  1  0  0  0
  9 10  2  0  0  0
 10 11  1  0  0  0
 11 12  1  0  0  0
 12 13  2  0  0  0
 13 14  1  0  0  0
  5  1  1  0  0  0
 14  6  1  0  0  0
 31 23  1  0  0  0
 14 10  1  0  0  0
 30 26  1  0  0  0
 21 22  1  0  0  0
M  END
>  <minimizedAffinity>
-4.85855

>  <minimizedRMSD>
1.95786

$$$$
CSSS03333222731 Z8318442447


 26 30  0  0  0  0  0  0  0  0999 V2000
   18.2084  -11.4954   14.1991 C   0  0  0  0  0  0  0  0  0  0  0  0
   19.5513  -10.8610   13.8551 C   0  0  0  0  0  0  0  0  0  0  0  0
   19.3670  -10.1289   12.5393 C   0  0  0  0  0  0  0  0  0  0  0  0
   18.0357  -10.4613   12.0698 N   0  0  0  0  0  0  0  0  0  0  0  0
   17.3074  -11.3141   12.9898 C   0  0  0  0  0  0  0  0  0  0  0  0
   15.5318   -8.1049   18.4723 N   0  0  0  0  0  0  0  0  0  0  0  0
   15.9260   -8.3462   17.1263 C   0  0  0  0  0  0  0  0  0  0  0  0
   15.6331   -7.4462   16.1413 N   0  0  0  0  0  0  0  0  0  0  0  0
   16.0085   -7.6688   14.8400 C   0  0  0  0  0  0  0  0  0  0  0  0
   16.6892   -8.8047   14.4981 N   0  0  0  0  0  0  0  0  0  0  0  0
   16.9755   -9.6921   15.4822 C   0  0  0  0  0  0  0  0  0  0  0  0
   17.6251  -10.8596   15.3769 N   0  0  0  0  0  0  0  0  0  0  0  0
   17.6438  -11.3497   16.6422 C   0  0  0  0  0  0  0  0  0  0  0  0
   17.0234  -10.5249   17.5336 N   0  0  0  0  0  0  0  0  0  0  0  0
   16.6168   -9.4951   16.7684 C   0  0  0  0  0  0  0  0  0  0  0  0
   15.0423   -7.2821   18.7019 H   0  0  0  0  0  0  0  0  0  0  0  0
   15.7485   -8.7607   19.1738 H   0  0  0  0  0  0  0  0  0  0  0  0
   17.4573   -9.9696   10.8449 C   0  0  0  0  0  0  0  0  0  0  0  0
   16.1626  -10.3630   10.4610 C   0  0  0  0  0  0  0  0  0  0  0  0
   15.6226   -9.8653    9.2619 C   0  0  0  0  0  0  0  0  0  0  0  0
   16.3431   -9.0121    8.4798 N   0  0  0  0  0  0  0  0  0  0  0  0
   17.5869   -8.6538    8.8795 C   0  0  0  0  0  0  0  0  0  0  0  0
   18.4608   -7.8111    8.2318 C   0  0  0  0  0  0  0  0  0  0  0  0
   19.5655   -7.8136    9.0890 C   0  0  0  0  0  0  0  0  0  0  0  0
   19.3314   -8.6108   10.1594 N   0  0  0  0  0  0  0  0  0  0  0  0
   18.1208   -9.1138   10.0145 N   0  0  0  0  0  0  0  0  0  0  0  0
  6  7  1  0  0  0
  7  8  2  0  0  0
  8  9  1  0  0  0
  9 10  2  0  0  0
 10 11  1  0  0  0
 11 12  1  0  0  0
 12 13  1  0  0  0
 13 14  2  0  0  0
 14 15  1  0  0  0
 12  1  1  0  0  0
  1  2  1  0  0  0
  2  3  1  0  0  0
  3  4  1  0  0  0
  4  5  1  0  0  0
  4 18  1  0  0  0
 18 19  2  0  0  0
 19 20  1  0  0  0
 20 21  2  0  0  0
 21 22  1  0  0  0
 22 23  2  0  0  0
 23 24  1  0  0  0
 24 25  2  0  0  0
 25 26  1  0  0  0
 15  7  1  0  0  0
  5  1  1  0  0  0
 26 18  1  0  0  0
 15 11  2  0  0  0
 26 22  1  0  0  0
  6 16  1  0  0  0
  6 17  1  0  0  0
M  END
>  <minimizedAffinity>
-4.85391

>  <minimizedRMSD>
0.74995

$$$$
CSC026705770 2187541 CSSS00026705770 ChemDiv-8006-3204 LN01153933 MCULE-8648716188 MolPort-001-929-908 PubChem-1822798 Z56816310 ZINC000002187541 ZINC02187541


 32 35  0  0  0  0  0  0  0  0999 V2000
   17.5822   -9.8892   11.9402 O   0  0  0  0  0  0  0  0  0  0  0  0
   16.2380   -9.9788   11.5574 C   0  0  0  0  0  0  0  0  0  0  0  0
   15.8497   -9.6461   10.2373 C   0  0  0  0  0  0  0  0  0  0  0  0
   14.4949   -9.7434    9.8806 C   0  0  0  0  0  0  0  0  0  0  0  0
   13.5373  -10.1606   10.8056 C   0  0  0  0  0  0  0  0  0  0  0  0
   12.1094  -10.2556   10.4056 C   0  0  0  0  0  0  0  0  0  0  0  0
   13.9209  -10.4881   12.1046 C   0  0  0  0  0  0  0  0  0  0  0  0
   15.2620  -10.3978   12.4768 C   0  0  0  0  0  0  0  0  0  0  0  0
   16.8006   -9.2071    9.2476 N   0  0  0  0  0  0  0  0  0  0  0  0
   17.8319   -8.4006    9.5003 N   0  0  0  0  0  0  0  0  0  0  0  0
   18.4490   -8.2469    8.3205 C   0  0  0  0  0  0  0  0  0  0  0  0
   19.5845   -7.5018    8.0201 C   0  0  0  0  0  0  0  0  0  0  0  0
   20.0217   -7.5169    6.6808 C   0  0  0  0  0  0  0  0  0  0  0  0
   19.3223   -8.2630    5.7021 C   0  0  0  0  0  0  0  0  0  0  0  0
   18.1756   -9.0048    6.0483 C   0  0  0  0  0  0  0  0  0  0  0  0
   17.7773   -8.9635    7.3805 C   0  0  0  0  0  0  0  0  0  0  0  0
   16.7352   -9.5704    7.9660 N   0  0  0  0  0  0  0  0  0  0  0  0
   18.2285  -10.6509   13.3297 S   0  0  0  0  0  0  0  0  0  0  0  0
   19.7202  -10.4741   13.3467 O   0  0  0  0  0  0  0  0  0  0  0  0
   17.9030  -12.1180   13.2836 O   0  0  0  0  0  0  0  0  0  0  0  0
   16.4310   -8.7748   17.0786 C   0  0  0  0  0  0  0  0  0  0  0  0
   16.4662   -8.0592   15.8719 C   0  0  0  0  0  0  0  0  0  0  0  0
   17.0196   -8.6346   14.7251 C   0  0  0  0  0  0  0  0  0  0  0  0
   17.5418   -9.9305   14.7741 C   0  0  0  0  0  0  0  0  0  0  0  0
   17.5113  -10.6474   15.9744 C   0  0  0  0  0  0  0  0  0  0  0  0
   16.9576  -10.0705   17.1210 C   0  0  0  0  0  0  0  0  0  0  0  0
   14.6305   -7.5102   18.3962 C   0  0  0  0  0  0  0  0  0  0  0  0
   13.8958   -7.3155   17.3892 O   0  0  0  0  0  0  0  0  0  0  0  0
   15.8708   -8.2185   18.2760 N   0  0  0  0  0  0  0  0  0  0  0  0
   16.3931   -8.3355   19.1023 H   0  0  0  0  0  0  0  0  0  0  0  0
   13.0209   -6.3450   19.8476 C   0  0  0  0  0  0  0  0  0  0  0  0
   14.2449   -7.0367   19.6503 O   0  0  0  0  0  0  0  0  0  0  0  0
 31 32  1  0  0  0
 32 27  1  0  0  0
 27 28  2  0  0  0
 27 29  1  0  0  0
 29 21  1  0  0  0
 21 22  2  0  0  0
 22 23  1  0  0  0
 23 24  2  0  0  0
 24 25  1  0  0  0
 24 18  1  0  0  0
 25 26  2  0  0  0
 26 21  1  0  0  0
 18 19  2  0  0  0
 18 20  2  0  0  0
 18  1  1  0  0  0
  1  2  1  0  0  0
  2  3  1  0  0  0
  3  4  2  0  0  0
  3  9  1  0  0  0
  4  5  1  0  0  0
  5  6  1  0  0  0
  5  7  2  0  0  0
  7  8  1  0  0  0
  8  2  2  0  0  0
  9 10  1  0  0  0
 10 11  2  0  0  0
 11 12  1  0  0  0
 12 13  2  0  0  0
 13 14  1  0  0  0
 14 15  2  0  0  0
 15 16  1  0  0  0
 16 17  2  0  0  0
 16 11  1  0  0  0
 17  9  1  0  0  0
 29 30  1  0  0  0
M  END
>  <minimizedAffinity>
-4.85365

>  <minimizedRMSD>
1.13499

$$$$
CSC027735112 CSSS00027735112 MCULE-6499487482 MolPort-009-139-112 PubChem-47013054 Z146473744


 29 31  0  0  0  0  0  0  0  0999 V2000
   16.4342  -10.3265   11.8752 N   0  0  0  0  0  0  0  0  0  0  0  0
   17.1474  -10.5285   13.1002 C   0  0  0  0  0  0  0  0  0  0  0  0
   18.1349  -11.3132   13.1329 O   0  0  0  0  0  0  0  0  0  0  0  0
   15.6456   -9.7373   11.8813 H   0  0  0  0  0  0  0  0  0  0  0  0
   16.7265   -9.8227   14.3228 C   0  0  0  0  0  0  0  0  0  0  0  0
   16.1616   -8.5416   14.2421 C   0  0  0  0  0  0  0  0  0  0  0  0
   15.7635   -7.8704   15.4016 C   0  0  0  0  0  0  0  0  0  0  0  0
   15.9256   -8.4757   16.6520 C   0  0  0  0  0  0  0  0  0  0  0  0
   16.4907   -9.7515   16.7401 C   0  0  0  0  0  0  0  0  0  0  0  0
   16.8887  -10.4226   15.5803 C   0  0  0  0  0  0  0  0  0  0  0  0
   15.5137   -7.7558   17.8915 C   0  0  0  0  0  0  0  0  0  0  0  0
   14.0975   -7.4178   17.8377 N   0  0  0  0  0  0  0  0  0  0  0  0
   13.2439   -7.4697   18.9824 C   0  0  0  0  0  0  0  0  0  0  0  0
   11.8797   -7.0873   18.8604 N   0  0  0  0  0  0  0  0  0  0  0  0
   13.6858   -7.8568   20.0965 O   0  0  0  0  0  0  0  0  0  0  0  0
   13.7118   -7.1415   16.9751 H   0  0  0  0  0  0  0  0  0  0  0  0
   11.5293   -6.7840   17.9918 H   0  0  0  0  0  0  0  0  0  0  0  0
   11.2856   -7.1260   19.6445 H   0  0  0  0  0  0  0  0  0  0  0  0
   15.8286  -12.0417   10.2676 C   0  0  0  0  0  0  0  0  0  0  0  0
   16.8243  -10.9545   10.6204 C   0  0  0  0  0  0  0  0  0  0  0  0
   16.8767   -9.9369    9.5237 C   0  0  0  0  0  0  0  0  0  0  0  0
   17.8932   -9.0871    9.3170 N   0  0  0  0  0  0  0  0  0  0  0  0
   17.5000   -8.3640    8.2617 C   0  0  0  0  0  0  0  0  0  0  0  0
   18.3035   -7.3546    7.7397 C   0  0  0  0  0  0  0  0  0  0  0  0
   19.5402   -7.1327    8.3707 C   0  0  0  0  0  0  0  0  0  0  0  0
   19.9306   -7.9079    9.4820 C   0  0  0  0  0  0  0  0  0  0  0  0
   19.0737   -8.9110    9.9603 C   0  0  0  0  0  0  0  0  0  0  0  0
   16.2857   -8.7397    7.8205 N   0  0  0  0  0  0  0  0  0  0  0  0
   15.8924   -9.7305    8.6175 N   0  0  0  0  0  0  0  0  0  0  0  0
 19 20  1  0  0  0
 20 21  1  0  0  0
 21 22  1  0  0  0
 22 23  1  0  0  0
 23 24  1  0  0  0
 24 25  2  0  0  0
 25 26  1  0  0  0
 26 27  2  0  0  0
 23 28  2  0  0  0
 28 29  1  0  0  0
 20  1  1  0  0  0
  1  2  1  0  0  0
  2  5  1  0  0  0
  5  6  2  0  0  0
  6  7  1  0  0  0
  7  8  2  0  0  0
  8 11  1  0  0  0
 11 12  1  0  0  0
 12 13  1  0  0  0
 13 14  1  0  0  0
 13 15  2  0  0  0
  8  9  1  0  0  0
  9 10  2  0  0  0
  2  3  2  0  0  0
 29 21  2  0  0  0
 10  5  1  0  0  0
 27 22  1  0  0  0
  1  4  1  0  0  0
 12 16  1  0  0  0
 14 17  1  0  0  0
 14 18  1  0  0  0
M  END
>  <minimizedAffinity>
-4.84878

>  <minimizedRMSD>
2.00356

$$$$
CSC026031369 21902446 CSSS00026031369 MCULE-1145581850 MolPort-006-035-997 PubChem-42901072 Z18636509 ZINC000021902446 ZINC21902446


 28 30  0  0  0  0  0  0  0  0999 V2000
   17.2334   -9.7729   15.4950 C   0  0  0  0  0  0  0  0  0  0  0  0
   18.1215  -10.5488   15.9450 O   0  0  0  0  0  0  0  0  0  0  0  0
   16.3851   -9.0067   16.4221 C   0  0  0  0  0  0  0  0  0  0  0  0
   16.6844   -8.9609   17.7908 C   0  0  0  0  0  0  0  0  0  0  0  0
   15.8750   -8.2316   18.6664 C   0  0  0  0  0  0  0  0  0  0  0  0
   14.7579   -7.5395   18.1878 C   0  0  0  0  0  0  0  0  0  0  0  0
   14.4583   -7.5851   16.8182 C   0  0  0  0  0  0  0  0  0  0  0  0
   15.2665   -8.3138   15.9416 C   0  0  0  0  0  0  0  0  0  0  0  0
   13.9523   -6.8026   19.1175 N   0  0  0  0  0  0  0  0  0  0  0  0
   12.7016   -7.2156   19.6841 C   0  0  0  0  0  0  0  0  0  0  0  0
   12.1916   -8.3318   19.3999 O   0  0  0  0  0  0  0  0  0  0  0  0
   14.2933   -5.9219   19.3955 H   0  0  0  0  0  0  0  0  0  0  0  0
   12.0084   -6.3210   20.6504 C   0  0  0  0  0  0  0  0  0  0  0  0
   12.9708   -5.3975   21.2565 C   0  0  0  0  0  0  0  0  0  0  0  0
   13.7315   -4.6685   21.7352 N   0  0  0  0  0  0  0  0  0  0  0  0
   17.0502   -9.6366   14.1171 O   0  0  0  0  0  0  0  0  0  0  0  0
   17.3867  -10.6744   13.2082 C   0  0  0  0  0  0  0  0  0  0  0  0
   17.0059   -8.4348    6.9425 C   0  0  0  0  0  0  0  0  0  0  0  0
   17.9111   -8.4192    8.1286 C   0  0  0  0  0  0  0  0  0  0  0  0
   19.1361   -7.7465    8.0876 C   0  0  0  0  0  0  0  0  0  0  0  0
   19.8746   -7.9472    9.5973 S   0  0  0  0  0  0  0  0  0  0  0  0
   18.6214   -8.8643   10.2161 C   0  0  0  0  0  0  0  0  0  0  0  0
   18.5628   -9.3872   11.4650 N   0  0  0  0  0  0  0  0  0  0  0  0
   17.4764  -10.1204   11.8316 C   0  0  0  0  0  0  0  0  0  0  0  0
   16.4222  -10.3177   10.9299 C   0  0  0  0  0  0  0  0  0  0  0  0
   16.5154   -9.7631    9.6491 C   0  0  0  0  0  0  0  0  0  0  0  0
   15.5752   -9.9376    8.8290 O   0  0  0  0  0  0  0  0  0  0  0  0
   17.6282   -9.0400    9.3162 N   0  0  0  0  0  0  0  0  0  0  0  0
 18 19  1  0  0  0
 19 20  2  0  0  0
 20 21  1  0  0  0
 21 22  1  0  0  0
 22 23  2  0  0  0
 23 24  1  0  0  0
 24 17  1  0  0  0
 24 25  2  0  0  0
 17 16  1  0  0  0
 16  1  1  0  0  0
  1  2  2  0  0  0
  1  3  1  0  0  0
  3  4  2  0  0  0
  4  5  1  0  0  0
  5  6  2  0  0  0
  6  9  1  0  0  0
  6  7  1  0  0  0
  9 10  1  0  0  0
 10 11  2  0  0  0
 10 13  1  0  0  0
 13 14  1  0  0  0
 14 15  3  0  0  0
  7  8  2  0  0  0
  8  3  1  0  0  0
 25 26  1  0  0  0
 26 27  2  0  0  0
 26 28  1  0  0  0
 28 19  1  0  0  0
 28 22  1  0  0  0
  9 12  1  0  0  0
M  END
>  <minimizedAffinity>
-4.82141

>  <minimizedRMSD>
2.52047

$$$$
91966598 CSSS00159630253 MCULE-2572094101 MolPort-027-886-068 PubChem-72926410 ZINC000091966598 ZINC91966598


 30 33  0  0  0  0  0  0  0  0999 V2000
   16.1833  -10.0547   12.3089 C   0  0  0  0  0  0  0  0  0  0  0  0
   14.9221  -10.0549   12.2713 O   0  0  0  0  0  0  0  0  0  0  0  0
   16.9340  -10.3410   11.1244 N   0  0  0  0  0  0  0  0  0  0  0  0
   17.9157  -10.3804   11.1874 H   0  0  0  0  0  0  0  0  0  0  0  0
   18.9999   -8.8557   17.2032 C   0  0  0  0  0  0  0  0  0  0  0  0
   18.2210   -9.1851   15.9758 C   0  0  0  0  0  0  0  0  0  0  0  0
   18.9101   -9.7510   14.8993 C   0  0  0  0  0  0  0  0  0  0  0  0
   18.2468  -10.0392   13.7060 C   0  0  0  0  0  0  0  0  0  0  0  0
   16.8830   -9.7589   13.5709 C   0  0  0  0  0  0  0  0  0  0  0  0
   16.1919   -9.1909   14.6483 C   0  0  0  0  0  0  0  0  0  0  0  0
   16.8405   -8.9007   15.8590 C   0  0  0  0  0  0  0  0  0  0  0  0
   16.0868   -8.3311   16.9476 N   0  0  0  0  0  0  0  0  0  0  0  0
   16.3654   -8.5360   18.3628 C   0  0  0  0  0  0  0  0  0  0  0  0
   15.1610   -7.9460   19.1226 C   0  0  0  0  0  0  0  0  0  0  0  0
   14.2289   -7.4606   18.1130 N   0  0  0  0  0  0  0  0  0  0  0  0
   14.8158   -7.7158   16.8579 C   0  0  0  0  0  0  0  0  0  0  0  0
   14.2635   -7.4017   15.7705 O   0  0  0  0  0  0  0  0  0  0  0  0
   13.3560   -7.0358   18.2767 H   0  0  0  0  0  0  0  0  0  0  0  0
   16.3089  -10.5766    9.8293 C   0  0  0  0  0  0  0  0  0  0  0  0
   15.9582   -9.2573    9.1536 C   0  0  0  0  0  0  0  0  0  0  0  0
   17.0189   -8.8553    8.1846 C   0  0  0  0  0  0  0  0  0  0  0  0
   17.0126   -9.2433    6.8818 N   0  0  0  0  0  0  0  0  0  0  0  0
   18.1242   -8.6656    6.4056 C   0  0  0  0  0  0  0  0  0  0  0  0
   18.6252   -8.7272    5.1077 C   0  0  0  0  0  0  0  0  0  0  0  0
   19.8209   -8.0335    4.8428 C   0  0  0  0  0  0  0  0  0  0  0  0
   20.4723   -7.3090    5.8662 C   0  0  0  0  0  0  0  0  0  0  0  0
   19.9360   -7.2695    7.1668 C   0  0  0  0  0  0  0  0  0  0  0  0
   18.7521   -7.9673    7.3919 C   0  0  0  0  0  0  0  0  0  0  0  0
   18.0682   -8.0691    8.5399 N   0  0  0  0  0  0  0  0  0  0  0  0
   18.2740   -7.6742    9.4180 H   0  0  0  0  0  0  0  0  0  0  0  0
  5  6  1  0  0  0
  6  7  2  0  0  0
  7  8  1  0  0  0
  8  9  2  0  0  0
  9 10  1  0  0  0
  9  1  1  0  0  0
 10 11  2  0  0  0
 11 12  1  0  0  0
 11  6  1  0  0  0
 12 13  1  0  0  0
 13 14  1  0  0  0
 14 15  1  0  0  0
 15 16  1  0  0  0
 16 17  2  0  0  0
 16 12  1  0  0  0
  1  2  2  0  0  0
  1  3  1  0  0  0
  3 19  1  0  0  0
 19 20  1  0  0  0
 20 21  1  0  0  0
 21 22  2  0  0  0
 22 23  1  0  0  0
 23 24  2  0  0  0
 24 25  1  0  0  0
 25 26  2  0  0  0
 26 27  1  0  0  0
 27 28  2  0  0  0
 28 29  1  0  0  0
 28 23  1  0  0  0
 29 21  1  0  0  0
 15 18  1  0  0  0
  3  4  1  0  0  0
 29 30  1  0  0  0
M  END
>  <minimizedAffinity>
-4.81585

>  <minimizedRMSD>
1.53674

$$$$
67587344 CSSS00159463316 MCULE-4421771275 MolPort-019-802-224 PubChem-56703618 ZINC000067587344


 28 31  0  0  0  0  0  0  0  0999 V2000
   18.3744  -10.2580   11.6662 C   0  0  0  0  0  0  0  0  0  0  0  0
   19.5567  -10.6362   11.8915 O   0  0  0  0  0  0  0  0  0  0  0  0
   17.3545  -10.5214   12.6469 N   0  0  0  0  0  0  0  0  0  0  0  0
   16.1000   -9.7661   12.6713 C   0  0  0  0  0  0  0  0  0  0  0  0
   16.0228   -8.9061   13.9383 C   0  0  0  0  0  0  0  0  0  0  0  0
   16.5552   -9.6314   15.0935 N   0  0  0  0  0  0  0  0  0  0  0  0
   17.3001  -10.7488   15.0429 C   0  0  0  0  0  0  0  0  0  0  0  0
   17.6912  -11.1790   16.2581 N   0  0  0  0  0  0  0  0  0  0  0  0
   17.1799  -10.2730   17.1231 C   0  0  0  0  0  0  0  0  0  0  0  0
   16.4860   -9.3172   16.3996 C   0  0  0  0  0  0  0  0  0  0  0  0
   17.6265  -11.4350   13.7568 C   0  0  0  0  0  0  0  0  0  0  0  0
   18.0657   -9.5757   10.3849 C   0  0  0  0  0  0  0  0  0  0  0  0
   16.8501   -9.8566    9.7232 C   0  0  0  0  0  0  0  0  0  0  0  0
   16.5442   -9.2727    8.5299 N   0  0  0  0  0  0  0  0  0  0  0  0
   17.4324   -8.4146    7.9774 C   0  0  0  0  0  0  0  0  0  0  0  0
   18.5951   -8.1300    8.5752 N   0  0  0  0  0  0  0  0  0  0  0  0
   19.2765   -7.2693    7.8433 N   0  0  0  0  0  0  0  0  0  0  0  0
   18.5029   -7.0230    6.7630 C   0  0  0  0  0  0  0  0  0  0  0  0
   17.3004   -7.7289    6.7871 C   0  0  0  0  0  0  0  0  0  0  0  0
   18.8434   -6.2375    5.8410 O   0  0  0  0  0  0  0  0  0  0  0  0
   18.9647   -8.6739    9.7638 C   0  0  0  0  0  0  0  0  0  0  0  0
   20.2655   -8.2840   10.3914 C   0  0  0  0  0  0  0  0  0  0  0  0
   20.1617   -6.8872    8.0422 H   0  0  0  0  0  0  0  0  0  0  0  0
   15.7891   -8.1531   16.9735 C   0  0  0  0  0  0  0  0  0  0  0  0
   15.8636   -7.8961   18.3721 N   0  0  0  0  0  0  0  0  0  0  0  0
   15.1231   -7.3778   16.2386 O   0  0  0  0  0  0  0  0  0  0  0  0
   16.3817   -8.4961   18.9558 H   0  0  0  0  0  0  0  0  0  0  0  0
   15.3970   -7.1185   18.7552 H   0  0  0  0  0  0  0  0  0  0  0  0
 12 13  1  0  0  0
 13 14  2  0  0  0
 14 15  1  0  0  0
 15 16  1  0  0  0
 16 17  1  0  0  0
 17 18  1  0  0  0
 18 19  1  0  0  0
 18 20  2  0  0  0
 16 21  1  0  0  0
 21 22  1  0  0  0
 12  1  1  0  0  0
  1  2  2  0  0  0
  1  3  1  0  0  0
  3  4  1  0  0  0
  4  5  1  0  0  0
  5  6  1  0  0  0
  6  7  1  0  0  0
  7  8  2  0  0  0
  8  9  1  0  0  0
  9 10  2  0  0  0
 10 24  1  0  0  0
 24 25  1  0  0  0
 24 26  2  0  0  0
  7 11  1  0  0  0
 21 12  2  0  0  0
 11  3  1  0  0  0
 19 15  2  0  0  0
 10  6  1  0  0  0
 17 23  1  0  0  0
 25 27  1  0  0  0
 25 28  1  0  0  0
M  END
>  <minimizedAffinity>
-4.81251

>  <minimizedRMSD>
0.57119

$$$$
CSC027261979 CSSS00027261979 MCULE-9364331163 MolPort-003-346-647 PubChem-24587985 Z219429984


 24 27  0  0  0  0  0  0  0  0999 V2000
   17.3206   -9.1065   15.2334 N   0  0  0  0  0  0  0  0  0  0  0  0
   17.7456  -10.3272   14.5431 C   0  0  0  0  0  0  0  0  0  0  0  0
   18.3784   -9.9705   13.2010 C   0  0  0  0  0  0  0  0  0  0  0  0
   17.4359   -9.1671   12.4271 N   0  0  0  0  0  0  0  0  0  0  0  0
   16.8575   -8.0021   13.0911 C   0  0  0  0  0  0  0  0  0  0  0  0
   16.2834   -8.4302   14.4390 C   0  0  0  0  0  0  0  0  0  0  0  0
   16.9575   -9.5636   11.1266 C   0  0  0  0  0  0  0  0  0  0  0  0
   17.5521   -9.1440    9.9266 C   0  0  0  0  0  0  0  0  0  0  0  0
   17.0385   -9.5592    8.7148 C   0  0  0  0  0  0  0  0  0  0  0  0
   17.7057   -9.0611    7.5921 C   0  0  0  0  0  0  0  0  0  0  0  0
   18.7726   -8.2235    7.9273 C   0  0  0  0  0  0  0  0  0  0  0  0
   18.8506   -8.1273    9.6157 S   0  0  0  0  0  0  0  0  0  0  0  0
   15.9574  -10.3749    8.6634 N   0  0  0  0  0  0  0  0  0  0  0  0
   15.3706  -10.7842    9.8232 C   0  0  0  0  0  0  0  0  0  0  0  0
   15.8657  -10.3792   11.0300 N   0  0  0  0  0  0  0  0  0  0  0  0
   16.1931  -10.8746   16.6211 C   0  0  0  0  0  0  0  0  0  0  0  0
   16.8201   -9.4789   16.5675 C   0  0  0  0  0  0  0  0  0  0  0  0
   15.8932   -8.4445   17.1396 C   0  0  0  0  0  0  0  0  0  0  0  0
   15.8387   -8.2634   18.5560 N   0  0  0  0  0  0  0  0  0  0  0  0
   15.1809   -7.7295   16.3826 O   0  0  0  0  0  0  0  0  0  0  0  0
   16.4115   -8.8215   19.1302 H   0  0  0  0  0  0  0  0  0  0  0  0
   14.9646   -7.2816   19.1760 C   0  0  0  0  0  0  0  0  0  0  0  0
   15.2434   -7.2372   20.6636 C   0  0  0  0  0  0  0  0  0  0  0  0
   14.0330   -7.9824   20.1433 C   0  0  0  0  0  0  0  0  0  0  0  0
 16 17  1  0  0  0
 17 18  1  0  0  0
 18 19  1  0  0  0
 19 22  1  0  0  0
 22 23  1  0  0  0
 23 24  1  0  0  0
 18 20  2  0  0  0
 17  1  1  0  0  0
  1  2  1  0  0  0
  2  3  1  0  0  0
  3  4  1  0  0  0
  4  7  1  0  0  0
  7  8  1  0  0  0
  8  9  2  0  0  0
  9 10  1  0  0  0
 10 11  2  0  0  0
 11 12  1  0  0  0
  9 13  1  0  0  0
 13 14  2  0  0  0
 14 15  1  0  0  0
  4  5  1  0  0  0
  5  6  1  0  0  0
 24 22  1  0  0  0
  6  1  1  0  0  0
 15  7  2  0  0  0
 12  8  1  0  0  0
 19 21  1  0  0  0
M  END
>  <minimizedAffinity>
-4.80913

>  <minimizedRMSD>
1.37536

$$$$
CSC026302664 9671976 CSSS00026302664 MCULE-6694104758 MolPort-005-817-036 PubChem-16291569 Z27738928 ZINC000009671976 ZINC09671976


 32 35  0  0  0  0  0  0  0  0999 V2000
   17.1034   -9.4134   15.0741 C   0  0  0  0  0  0  0  0  0  0  0  0
   17.3178  -10.0144   16.3191 C   0  0  0  0  0  0  0  0  0  0  0  0
   16.6811   -9.5218   17.4616 C   0  0  0  0  0  0  0  0  0  0  0  0
   15.8230   -8.4214   17.3667 C   0  0  0  0  0  0  0  0  0  0  0  0
   15.6047   -7.8156   16.1257 C   0  0  0  0  0  0  0  0  0  0  0  0
   16.2420   -8.3093   14.9844 C   0  0  0  0  0  0  0  0  0  0  0  0
   16.0564   -9.7578   12.3414 O   0  0  0  0  0  0  0  0  0  0  0  0
   17.2419  -10.0904   12.6060 C   0  0  0  0  0  0  0  0  0  0  0  0
   17.7795   -9.9441   13.9266 N   0  0  0  0  0  0  0  0  0  0  0  0
   18.7095  -10.2385   14.0595 H   0  0  0  0  0  0  0  0  0  0  0  0
   18.1160  -10.6104   11.5157 C   0  0  0  0  0  0  0  0  0  0  0  0
   17.8612   -9.8873   10.2753 N   0  0  0  0  0  0  0  0  0  0  0  0
   16.7152  -10.1710    9.5809 C   0  0  0  0  0  0  0  0  0  0  0  0
   16.4201   -9.5140    8.4237 N   0  0  0  0  0  0  0  0  0  0  0  0
   17.2825   -8.5736    7.9747 C   0  0  0  0  0  0  0  0  0  0  0  0
   18.4411   -8.2576    8.6398 C   0  0  0  0  0  0  0  0  0  0  0  0
   19.1948   -7.2585    8.0131 C   0  0  0  0  0  0  0  0  0  0  0  0
   18.5973   -6.7963    6.8340 C   0  0  0  0  0  0  0  0  0  0  0  0
   17.1439   -7.6397    6.5973 S   0  0  0  0  0  0  0  0  0  0  0  0
   18.7378   -8.9333    9.8225 C   0  0  0  0  0  0  0  0  0  0  0  0
   19.7943   -8.6695   10.4603 O   0  0  0  0  0  0  0  0  0  0  0  0
   15.0320   -7.7872   18.7985 S   0  0  0  0  0  0  0  0  0  0  0  0
   15.8251   -6.6470   19.3733 O   0  0  0  0  0  0  0  0  0  0  0  0
   14.9280   -8.8776   19.8266 O   0  0  0  0  0  0  0  0  0  0  0  0
   13.4446   -7.2281   18.3911 N   0  0  0  0  0  0  0  0  0  0  0  0
   12.9741   -7.6512   17.6369 H   0  0  0  0  0  0  0  0  0  0  0  0
   12.7899   -6.1779   19.1047 C   0  0  0  0  0  0  0  0  0  0  0  0
   12.1497   -5.1787   18.4378 N   0  0  0  0  0  0  0  0  0  0  0  0
   11.5159   -4.1837   19.1105 C   0  0  0  0  0  0  0  0  0  0  0  0
   11.5164   -4.1756   20.5039 C   0  0  0  0  0  0  0  0  0  0  0  0
   12.1794   -5.2040   21.1711 C   0  0  0  0  0  0  0  0  0  0  0  0
   12.8017   -6.1827   20.4636 N   0  0  0  0  0  0  0  0  0  0  0  0
  7  8  2  0  0  0
  8 11  1  0  0  0
  8  9  1  0  0  0
 11 12  1  0  0  0
 12 13  1  0  0  0
 13 14  2  0  0  0
 14 15  1  0  0  0
 15 16  2  0  0  0
 16 17  1  0  0  0
 16 20  1  0  0  0
 17 18  2  0  0  0
 18 19  1  0  0  0
 19 15  1  0  0  0
 20 21  2  0  0  0
 20 12  1  0  0  0
  9  1  1  0  0  0
  1  2  2  0  0  0
  2  3  1  0  0  0
  3  4  2  0  0  0
  4  5  1  0  0  0
  4 22  1  0  0  0
  5  6  2  0  0  0
  6  1  1  0  0  0
 22 23  2  0  0  0
 22 24  2  0  0  0
 22 25  1  0  0  0
 25 27  1  0  0  0
 27 28  2  0  0  0
 28 29  1  0  0  0
 29 30  2  0  0  0
 30 31  1  0  0  0
 31 32  2  0  0  0
 32 27  1  0  0  0
  9 10  1  0  0  0
 25 26  1  0  0  0
M  END
>  <minimizedAffinity>
-4.80732

>  <minimizedRMSD>
2.61319

$$$$
CSC027304635 CSSS00027304635 MCULE-6684871950 MolPort-005-533-279 PubChem-17410246 Z223848238


 26 28  0  0  0  0  0  0  0  0999 V2000
   16.7575   -8.3529   16.3708 C   0  0  0  0  0  0  0  0  0  0  0  0
   17.9638   -8.9777   17.0817 C   0  0  0  0  0  0  0  0  0  0  0  0
   17.7537  -10.4695   17.3459 C   0  0  0  0  0  0  0  0  0  0  0  0
   17.4339  -11.2011   16.0464 C   0  0  0  0  0  0  0  0  0  0  0  0
   16.1674  -10.6195   15.4308 C   0  0  0  0  0  0  0  0  0  0  0  0
   16.3345   -9.1791   15.2368 N   0  0  0  0  0  0  0  0  0  0  0  0
   16.1614   -8.5864   13.9402 C   0  0  0  0  0  0  0  0  0  0  0  0
   16.2934   -7.3421   13.7909 O   0  0  0  0  0  0  0  0  0  0  0  0
   15.8056   -8.1213   18.7175 N   0  0  0  0  0  0  0  0  0  0  0  0
   15.6206   -8.0751   17.3059 C   0  0  0  0  0  0  0  0  0  0  0  0
   14.4884   -7.7923   16.8361 O   0  0  0  0  0  0  0  0  0  0  0  0
   15.0488   -7.9364   19.3194 H   0  0  0  0  0  0  0  0  0  0  0  0
   16.6902   -8.3382   19.0912 H   0  0  0  0  0  0  0  0  0  0  0  0
   15.8461   -9.4248   12.7434 C   0  0  0  0  0  0  0  0  0  0  0  0
   17.2481  -10.5139   12.3413 S   0  0  0  0  0  0  0  0  0  0  0  0
   17.5150   -9.7539   10.7444 C   0  0  0  0  0  0  0  0  0  0  0  0
   16.6094   -9.8408    9.7335 N   0  0  0  0  0  0  0  0  0  0  0  0
   17.2162   -9.1447    8.7643 C   0  0  0  0  0  0  0  0  0  0  0  0
   16.7383   -8.9112    7.5169 N   0  0  0  0  0  0  0  0  0  0  0  0
   17.4978   -8.1740    6.6507 C   0  0  0  0  0  0  0  0  0  0  0  0
   18.7557   -7.6669    7.0511 C   0  0  0  0  0  0  0  0  0  0  0  0
   19.7170   -6.7250    5.9325 Cl  0  0  0  0  0  0  0  0  0  0  0  0
   19.2337   -7.9206    8.3498 C   0  0  0  0  0  0  0  0  0  0  0  0
   18.4170   -8.6753    9.1837 C   0  0  0  0  0  0  0  0  0  0  0  0
   18.6412   -9.0496   10.4499 N   0  0  0  0  0  0  0  0  0  0  0  0
   19.4210   -8.8630   11.0211 H   0  0  0  0  0  0  0  0  0  0  0  0
  9 10  1  0  0  0
 10 11  2  0  0  0
  1 10  1  0  0  0
  1  2  1  0  0  0
  2  3  1  0  0  0
  3  4  1  0  0  0
  4  5  1  0  0  0
  5  6  1  0  0  0
  6  7  1  0  0  0
  6  1  1  0  0  0
  7  8  2  0  0  0
  7 14  1  0  0  0
 14 15  1  0  0  0
 15 16  1  0  0  0
 16 17  2  0  0  0
 17 18  1  0  0  0
 18 19  2  0  0  0
 19 20  1  0  0  0
 20 21  2  0  0  0
 21 22  1  0  0  0
 21 23  1  0  0  0
 23 24  2  0  0  0
 24 25  1  0  0  0
 24 18  1  0  0  0
 25 16  1  0  0  0
  9 12  1  0  0  0
  9 13  1  0  0  0
 25 26  1  0  0  0
M  END
>  <minimizedAffinity>
-4.80518

>  <minimizedRMSD>
0.98593

$$$$
1857671431 CSSS00161204569 MCULE-3720925241 MolPort-047-375-298 PubChem-146045466


 30 34  0  0  0  0  0  0  0  0999 V2000
   16.8611   -9.0406   14.4656 C   0  0  0  0  0  0  0  0  0  0  0  0
   16.8721   -8.8719   13.0743 C   0  0  0  0  0  0  0  0  0  0  0  0
   17.3636   -9.8732   12.2289 C   0  0  0  0  0  0  0  0  0  0  0  0
   17.8340  -11.0290   12.7693 N   0  0  0  0  0  0  0  0  0  0  0  0
   17.8472  -11.2460   14.1091 C   0  0  0  0  0  0  0  0  0  0  0  0
   18.3452  -12.4553   14.6031 C   0  0  0  0  0  0  0  0  0  0  0  0
   18.3671  -12.6971   15.9777 C   0  0  0  0  0  0  0  0  0  0  0  0
   17.8906  -11.7301   16.8645 C   0  0  0  0  0  0  0  0  0  0  0  0
   17.3915  -10.5195   16.3778 C   0  0  0  0  0  0  0  0  0  0  0  0
   17.3603  -10.2558   14.9990 C   0  0  0  0  0  0  0  0  0  0  0  0
   17.3653   -9.6930   10.8032 N   0  0  0  0  0  0  0  0  0  0  0  0
   18.0229  -10.6668    9.9361 C   0  0  0  0  0  0  0  0  0  0  0  0
   17.0981  -11.0383    8.7778 C   0  0  0  0  0  0  0  0  0  0  0  0
   16.5650   -9.7947    8.0577 C   0  0  0  0  0  0  0  0  0  0  0  0
   15.9201   -8.8083    9.0379 C   0  0  0  0  0  0  0  0  0  0  0  0
   16.8598   -8.4650   10.1928 C   0  0  0  0  0  0  0  0  0  0  0  0
   17.6122   -9.1426    7.2093 C   0  0  0  0  0  0  0  0  0  0  0  0
   17.6671   -9.3032    5.8607 N   0  0  0  0  0  0  0  0  0  0  0  0
   18.7357   -8.5568    5.5362 C   0  0  0  0  0  0  0  0  0  0  0  0
   19.2757   -8.3442    4.2705 C   0  0  0  0  0  0  0  0  0  0  0  0
   20.4096   -7.5139    4.1835 C   0  0  0  0  0  0  0  0  0  0  0  0
   20.9634   -6.9285    5.3453 C   0  0  0  0  0  0  0  0  0  0  0  0
   20.3909   -7.1656    6.6093 C   0  0  0  0  0  0  0  0  0  0  0  0
   19.2715   -7.9914    6.6538 C   0  0  0  0  0  0  0  0  0  0  0  0
   18.5677   -8.3605    7.6883 O   0  0  0  0  0  0  0  0  0  0  0  0
   15.5371   -8.1591   16.4545 N   0  0  0  0  0  0  0  0  0  0  0  0
   16.3215   -7.9235   15.2891 C   0  0  0  0  0  0  0  0  0  0  0  0
   16.5582   -6.7310   14.9564 O   0  0  0  0  0  0  0  0  0  0  0  0
   15.1941   -7.3997   16.9788 H   0  0  0  0  0  0  0  0  0  0  0  0
   15.3380   -9.0813   16.7358 H   0  0  0  0  0  0  0  0  0  0  0  0
 26 27  1  0  0  0
 27 28  2  0  0  0
 27  1  1  0  0  0
  1  2  2  0  0  0
  2  3  1  0  0  0
  3  4  2  0  0  0
  4  5  1  0  0  0
  5  6  2  0  0  0
  6  7  1  0  0  0
  7  8  2  0  0  0
  8  9  1  0  0  0
  9 10  2  0  0  0
  3 11  1  0  0  0
 11 12  1  0  0  0
 12 13  1  0  0  0
 13 14  1  0  0  0
 14 15  1  0  0  0
 15 16  1  0  0  0
 14 17  1  0  0  0
 17 18  2  0  0  0
 18 19  1  0  0  0
 19 20  2  0  0  0
 20 21  1  0  0  0
 21 22  2  0  0  0
 22 23  1  0  0  0
 23 24  2  0  0  0
 24 25  1  0  0  0
 10  1  1  0  0  0
 16 11  1  0  0  0
 25 17  1  0  0  0
 10  5  1  0  0  0
 24 19  1  0  0  0
 26 29  1  0  0  0
 26 30  1  0  0  0
M  END
>  <minimizedAffinity>
-4.78652

>  <minimizedRMSD>
2.28632

$$$$
CSC028010665 8156251 CSSS00028010665 MCULE-7520927762 MolPort-005-806-959 PubChem-135739694 Z30856318 ZINC000008156251 ZINC08156251


 32 34  0  0  0  0  0  0  0  0999 V2000
   17.2884  -11.1664   14.6796 N   0  0  0  0  0  0  0  0  0  0  0  0
   17.9536  -10.6483   13.5254 C   0  0  0  0  0  0  0  0  0  0  0  0
   18.9141   -9.8416   13.6451 O   0  0  0  0  0  0  0  0  0  0  0  0
   16.5529  -11.8079   14.5496 H   0  0  0  0  0  0  0  0  0  0  0  0
   17.6493  -10.7882   16.0404 C   0  0  0  0  0  0  0  0  0  0  0  0
   17.7809   -9.2750   16.1703 C   0  0  0  0  0  0  0  0  0  0  0  0
   14.3226   -7.6124   18.0926 C   0  0  0  0  0  0  0  0  0  0  0  0
   14.3342   -7.7994   16.7059 C   0  0  0  0  0  0  0  0  0  0  0  0
   15.4626   -8.3374   16.0813 C   0  0  0  0  0  0  0  0  0  0  0  0
   16.5850   -8.6862   16.8395 C   0  0  0  0  0  0  0  0  0  0  0  0
   16.5745   -8.4996   18.2264 C   0  0  0  0  0  0  0  0  0  0  0  0
   15.4456   -7.9613   18.8512 C   0  0  0  0  0  0  0  0  0  0  0  0
   12.0328   -8.1728   19.6898 N   0  0  0  0  0  0  0  0  0  0  0  0
   12.9103   -6.9273   18.8749 S   0  0  0  0  0  0  0  0  0  0  0  0
   13.3409   -5.8856   19.8681 O   0  0  0  0  0  0  0  0  0  0  0  0
   12.0155   -6.2991   17.8437 O   0  0  0  0  0  0  0  0  0  0  0  0
   11.2126   -7.7700   20.1431 H   0  0  0  0  0  0  0  0  0  0  0  0
   12.6313   -8.6062   20.3928 H   0  0  0  0  0  0  0  0  0  0  0  0
   17.4922  -11.0482   12.1652 C   0  0  0  0  0  0  0  0  0  0  0  0
   16.7572   -9.9038   11.4795 C   0  0  0  0  0  0  0  0  0  0  0  0
   17.5738   -9.3182   10.3762 C   0  0  0  0  0  0  0  0  0  0  0  0
   17.1158   -9.3466    9.0960 N   0  0  0  0  0  0  0  0  0  0  0  0
   17.8490   -8.8195    8.0824 C   0  0  0  0  0  0  0  0  0  0  0  0
   17.3653   -8.8600    6.7717 C   0  0  0  0  0  0  0  0  0  0  0  0
   18.1234   -8.3171    5.7296 C   0  0  0  0  0  0  0  0  0  0  0  0
   19.3663   -7.7327    5.9948 C   0  0  0  0  0  0  0  0  0  0  0  0
   19.8565   -7.6884    7.3036 C   0  0  0  0  0  0  0  0  0  0  0  0
   19.1017   -8.2308    8.3531 C   0  0  0  0  0  0  0  0  0  0  0  0
   19.5493   -8.2095    9.6806 C   0  0  0  0  0  0  0  0  0  0  0  0
   20.6600   -7.6950    9.9805 O   0  0  0  0  0  0  0  0  0  0  0  0
   18.7763   -8.7505   10.6579 N   0  0  0  0  0  0  0  0  0  0  0  0
   19.0936   -8.7311   11.5897 H   0  0  0  0  0  0  0  0  0  0  0  0
 13 14  1  0  0  0
 14 15  2  0  0  0
 14 16  2  0  0  0
 14  7  1  0  0  0
  7  8  2  0  0  0
  8  9  1  0  0  0
  9 10  2  0  0  0
 10  6  1  0  0  0
 10 11  1  0  0  0
  6  5  1  0  0  0
  5  1  1  0  0  0
  1  2  1  0  0  0
  2  3  2  0  0  0
  2 19  1  0  0  0
 19 20  1  0  0  0
 20 21  1  0  0  0
 21 22  2  0  0  0
 22 23  1  0  0  0
 23 24  2  0  0  0
 24 25  1  0  0  0
 25 26  2  0  0  0
 26 27  1  0  0  0
 27 28  2  0  0  0
 28 29  1  0  0  0
 28 23  1  0  0  0
 29 30  2  0  0  0
 29 31  1  0  0  0
 31 21  1  0  0  0
 11 12  2  0  0  0
 12  7  1  0  0  0
 13 17  1  0  0  0
 13 18  1  0  0  0
  1  4  1  0  0  0
 31 32  1  0  0  0
M  END
>  <minimizedAffinity>
-4.77913

>  <minimizedRMSD>
2.92066

$$$$
CSC028160219 11486391 CSSS00028160219 MCULE-6540196536 MolPort-009-419-197 PubChem-41995409 Z193399784 ZINC000011486391 ZINC11486391


 30 33  0  0  0  0  0  0  0  0999 V2000
   17.6251  -10.0275   13.0393 C   0  0  0  0  0  0  0  0  0  0  0  0
   18.5767  -10.8549   13.0501 O   0  0  0  0  0  0  0  0  0  0  0  0
   17.3684   -9.2362   14.2054 N   0  0  0  0  0  0  0  0  0  0  0  0
   16.6064   -8.6129   14.1936 H   0  0  0  0  0  0  0  0  0  0  0  0
   14.5259   -9.9720   10.8884 C   0  0  0  0  0  0  0  0  0  0  0  0
   15.3931  -10.1072   11.9788 C   0  0  0  0  0  0  0  0  0  0  0  0
   16.7654   -9.8646   11.8368 C   0  0  0  0  0  0  0  0  0  0  0  0
   17.2534   -9.4786   10.5631 C   0  0  0  0  0  0  0  0  0  0  0  0
   18.6121   -9.2136   10.3255 C   0  0  0  0  0  0  0  0  0  0  0  0
   19.0551   -8.8353    9.0557 C   0  0  0  0  0  0  0  0  0  0  0  0
   18.1451   -8.7163    8.0038 C   0  0  0  0  0  0  0  0  0  0  0  0
   16.7901   -8.9751    8.2191 C   0  0  0  0  0  0  0  0  0  0  0  0
   16.3389   -9.3542    9.4868 C   0  0  0  0  0  0  0  0  0  0  0  0
   15.0178   -9.6015    9.6786 N   0  0  0  0  0  0  0  0  0  0  0  0
   12.7953  -11.3728   11.9931 C   0  0  0  0  0  0  0  0  0  0  0  0
   13.0586  -10.2291   11.0309 C   0  0  0  0  0  0  0  0  0  0  0  0
   12.4223  -10.5232    9.6848 C   0  0  0  0  0  0  0  0  0  0  0  0
   18.1858   -9.3140   15.4069 C   0  0  0  0  0  0  0  0  0  0  0  0
   17.3144   -9.1598   16.6382 C   0  0  0  0  0  0  0  0  0  0  0  0
   16.0085   -8.4935   16.2531 C   0  0  0  0  0  0  0  0  0  0  0  0
   15.3124   -7.9908   17.4702 C   0  0  0  0  0  0  0  0  0  0  0  0
   14.1035   -7.3705   17.4242 N   0  0  0  0  0  0  0  0  0  0  0  0
   13.8768   -7.0885   18.7146 C   0  0  0  0  0  0  0  0  0  0  0  0
   12.7692   -6.4461   19.2624 C   0  0  0  0  0  0  0  0  0  0  0  0
   12.7551   -6.2589   20.6573 C   0  0  0  0  0  0  0  0  0  0  0  0
   13.8315   -6.7112   21.4532 C   0  0  0  0  0  0  0  0  0  0  0  0
   14.9349   -7.3562   20.8638 C   0  0  0  0  0  0  0  0  0  0  0  0
   14.9141   -7.5244   19.4816 C   0  0  0  0  0  0  0  0  0  0  0  0
   15.8476   -8.1034   18.7137 N   0  0  0  0  0  0  0  0  0  0  0  0
   16.7040   -8.5078   18.9826 H   0  0  0  0  0  0  0  0  0  0  0  0
 15 16  1  0  0  0
 16 17  1  0  0  0
 16  5  1  0  0  0
  5  6  2  0  0  0
  6  7  1  0  0  0
  7  1  1  0  0  0
  7  8  2  0  0  0
  1  2  2  0  0  0
  1  3  1  0  0  0
  3 18  1  0  0  0
 18 19  1  0  0  0
 19 20  1  0  0  0
 20 21  1  0  0  0
 21 22  2  0  0  0
 22 23  1  0  0  0
 23 24  2  0  0  0
 24 25  1  0  0  0
 25 26  2  0  0  0
 26 27  1  0  0  0
 27 28  2  0  0  0
 28 29  1  0  0  0
 28 23  1  0  0  0
 29 21  1  0  0  0
  8  9  1  0  0  0
  9 10  2  0  0  0
 10 11  1  0  0  0
 11 12  2  0  0  0
 12 13  1  0  0  0
 13 14  2  0  0  0
 13  8  1  0  0  0
 14  5  1  0  0  0
  3  4  1  0  0  0
 29 30  1  0  0  0
M  END
>  <minimizedAffinity>
-4.74233

>  <minimizedRMSD>
2.33614

$$$$
CSSS00160578682 MCULE-3524993828 MolPort-005-079-770 PubChem-45210320


 37 41  0  0  0  0  0  0  0  0999 V2000
   16.1430   -9.2433   14.0279 C   0  0  0  0  0  0  0  0  0  0  0  0
   17.1850  -10.1051   14.3859 C   0  0  0  0  0  0  0  0  0  0  0  0
   17.6217  -10.1897   15.6722 N   0  0  0  0  0  0  0  0  0  0  0  0
   17.0246   -9.4640   16.6563 C   0  0  0  0  0  0  0  0  0  0  0  0
   15.9788   -8.5791   16.3737 C   0  0  0  0  0  0  0  0  0  0  0  0
   15.5347   -8.4655   15.0378 C   0  0  0  0  0  0  0  0  0  0  0  0
   14.5955   -7.6754   14.7480 O   0  0  0  0  0  0  0  0  0  0  0  0
   15.9775  -10.3090   11.7486 N   0  0  0  0  0  0  0  0  0  0  0  0
   15.7254   -9.1894   12.6056 C   0  0  0  0  0  0  0  0  0  0  0  0
   15.1467   -8.1687   12.1426 O   0  0  0  0  0  0  0  0  0  0  0  0
   16.3951  -11.1125   12.1349 H   0  0  0  0  0  0  0  0  0  0  0  0
   15.5357  -11.7417    9.8396 C   0  0  0  0  0  0  0  0  0  0  0  0
   15.6434  -10.3115   10.3306 C   0  0  0  0  0  0  0  0  0  0  0  0
   16.6891   -9.5828    9.5496 C   0  0  0  0  0  0  0  0  0  0  0  0
   16.6684   -9.5210    8.1928 N   0  0  0  0  0  0  0  0  0  0  0  0
   17.7501   -8.7778    7.9221 C   0  0  0  0  0  0  0  0  0  0  0  0
   18.2252   -8.3936    6.6706 C   0  0  0  0  0  0  0  0  0  0  0  0
   19.3934   -7.6096    6.6357 C   0  0  0  0  0  0  0  0  0  0  0  0
   20.0436   -7.2370    7.8336 C   0  0  0  0  0  0  0  0  0  0  0  0
   19.5332   -7.6432    9.0810 C   0  0  0  0  0  0  0  0  0  0  0  0
   18.3764   -8.4182    9.0764 C   0  0  0  0  0  0  0  0  0  0  0  0
   17.7217   -8.9169   10.1336 N   0  0  0  0  0  0  0  0  0  0  0  0
   17.9341   -8.8248   11.0905 H   0  0  0  0  0  0  0  0  0  0  0  0
   15.3833   -7.8064   17.4914 C   0  0  0  0  0  0  0  0  0  0  0  0
   14.3340   -7.1283   17.3182 O   0  0  0  0  0  0  0  0  0  0  0  0
   16.0071   -7.8273   18.7804 N   0  0  0  0  0  0  0  0  0  0  0  0
   16.8334   -8.3500   18.8950 H   0  0  0  0  0  0  0  0  0  0  0  0
   15.4725   -7.1088   19.9294 C   0  0  0  0  0  0  0  0  0  0  0  0
   14.4712   -7.9754   20.6886 C   0  0  0  0  0  0  0  0  0  0  0  0
   13.0368   -7.6630   20.2537 C   0  0  0  0  0  0  0  0  0  0  0  0
   12.5803   -6.2958   20.7633 C   0  0  0  0  0  0  0  0  0  0  0  0
   12.7046   -6.2311   22.2817 C   0  0  0  0  0  0  0  0  0  0  0  0
   14.1530   -6.4646   22.6966 C   0  0  0  0  0  0  0  0  0  0  0  0
   14.6280   -7.8329   22.2077 C   0  0  0  0  0  0  0  0  0  0  0  0
   18.6733  -11.1456   16.0164 C   0  0  0  0  0  0  0  0  0  0  0  0
   18.2595  -12.5583   15.6294 C   0  0  0  0  0  0  0  0  0  0  0  0
   18.1803  -12.1237   17.0734 C   0  0  0  0  0  0  0  0  0  0  0  0
 12 13  1  0  0  0
 13 14  1  0  0  0
 14 15  2  0  0  0
 15 16  1  0  0  0
 16 17  2  0  0  0
 17 18  1  0  0  0
 18 19  2  0  0  0
 19 20  1  0  0  0
 20 21  2  0  0  0
 21 22  1  0  0  0
 13  8  1  0  0  0
  8  9  1  0  0  0
  9 10  2  0  0  0
  9  1  1  0  0  0
  1  2  2  0  0  0
  2  3  1  0  0  0
  3  4  1  0  0  0
  4  5  2  0  0  0
  5  6  1  0  0  0
  6  7  2  0  0  0
  5 24  1  0  0  0
 24 25  2  0  0  0
 24 26  1  0  0  0
 26 28  1  0  0  0
 28 29  1  0  0  0
 29 30  1  0  0  0
 30 31  1  0  0  0
 31 32  1  0  0  0
 32 33  1  0  0  0
 33 34  1  0  0  0
  3 35  1  0  0  0
 35 36  1  0  0  0
 36 37  1  0  0  0
 22 14  1  0  0  0
 21 16  1  0  0  0
  6  1  1  0  0  0
 34 29  1  0  0  0
 37 35  1  0  0  0
 22 23  1  0  0  0
  8 11  1  0  0  0
 26 27  1  0  0  0
M  END
>  <minimizedAffinity>
-4.73395

>  <minimizedRMSD>
1.41211

$$$$
CSC027010080 23461781 CSSS00027010080 MCULE-5987437448 MolPort-009-458-608 PubChem-31123313 Z238096782 ZINC000023461781


 32 35  0  0  0  0  0  0  0  0999 V2000
   17.9318   -9.2879   12.0561 N   0  0  0  0  0  0  0  0  0  0  0  0
   18.8661  -10.0022   12.9266 C   0  0  0  0  0  0  0  0  0  0  0  0
   18.1328  -11.1183   13.6640 C   0  0  0  0  0  0  0  0  0  0  0  0
   16.9200  -10.5780   14.2707 N   0  0  0  0  0  0  0  0  0  0  0  0
   16.6926  -10.6941   15.6833 C   0  0  0  0  0  0  0  0  0  0  0  0
   17.5014  -11.3385   16.4033 O   0  0  0  0  0  0  0  0  0  0  0  0
   15.9763   -9.8783   13.4035 C   0  0  0  0  0  0  0  0  0  0  0  0
   16.7048   -8.7640   12.6585 C   0  0  0  0  0  0  0  0  0  0  0  0
   17.3642   -9.2147    5.9760 C   0  0  0  0  0  0  0  0  0  0  0  0
   17.2425   -9.3851    7.4132 N   0  0  0  0  0  0  0  0  0  0  0  0
   18.0686   -8.9166    8.3538 C   0  0  0  0  0  0  0  0  0  0  0  0
   17.6239   -9.2891    9.5804 C   0  0  0  0  0  0  0  0  0  0  0  0
   18.3391   -8.9199   10.7243 C   0  0  0  0  0  0  0  0  0  0  0  0
   19.4829   -8.1921   10.5303 N   0  0  0  0  0  0  0  0  0  0  0  0
   19.9099   -7.8304    9.2785 C   0  0  0  0  0  0  0  0  0  0  0  0
   19.1985   -8.1933    8.1709 N   0  0  0  0  0  0  0  0  0  0  0  0
   16.4693  -10.0235    9.3552 C   0  0  0  0  0  0  0  0  0  0  0  0
   16.2672  -10.0587    8.0103 N   0  0  0  0  0  0  0  0  0  0  0  0
   15.5221  -10.0287   16.3326 C   0  0  0  0  0  0  0  0  0  0  0  0
   15.8003   -8.2346   16.4375 S   0  0  0  0  0  0  0  0  0  0  0  0
   15.6763   -8.2269   18.2510 C   0  0  0  0  0  0  0  0  0  0  0  0
   14.5070   -7.4130   18.6795 C   0  0  0  0  0  0  0  0  0  0  0  0
   14.3686   -7.0620   20.0620 N   0  0  0  0  0  0  0  0  0  0  0  0
   13.6660   -7.0334   17.8211 O   0  0  0  0  0  0  0  0  0  0  0  0
   15.0610   -7.4002   20.6748 H   0  0  0  0  0  0  0  0  0  0  0  0
   13.3255   -6.2690   20.6448 C   0  0  0  0  0  0  0  0  0  0  0  0
   13.0806   -6.3823   22.0182 C   0  0  0  0  0  0  0  0  0  0  0  0
   12.0756   -5.6214   22.6231 C   0  0  0  0  0  0  0  0  0  0  0  0
   11.3083   -4.7411   21.8558 C   0  0  0  0  0  0  0  0  0  0  0  0
   10.3374   -4.0003   22.4422 F   0  0  0  0  0  0  0  0  0  0  0  0
   11.5463   -4.6207   20.4841 C   0  0  0  0  0  0  0  0  0  0  0  0
   12.5512   -5.3821   19.8806 C   0  0  0  0  0  0  0  0  0  0  0  0
  9 10  1  0  0  0
 10 11  1  0  0  0
 11 12  2  0  0  0
 12 13  1  0  0  0
 13  1  1  0  0  0
  1  2  1  0  0  0
  2  3  1  0  0  0
  3  4  1  0  0  0
  4  5  1  0  0  0
  5 19  1  0  0  0
 19 20  1  0  0  0
 20 21  1  0  0  0
 21 22  1  0  0  0
 22 23  1  0  0  0
 23 26  1  0  0  0
 26 27  2  0  0  0
 27 28  1  0  0  0
 28 29  2  0  0  0
 29 30  1  0  0  0
 29 31  1  0  0  0
 31 32  2  0  0  0
 22 24  2  0  0  0
  5  6  2  0  0  0
  4  7  1  0  0  0
  7  8  1  0  0  0
 13 14  2  0  0  0
 14 15  1  0  0  0
 15 16  2  0  0  0
 12 17  1  0  0  0
 17 18  2  0  0  0
 18 10  1  0  0  0
 16 11  1  0  0  0
  8  1  1  0  0  0
 32 26  1  0  0  0
 23 25  1  0  0  0
M  END
>  <minimizedAffinity>
-4.71397

>  <minimizedRMSD>
2.18134

$$$$
CSC026147129 95992377 CSSS00026147129 MCULE-2855066553 MolPort-028-793-181 PubChem-75447144 Z1611183175 ZINC000095992377 ZINC95992377


 26 28  0  0  0  0  0  0  0  0999 V2000
   17.2275  -10.1910   16.1554 C   0  0  0  0  0  0  0  0  0  0  0  0
   17.7948  -10.9330   15.1612 N   0  0  0  0  0  0  0  0  0  0  0  0
   17.5524  -10.6901   13.8473 C   0  0  0  0  0  0  0  0  0  0  0  0
   16.6968   -9.6513   13.4730 C   0  0  0  0  0  0  0  0  0  0  0  0
   16.1036   -8.8771   14.4679 C   0  0  0  0  0  0  0  0  0  0  0  0
   16.3552   -9.1295   15.8235 C   0  0  0  0  0  0  0  0  0  0  0  0
   15.6966   -8.2736   16.8403 C   0  0  0  0  0  0  0  0  0  0  0  0
   16.1730   -8.2128   18.1812 N   0  0  0  0  0  0  0  0  0  0  0  0
   14.6929   -7.5807   16.5229 O   0  0  0  0  0  0  0  0  0  0  0  0
   16.9556   -8.7460   18.4502 H   0  0  0  0  0  0  0  0  0  0  0  0
   15.7196   -7.6375   18.8390 H   0  0  0  0  0  0  0  0  0  0  0  0
   18.2223  -11.6570   17.8719 C   0  0  0  0  0  0  0  0  0  0  0  0
   17.5137  -10.4870   17.4909 O   0  0  0  0  0  0  0  0  0  0  0  0
   16.4205   -9.3676   12.1001 N   0  0  0  0  0  0  0  0  0  0  0  0
   16.3089   -8.4284   11.8268 H   0  0  0  0  0  0  0  0  0  0  0  0
   16.2970  -10.4059   11.0886 C   0  0  0  0  0  0  0  0  0  0  0  0
   16.5760   -9.8287    9.7431 C   0  0  0  0  0  0  0  0  0  0  0  0
   15.7135   -9.8323    8.6572 C   0  0  0  0  0  0  0  0  0  0  0  0
   16.3030   -9.1629    7.6332 N   0  0  0  0  0  0  0  0  0  0  0  0
   17.4916   -8.7698    8.1323 C   0  0  0  0  0  0  0  0  0  0  0  0
   18.4593   -8.0332    7.4530 C   0  0  0  0  0  0  0  0  0  0  0  0
   19.6336   -7.7108    8.1533 C   0  0  0  0  0  0  0  0  0  0  0  0
   19.8065   -8.1234    9.4887 C   0  0  0  0  0  0  0  0  0  0  0  0
   21.0506   -7.7774   10.2237 C   0  0  0  0  0  0  0  0  0  0  0  0
   18.7965   -8.8628   10.1202 C   0  0  0  0  0  0  0  0  0  0  0  0
   17.6813   -9.1526    9.4033 N   0  0  0  0  0  0  0  0  0  0  0  0
 12 13  1  0  0  0
 13  1  1  0  0  0
  1  2  2  0  0  0
  2  3  1  0  0  0
  3  4  2  0  0  0
  4 14  1  0  0  0
  4  5  1  0  0  0
 14 16  1  0  0  0
 16 17  1  0  0  0
 17 18  2  0  0  0
 18 19  1  0  0  0
 19 20  2  0  0  0
 20 21  1  0  0  0
 21 22  2  0  0  0
 22 23  1  0  0  0
 23 24  1  0  0  0
 23 25  2  0  0  0
 25 26  1  0  0  0
 26 17  1  0  0  0
 26 20  1  0  0  0
  5  6  2  0  0  0
  6  7  1  0  0  0
  6  1  1  0  0  0
  7  8  1  0  0  0
  7  9  2  0  0  0
 14 15  1  0  0  0
  8 10  1  0  0  0
  8 11  1  0  0  0
M  END
>  <minimizedAffinity>
-4.71188

>  <minimizedRMSD>
0.69100

$$$$
CSSS00160105938 MCULE-9792078727 MolPort-029-896-517 PubChem-72885400


 31 33  0  0  0  0  0  0  0  0999 V2000
   15.8382   -9.6122   11.4861 N   0  0  0  0  0  0  0  0  0  0  0  0
   16.7511   -9.8792   12.5526 C   0  0  0  0  0  0  0  0  0  0  0  0
   17.5994  -10.8051   12.4413 O   0  0  0  0  0  0  0  0  0  0  0  0
   16.6796   -9.0845   13.7429 N   0  0  0  0  0  0  0  0  0  0  0  0
   15.1660   -8.9034   11.6083 H   0  0  0  0  0  0  0  0  0  0  0  0
   15.9774   -8.3950   13.7694 H   0  0  0  0  0  0  0  0  0  0  0  0
   17.5232   -9.1861   14.9020 C   0  0  0  0  0  0  0  0  0  0  0  0
   16.9441   -9.1777   16.1860 C   0  0  0  0  0  0  0  0  0  0  0  0
   17.7583   -9.2675   17.3213 C   0  0  0  0  0  0  0  0  0  0  0  0
   19.1449   -9.3691   17.1894 C   0  0  0  0  0  0  0  0  0  0  0  0
   19.7249   -9.3809   15.9201 C   0  0  0  0  0  0  0  0  0  0  0  0
   18.9184   -9.2892   14.7833 C   0  0  0  0  0  0  0  0  0  0  0  0
   15.4634   -9.0536   16.3673 C   0  0  0  0  0  0  0  0  0  0  0  0
   15.0793   -7.6528   16.8281 C   0  0  0  0  0  0  0  0  0  0  0  0
   14.4436   -7.6831   18.1774 C   0  0  0  0  0  0  0  0  0  0  0  0
   15.1588   -7.8773   19.1966 O   0  0  0  0  0  0  0  0  0  0  0  0
   13.0352   -7.4817   18.3060 N   0  0  0  0  0  0  0  0  0  0  0  0
   12.3693   -7.5095   19.5971 C   0  0  0  0  0  0  0  0  0  0  0  0
   12.5000   -7.3192   17.4958 H   0  0  0  0  0  0  0  0  0  0  0  0
   15.8585  -10.3432   10.2256 C   0  0  0  0  0  0  0  0  0  0  0  0
   16.7543   -9.6553    9.2399 C   0  0  0  0  0  0  0  0  0  0  0  0
   17.7143   -8.6940    9.5530 C   0  0  0  0  0  0  0  0  0  0  0  0
   18.2807   -8.3708    8.3828 N   0  0  0  0  0  0  0  0  0  0  0  0
   19.2703   -7.4872    8.1138 C   0  0  0  0  0  0  0  0  0  0  0  0
   19.6753   -7.3497    6.7796 C   0  0  0  0  0  0  0  0  0  0  0  0
   19.0391   -8.1304    5.7946 C   0  0  0  0  0  0  0  0  0  0  0  0
   18.0463   -9.0041    6.1338 N   0  0  0  0  0  0  0  0  0  0  0  0
   17.6845   -9.1060    7.4365 C   0  0  0  0  0  0  0  0  0  0  0  0
   16.7290   -9.9228    7.9111 N   0  0  0  0  0  0  0  0  0  0  0  0
   13.4309  -10.2770   10.8006 C   0  0  0  0  0  0  0  0  0  0  0  0
   14.4417  -10.4557    9.6834 C   0  0  0  0  0  0  0  0  0  0  0  0
 30 31  1  0  0  0
 20 31  1  0  0  0
 20  1  1  0  0  0
 20 21  1  0  0  0
  1  2  1  0  0  0
  2  3  2  0  0  0
  2  4  1  0  0  0
  4  7  1  0  0  0
  7  8  2  0  0  0
  8 13  1  0  0  0
  8  9  1  0  0  0
 13 14  1  0  0  0
 14 15  1  0  0  0
 15 16  2  0  0  0
 15 17  1  0  0  0
 17 18  1  0  0  0
  9 10  2  0  0  0
 10 11  1  0  0  0
 11 12  2  0  0  0
 12  7  1  0  0  0
 21 22  2  0  0  0
 22 23  1  0  0  0
 23 24  1  0  0  0
 24 25  2  0  0  0
 25 26  1  0  0  0
 26 27  2  0  0  0
 27 28  1  0  0  0
 28 29  2  0  0  0
 28 23  1  0  0  0
 29 21  1  0  0  0
  1  5  1  0  0  0
  4  6  1  0  0  0
 17 19  1  0  0  0
M  END
>  <minimizedAffinity>
-4.70437

>  <minimizedRMSD>
1.94087

$$$$
72470021 CSSS00159817490 MCULE-5461131403 MolPort-021-769-220 PubChem-70767543 ZINC000072470021 ZINC72470021


 29 32  0  0  0  0  0  0  0  0999 V2000
   18.1799  -10.0156   11.9066 C   0  0  0  0  0  0  0  0  0  0  0  0
   16.7940  -10.0399   11.9438 C   0  0  0  0  0  0  0  0  0  0  0  0
   15.8687  -10.2980   12.9399 C   0  0  0  0  0  0  0  0  0  0  0  0
   14.6357  -10.1708   12.3767 N   0  0  0  0  0  0  0  0  0  0  0  0
   14.7773   -9.8500   11.0955 N   0  0  0  0  0  0  0  0  0  0  0  0
   13.6756   -9.6322   10.1747 C   0  0  0  0  0  0  0  0  0  0  0  0
   16.0832   -9.7685   10.8244 C   0  0  0  0  0  0  0  0  0  0  0  0
   16.6678   -9.4668    9.6400 N   0  0  0  0  0  0  0  0  0  0  0  0
   18.0346   -9.4393    9.5884 C   0  0  0  0  0  0  0  0  0  0  0  0
   18.7764   -9.7117   10.7138 N   0  0  0  0  0  0  0  0  0  0  0  0
   18.7115   -9.1098    8.2984 C   0  0  0  0  0  0  0  0  0  0  0  0
   19.3182   -7.7163    8.3380 C   0  0  0  0  0  0  0  0  0  0  0  0
   18.7187   -6.9466    7.1770 C   0  0  0  0  0  0  0  0  0  0  0  0
   18.1253   -7.9843    6.2512 C   0  0  0  0  0  0  0  0  0  0  0  0
   17.7238   -9.1317    7.1479 C   0  0  0  0  0  0  0  0  0  0  0  0
   18.9535  -10.2979   13.0730 N   0  0  0  0  0  0  0  0  0  0  0  0
   19.3942  -11.1745   13.1534 H   0  0  0  0  0  0  0  0  0  0  0  0
   19.1095   -9.3287   14.1454 C   0  0  0  0  0  0  0  0  0  0  0  0
   16.5799   -9.1863   16.9662 C   0  0  0  0  0  0  0  0  0  0  0  0
   17.3881   -8.8110   15.8829 C   0  0  0  0  0  0  0  0  0  0  0  0
   18.2742   -9.7288   15.3094 C   0  0  0  0  0  0  0  0  0  0  0  0
   18.3474  -11.0330   15.8079 C   0  0  0  0  0  0  0  0  0  0  0  0
   17.5455  -11.4150   16.8864 C   0  0  0  0  0  0  0  0  0  0  0  0
   16.6657  -10.4948   17.4640 C   0  0  0  0  0  0  0  0  0  0  0  0
   14.7102   -7.1132   19.6366 C   0  0  0  0  0  0  0  0  0  0  0  0
   15.6105   -8.0550   18.9931 N   0  0  0  0  0  0  0  0  0  0  0  0
   15.6494   -8.2180   17.5728 C   0  0  0  0  0  0  0  0  0  0  0  0
   14.8860   -7.5317   16.8390 O   0  0  0  0  0  0  0  0  0  0  0  0
   16.2123   -8.5977   19.5521 H   0  0  0  0  0  0  0  0  0  0  0  0
 25 26  1  0  0  0
 26 27  1  0  0  0
 27 28  2  0  0  0
 27 19  1  0  0  0
 19 20  2  0  0  0
 20 21  1  0  0  0
 21 18  1  0  0  0
 21 22  2  0  0  0
 18 16  1  0  0  0
 16  1  1  0  0  0
  1  2  2  0  0  0
  2  3  1  0  0  0
  3  4  2  0  0  0
  4  5  1  0  0  0
  5  6  1  0  0  0
  5  7  1  0  0  0
  7  8  2  0  0  0
  7  2  1  0  0  0
  8  9  1  0  0  0
  9 10  2  0  0  0
  9 11  1  0  0  0
 10  1  1  0  0  0
 11 12  1  0  0  0
 12 13  1  0  0  0
 13 14  1  0  0  0
 14 15  1  0  0  0
 15 11  1  0  0  0
 22 23  1  0  0  0
 23 24  2  0  0  0
 24 19  1  0  0  0
 26 29  1  0  0  0
 16 17  1  0  0  0
M  END
>  <minimizedAffinity>
-4.69288

>  <minimizedRMSD>
3.03121

$$$$
CSC026837285 32748124 CSSS00026837285 MCULE-4472497763 MolPort-009-378-992 PubChem-39969816 Z102152618 ZINC000032748124 ZINC32748124


 29 31  0  0  0  0  0  0  0  0999 V2000
   16.9636   -9.9678   12.8981 C   0  0  0  0  0  0  0  0  0  0  0  0
   17.7625  -11.0186   12.4227 C   0  0  0  0  0  0  0  0  0  0  0  0
   18.8011  -11.5335   13.2032 C   0  0  0  0  0  0  0  0  0  0  0  0
   19.0462  -11.0045   14.4720 C   0  0  0  0  0  0  0  0  0  0  0  0
   18.2565   -9.9594   14.9609 C   0  0  0  0  0  0  0  0  0  0  0  0
   17.2160   -9.4496   14.1774 C   0  0  0  0  0  0  0  0  0  0  0  0
   14.0452   -9.8400   10.4025 C   0  0  0  0  0  0  0  0  0  0  0  0
   15.4121  -10.0306   10.8610 N   0  0  0  0  0  0  0  0  0  0  0  0
   15.8422   -9.4245   12.0958 C   0  0  0  0  0  0  0  0  0  0  0  0
   15.2359   -8.4013   12.5197 O   0  0  0  0  0  0  0  0  0  0  0  0
   16.3013  -10.8176   10.0157 C   0  0  0  0  0  0  0  0  0  0  0  0
   17.0988   -9.9259    9.1239 C   0  0  0  0  0  0  0  0  0  0  0  0
   17.0595  -10.0081    7.7705 N   0  0  0  0  0  0  0  0  0  0  0  0
   17.8678   -9.0757    7.2078 C   0  0  0  0  0  0  0  0  0  0  0  0
   18.0433   -8.9142    5.8318 C   0  0  0  0  0  0  0  0  0  0  0  0
   18.9135   -7.9075    5.3808 C   0  0  0  0  0  0  0  0  0  0  0  0
   19.5899   -7.0813    6.3013 C   0  0  0  0  0  0  0  0  0  0  0  0
   19.4053   -7.2523    7.6829 C   0  0  0  0  0  0  0  0  0  0  0  0
   18.5384   -8.2568    8.1036 C   0  0  0  0  0  0  0  0  0  0  0  0
   18.1218   -8.6920    9.6694 S   0  0  0  0  0  0  0  0  0  0  0  0
   18.5283   -9.3235   16.5752 S   0  0  0  0  0  0  0  0  0  0  0  0
   18.5265  -10.4458   17.5769 O   0  0  0  0  0  0  0  0  0  0  0  0
   19.8649   -8.6362   16.6217 O   0  0  0  0  0  0  0  0  0  0  0  0
   17.2836   -8.1874   16.9757 N   0  0  0  0  0  0  0  0  0  0  0  0
   17.2075   -7.4820   16.2429 H   0  0  0  0  0  0  0  0  0  0  0  0
   16.0339   -8.9248   17.0864 C   0  0  0  0  0  0  0  0  0  0  0  0
   14.9198   -7.9941   17.5295 C   0  0  0  0  0  0  0  0  0  0  0  0
   15.0363   -7.7041   18.9606 C   0  0  0  0  0  0  0  0  0  0  0  0
   15.1274   -7.4742   20.0921 N   0  0  0  0  0  0  0  0  0  0  0  0
  7  8  1  0  0  0
  8 11  1  0  0  0
  8  9  1  0  0  0
 11 12  1  0  0  0
 12 13  2  0  0  0
 13 14  1  0  0  0
 14 15  2  0  0  0
 15 16  1  0  0  0
 16 17  2  0  0  0
 17 18  1  0  0  0
 18 19  2  0  0  0
 19 20  1  0  0  0
 19 14  1  0  0  0
 20 12  1  0  0  0
  9 10  2  0  0  0
  9  1  1  0  0  0
  1  2  2  0  0  0
  2  3  1  0  0  0
  3  4  2  0  0  0
  4  5  1  0  0  0
  5  6  2  0  0  0
  5 21  1  0  0  0
  6  1  1  0  0  0
 21 22  2  0  0  0
 21 23  2  0  0  0
 21 24  1  0  0  0
 24 26  1  0  0  0
 26 27  1  0  0  0
 27 28  1  0  0  0
 28 29  3  0  0  0
 24 25  1  0  0  0
M  END
>  <minimizedAffinity>
-4.68952

>  <minimizedRMSD>
2.01347

$$$$
CSSS01187756220 Z3587675213


 28 31  0  0  0  0  0  0  0  0999 V2000
   17.6614   -9.3504   17.6864 C   0  0  0  0  0  0  0  0  0  0  0  0
   18.8137   -8.3640   17.4224 C   0  0  0  0  0  0  0  0  0  0  0  0
   19.3073   -8.3254   15.9724 C   0  0  0  0  0  0  0  0  0  0  0  0
   18.1886   -8.6796   15.0082 C   0  0  0  0  0  0  0  0  0  0  0  0
   17.7398  -10.0435   15.2825 N   0  0  0  0  0  0  0  0  0  0  0  0
   17.5537  -10.4947   16.6671 C   0  0  0  0  0  0  0  0  0  0  0  0
   17.5849  -10.9842   14.2078 C   0  0  0  0  0  0  0  0  0  0  0  0
   17.2484  -12.1748   14.4586 O   0  0  0  0  0  0  0  0  0  0  0  0
   13.1981   -7.4311   16.7114 C   0  0  0  0  0  0  0  0  0  0  0  0
   14.4489   -7.8219   17.4183 C   0  0  0  0  0  0  0  0  0  0  0  0
   15.4494   -8.5107   16.8460 N   0  0  0  0  0  0  0  0  0  0  0  0
   16.3570   -8.6353   17.8414 C   0  0  0  0  0  0  0  0  0  0  0  0
   15.9782   -8.0652   19.0062 N   0  0  0  0  0  0  0  0  0  0  0  0
   14.7689   -7.5521   18.7261 C   0  0  0  0  0  0  0  0  0  0  0  0
   13.9316   -6.8122   19.7101 C   0  0  0  0  0  0  0  0  0  0  0  0
   16.4712   -8.0334   19.8578 H   0  0  0  0  0  0  0  0  0  0  0  0
   17.8109  -10.5694   12.8135 C   0  0  0  0  0  0  0  0  0  0  0  0
   16.8234  -10.1306   12.0384 C   0  0  0  0  0  0  0  0  0  0  0  0
   17.0520   -9.7181   10.6500 C   0  0  0  0  0  0  0  0  0  0  0  0
   16.1864  -10.1678    9.6483 C   0  0  0  0  0  0  0  0  0  0  0  0
   16.3924   -9.7891    8.3585 N   0  0  0  0  0  0  0  0  0  0  0  0
   17.4294   -8.9777    8.0250 C   0  0  0  0  0  0  0  0  0  0  0  0
   17.6338   -8.5934    6.6971 C   0  0  0  0  0  0  0  0  0  0  0  0
   18.7075   -7.7570    6.3729 C   0  0  0  0  0  0  0  0  0  0  0  0
   19.5755   -7.3053    7.3738 C   0  0  0  0  0  0  0  0  0  0  0  0
   19.3749   -7.6875    8.7046 C   0  0  0  0  0  0  0  0  0  0  0  0
   18.3040   -8.5226    9.0332 C   0  0  0  0  0  0  0  0  0  0  0  0
   18.0936   -8.9039   10.3196 N   0  0  0  0  0  0  0  0  0  0  0  0
  9 10  1  0  0  0
 10 11  1  0  0  0
 11 12  2  0  0  0
 12 13  1  0  0  0
 13 14  1  0  0  0
 14 15  1  0  0  0
 12  1  1  0  0  0
  1  2  1  0  0  0
  2  3  1  0  0  0
  3  4  1  0  0  0
  4  5  1  0  0  0
  5  6  1  0  0  0
  5  7  1  0  0  0
  7  8  2  0  0  0
  7 17  1  0  0  0
 17 18  2  0  0  0
 18 19  1  0  0  0
 19 20  2  0  0  0
 20 21  1  0  0  0
 21 22  2  0  0  0
 22 23  1  0  0  0
 23 24  2  0  0  0
 24 25  1  0  0  0
 25 26  2  0  0  0
 26 27  1  0  0  0
 27 28  2  0  0  0
 14 10  2  0  0  0
  6  1  1  0  0  0
 28 19  1  0  0  0
 27 22  1  0  0  0
 13 16  1  0  0  0
M  END
>  <minimizedAffinity>
-4.68846

>  <minimizedRMSD>
1.65266

$$$$
CSSS19587509223


 30 33  0  0  0  0  0  0  0  0999 V2000
   17.9507  -10.3142   13.1192 C   0  0  0  0  0  0  0  0  0  0  0  0
   18.5299  -11.3694   12.7453 O   0  0  0  0  0  0  0  0  0  0  0  0
   17.7374  -10.0654   14.5176 N   0  0  0  0  0  0  0  0  0  0  0  0
   18.1620  -11.0620   15.5060 C   0  0  0  0  0  0  0  0  0  0  0  0
   17.7845  -10.6346   16.9231 C   0  0  0  0  0  0  0  0  0  0  0  0
   16.3155  -10.2150   16.9707 C   0  0  0  0  0  0  0  0  0  0  0  0
   15.9543   -9.1416   15.9266 C   0  0  0  0  0  0  0  0  0  0  0  0
   17.0979   -8.8267   14.9614 C   0  0  0  0  0  0  0  0  0  0  0  0
   17.4660   -9.3544   12.0772 C   0  0  0  0  0  0  0  0  0  0  0  0
   17.3179  -10.0331   10.7185 C   0  0  0  0  0  0  0  0  0  0  0  0
   19.7049   -8.3643   11.2932 C   0  0  0  0  0  0  0  0  0  0  0  0
   19.1509   -8.4658    9.9121 C   0  0  0  0  0  0  0  0  0  0  0  0
   19.7649   -7.7792    8.9059 N   0  0  0  0  0  0  0  0  0  0  0  0
   19.2714   -7.8622    7.6750 N   0  0  0  0  0  0  0  0  0  0  0  0
   19.6954   -7.2841    6.5443 C   0  0  0  0  0  0  0  0  0  0  0  0
   18.8687   -7.6588    5.5361 N   0  0  0  0  0  0  0  0  0  0  0  0
   17.9317   -8.4664    6.0313 N   0  0  0  0  0  0  0  0  0  0  0  0
   18.1996   -8.5760    7.3432 C   0  0  0  0  0  0  0  0  0  0  0  0
   17.5084   -9.3068    8.3033 C   0  0  0  0  0  0  0  0  0  0  0  0
   16.2968  -10.0989    7.9316 C   0  0  0  0  0  0  0  0  0  0  0  0
   18.0008   -9.2537    9.6290 C   0  0  0  0  0  0  0  0  0  0  0  0
   15.5039   -7.8619   16.6107 C   0  0  0  0  0  0  0  0  0  0  0  0
   14.5901   -8.1656   17.7035 N   0  0  0  0  0  0  0  0  0  0  0  0
   13.2312   -8.0093   17.1883 C   0  0  0  0  0  0  0  0  0  0  0  0
   12.6255   -6.7655   17.7989 C   0  0  0  0  0  0  0  0  0  0  0  0
   13.4348   -6.5318   19.0404 C   0  0  0  0  0  0  0  0  0  0  0  0
   14.7820   -7.1334   18.7190 C   0  0  0  0  0  0  0  0  0  0  0  0
   15.3831   -7.7354   19.9772 C   0  0  0  0  0  0  0  0  0  0  0  0
   16.5538   -7.0572   20.3171 O   0  0  0  0  0  0  0  0  0  0  0  0
   17.1940   -7.1341   19.5925 H   0  0  0  0  0  0  0  0  0  0  0  0
 11 12  1  0  0  0
 12 13  2  0  0  0
 13 14  1  0  0  0
 14 15  1  0  0  0
 15 16  2  0  0  0
 16 17  1  0  0  0
 17 18  2  0  0  0
 18 19  1  0  0  0
 19 20  1  0  0  0
 19 21  2  0  0  0
 21 10  1  0  0  0
 10  9  1  0  0  0
  9  1  1  0  0  0
  1  2  2  0  0  0
  1  3  1  0  0  0
  3  4  1  0  0  0
  4  5  1  0  0  0
  5  6  1  0  0  0
  6  7  1  0  0  0
  7 22  1  0  0  0
 22 23  1  0  0  0
 23 24  1  0  0  0
 24 25  1  0  0  0
 25 26  1  0  0  0
 26 27  1  0  0  0
 27 28  1  0  0  0
 28 29  1  0  0  0
  7  8  1  0  0  0
 21 12  1  0  0  0
  8  3  1  0  0  0
 18 14  1  0  0  0
 27 23  1  0  0  0
 29 30  1  0  0  0
M  END
>  <minimizedAffinity>
-4.67894

>  <minimizedRMSD>
2.55084

$$$$
CSC027109759 CSSS00027109759 MCULE-3922524114 MolPort-009-523-621 PubChem-51073979 Z146331056


 27 29  0  0  0  0  0  0  0  0999 V2000
   18.7039   -8.9749   10.6685 N   0  0  0  0  0  0  0  0  0  0  0  0
   17.6120   -9.5801   11.3775 C   0  0  0  0  0  0  0  0  0  0  0  0
   16.5798   -9.9713   10.7712 O   0  0  0  0  0  0  0  0  0  0  0  0
   19.4778   -8.6928   11.2078 H   0  0  0  0  0  0  0  0  0  0  0  0
   17.6909   -9.7536   12.8568 C   0  0  0  0  0  0  0  0  0  0  0  0
   18.0354  -11.2019   13.2097 C   0  0  0  0  0  0  0  0  0  0  0  0
   18.1132  -11.3764   14.7251 C   0  0  0  0  0  0  0  0  0  0  0  0
   16.7862  -10.9782   15.3638 C   0  0  0  0  0  0  0  0  0  0  0  0
   16.4323   -9.6254   14.9445 N   0  0  0  0  0  0  0  0  0  0  0  0
   16.3748   -9.3383   13.5140 C   0  0  0  0  0  0  0  0  0  0  0  0
   16.1691   -8.6005   15.9111 C   0  0  0  0  0  0  0  0  0  0  0  0
   16.2383   -8.8888   17.3047 N   0  0  0  0  0  0  0  0  0  0  0  0
   15.8742   -7.4342   15.5369 O   0  0  0  0  0  0  0  0  0  0  0  0
   16.4677   -9.7966   17.6087 H   0  0  0  0  0  0  0  0  0  0  0  0
   16.0566   -8.1802   17.9635 H   0  0  0  0  0  0  0  0  0  0  0  0
   19.0261   -8.0354    5.2548 N   0  0  0  0  0  0  0  0  0  0  0  0
   19.5425   -6.8112    5.2341 N   0  0  0  0  0  0  0  0  0  0  0  0
   19.7394   -6.3861    6.5120 C   0  0  0  0  0  0  0  0  0  0  0  0
   19.3209   -7.4049    7.3462 C   0  0  0  0  0  0  0  0  0  0  0  0
   19.2876   -7.5290    8.7287 C   0  0  0  0  0  0  0  0  0  0  0  0
   18.7843   -8.7389    9.2567 C   0  0  0  0  0  0  0  0  0  0  0  0
   18.3443   -9.7525    8.3710 C   0  0  0  0  0  0  0  0  0  0  0  0
   18.4005   -9.5753    7.0160 N   0  0  0  0  0  0  0  0  0  0  0  0
   18.8882   -8.4042    6.5369 C   0  0  0  0  0  0  0  0  0  0  0  0
   19.9339   -9.4133    3.4438 C   0  0  0  0  0  0  0  0  0  0  0  0
   18.6899   -8.7932    4.0534 C   0  0  0  0  0  0  0  0  0  0  0  0
   17.9947   -7.9067    3.0363 C   0  0  0  0  0  0  0  0  0  0  0  0
 25 26  1  0  0  0
 26 27  1  0  0  0
 26 16  1  0  0  0
 16 17  1  0  0  0
 17 18  2  0  0  0
 18 19  1  0  0  0
 19 20  2  0  0  0
 20 21  1  0  0  0
 21  1  1  0  0  0
 21 22  2  0  0  0
  1  2  1  0  0  0
  2  3  2  0  0  0
  5  2  1  0  0  0
  5  6  1  0  0  0
  6  7  1  0  0  0
  7  8  1  0  0  0
  8  9  1  0  0  0
  9 10  1  0  0  0
  9 11  1  0  0  0
 10  5  1  0  0  0
 11 12  1  0  0  0
 11 13  2  0  0  0
 22 23  1  0  0  0
 23 24  2  0  0  0
 24 16  1  0  0  0
 24 19  1  0  0  0
  1  4  1  0  0  0
 12 14  1  0  0  0
 12 15  1  0  0  0
M  END
>  <minimizedAffinity>
-4.65613

>  <minimizedRMSD>
2.18778

$$$$
CSSS00160091771 MCULE-5481760230 MolPort-030-059-836 PubChem-74246475


 29 32  0  0  0  0  0  0  0  0999 V2000
   15.5945  -10.2246   11.1368 N   0  0  0  0  0  0  0  0  0  0  0  0
   16.6967  -10.3513   12.0400 C   0  0  0  0  0  0  0  0  0  0  0  0
   17.7818  -10.8553   11.6427 O   0  0  0  0  0  0  0  0  0  0  0  0
   14.7448   -9.8642   11.4794 H   0  0  0  0  0  0  0  0  0  0  0  0
   16.5520   -9.8910   13.4331 C   0  0  0  0  0  0  0  0  0  0  0  0
   17.1671  -10.4345   14.5746 C   0  0  0  0  0  0  0  0  0  0  0  0
   18.0934  -11.6063   14.5441 C   0  0  0  0  0  0  0  0  0  0  0  0
   16.8129   -9.7488   15.7518 C   0  0  0  0  0  0  0  0  0  0  0  0
   15.9445   -8.6999   15.5237 C   0  0  0  0  0  0  0  0  0  0  0  0
   15.5845   -8.5765   13.8935 S   0  0  0  0  0  0  0  0  0  0  0  0
   15.4790   -7.9100   16.5201 N   0  0  0  0  0  0  0  0  0  0  0  0
   15.8819   -8.1584   17.7976 C   0  0  0  0  0  0  0  0  0  0  0  0
   15.3850   -7.3055   18.9084 C   0  0  0  0  0  0  0  0  0  0  0  0
   16.7406   -9.1874   18.0627 N   0  0  0  0  0  0  0  0  0  0  0  0
   17.2180   -9.9914   17.0705 C   0  0  0  0  0  0  0  0  0  0  0  0
   18.0082  -10.9306   17.3521 O   0  0  0  0  0  0  0  0  0  0  0  0
   17.0212   -9.3522   18.9919 H   0  0  0  0  0  0  0  0  0  0  0  0
   14.3125  -10.4345    9.0866 C   0  0  0  0  0  0  0  0  0  0  0  0
   15.6732  -10.6051    9.7330 C   0  0  0  0  0  0  0  0  0  0  0  0
   16.6834   -9.7634    9.0219 C   0  0  0  0  0  0  0  0  0  0  0  0
   16.8439   -9.8081    7.6736 N   0  0  0  0  0  0  0  0  0  0  0  0
   17.8380   -8.9321    7.4727 C   0  0  0  0  0  0  0  0  0  0  0  0
   18.4226   -8.5732    6.2609 C   0  0  0  0  0  0  0  0  0  0  0  0
   19.4620   -7.6251    6.3003 C   0  0  0  0  0  0  0  0  0  0  0  0
   19.8820   -7.0711    7.5305 C   0  0  0  0  0  0  0  0  0  0  0  0
   19.2676   -7.4587    8.7361 C   0  0  0  0  0  0  0  0  0  0  0  0
   18.2427   -8.3982    8.6582 C   0  0  0  0  0  0  0  0  0  0  0  0
   17.5245   -8.9106    9.6668 N   0  0  0  0  0  0  0  0  0  0  0  0
   17.5892   -8.7185   10.6302 H   0  0  0  0  0  0  0  0  0  0  0  0
 18 19  1  0  0  0
 19  1  1  0  0  0
  1  2  1  0  0  0
  2  3  2  0  0  0
  2  5  1  0  0  0
  5  6  2  0  0  0
  6  7  1  0  0  0
  6  8  1  0  0  0
  8  9  2  0  0  0
  9 10  1  0  0  0
  9 11  1  0  0  0
 11 12  2  0  0  0
 12 13  1  0  0  0
 12 14  1  0  0  0
 14 15  1  0  0  0
 15 16  2  0  0  0
 19 20  1  0  0  0
 20 21  2  0  0  0
 21 22  1  0  0  0
 22 23  2  0  0  0
 23 24  1  0  0  0
 24 25  2  0  0  0
 25 26  1  0  0  0
 26 27  2  0  0  0
 27 28  1  0  0  0
 10  5  1  0  0  0
 28 20  1  0  0  0
 15  8  1  0  0  0
 27 22  1  0  0  0
  1  4  1  0  0  0
 14 17  1  0  0  0
 28 29  1  0  0  0
M  END
>  <minimizedAffinity>
-4.64578

>  <minimizedRMSD>
1.32803

$$$$
CSC027963352 15137469 CSSS00027963352 MCULE-4403203791 MolPort-009-893-444 OWIJCBDUOZRSNE-UHFFFAOYSA-N PubChem-51221899 Z102448434 ZINC000015137469 ZINC15137469


 28 30  0  0  0  0  0  0  0  0999 V2000
   16.3179   -9.2492   14.4085 C   0  0  0  0  0  0  0  0  0  0  0  0
   15.6397   -8.5996   13.5653 O   0  0  0  0  0  0  0  0  0  0  0  0
   17.1334  -10.3446   13.9786 N   0  0  0  0  0  0  0  0  0  0  0  0
   17.6359  -10.8553   14.6538 H   0  0  0  0  0  0  0  0  0  0  0  0
   15.0594   -7.9552   17.7307 C   0  0  0  0  0  0  0  0  0  0  0  0
   16.1719   -8.1778   18.5482 C   0  0  0  0  0  0  0  0  0  0  0  0
   17.3288   -8.7523   18.0155 C   0  0  0  0  0  0  0  0  0  0  0  0
   17.3761   -9.1032   16.6634 C   0  0  0  0  0  0  0  0  0  0  0  0
   16.2673   -8.8817   15.8341 C   0  0  0  0  0  0  0  0  0  0  0  0
   15.1102   -8.3043   16.3768 C   0  0  0  0  0  0  0  0  0  0  0  0
   13.6113   -7.2234   18.3959 S   0  0  0  0  0  0  0  0  0  0  0  0
   12.8000   -8.2739   19.1030 O   0  0  0  0  0  0  0  0  0  0  0  0
   12.8000   -6.6261   17.2800 O   0  0  0  0  0  0  0  0  0  0  0  0
   12.8778   -5.6546   20.3050 C   0  0  0  0  0  0  0  0  0  0  0  0
   14.0582   -5.9900   19.5271 N   0  0  0  0  0  0  0  0  0  0  0  0
   14.7942   -6.3344   20.1437 H   0  0  0  0  0  0  0  0  0  0  0  0
   17.2469  -10.7307   12.5806 C   0  0  0  0  0  0  0  0  0  0  0  0
   16.7439   -9.6071   11.6907 C   0  0  0  0  0  0  0  0  0  0  0  0
   17.8887   -9.0227   10.8779 C   0  0  0  0  0  0  0  0  0  0  0  0
   17.6361   -9.1740    9.4503 N   0  0  0  0  0  0  0  0  0  0  0  0
   16.6832   -9.9507    8.8817 C   0  0  0  0  0  0  0  0  0  0  0  0
   16.7052   -9.8848    7.5225 N   0  0  0  0  0  0  0  0  0  0  0  0
   17.7164   -9.0350    7.2637 C   0  0  0  0  0  0  0  0  0  0  0  0
   18.1727   -8.6096    6.0186 C   0  0  0  0  0  0  0  0  0  0  0  0
   19.2552   -7.7093    5.9991 C   0  0  0  0  0  0  0  0  0  0  0  0
   19.8439   -7.2657    7.2053 C   0  0  0  0  0  0  0  0  0  0  0  0
   19.3579   -7.7163    8.4467 C   0  0  0  0  0  0  0  0  0  0  0  0
   18.2844   -8.6059    8.4245 C   0  0  0  0  0  0  0  0  0  0  0  0
 14 15  1  0  0  0
 15 11  1  0  0  0
 11 12  2  0  0  0
 11 13  2  0  0  0
 11  5  1  0  0  0
  5  6  2  0  0  0
  6  7  1  0  0  0
  7  8  2  0  0  0
  8  9  1  0  0  0
  9 10  2  0  0  0
  9  1  1  0  0  0
 10  5  1  0  0  0
  1  2  2  0  0  0
  1  3  1  0  0  0
  3 17  1  0  0  0
 17 18  1  0  0  0
 18 19  1  0  0  0
 19 20  1  0  0  0
 20 21  1  0  0  0
 21 22  2  0  0  0
 22 23  1  0  0  0
 23 24  2  0  0  0
 24 25  1  0  0  0
 25 26  2  0  0  0
 26 27  1  0  0  0
 27 28  2  0  0  0
 28 20  1  0  0  0
 28 23  1  0  0  0
 15 16  1  0  0  0
  3  4  1  0  0  0
M  END
>  <minimizedAffinity>
-4.64578

>  <minimizedRMSD>
2.79409

$$$$
CSSS06741664649 PubChem-166431506 Z6563308234


 38 42  0  0  0  0  0  0  0  0999 V2000
   14.8142   -7.9783   17.9449 C   0  0  0  0  0  0  0  0  0  0  0  0
   14.8856   -7.6567   16.5852 C   0  0  0  0  0  0  0  0  0  0  0  0
   15.9206   -8.1686   15.7974 C   0  0  0  0  0  0  0  0  0  0  0  0
   16.8887   -9.0024   16.3683 C   0  0  0  0  0  0  0  0  0  0  0  0
   16.8155   -9.3272   17.7269 C   0  0  0  0  0  0  0  0  0  0  0  0
   15.7804   -8.8151   18.5143 C   0  0  0  0  0  0  0  0  0  0  0  0
   13.5181   -7.3244   18.9299 S   0  0  0  0  0  0  0  0  0  0  0  0
   12.5147   -6.6503   18.0381 O   0  0  0  0  0  0  0  0  0  0  0  0
   12.8352   -8.4245   19.6937 O   0  0  0  0  0  0  0  0  0  0  0  0
   14.1584   -6.1676   20.0501 N   0  0  0  0  0  0  0  0  0  0  0  0
   13.6372   -5.3512   20.2263 H   0  0  0  0  0  0  0  0  0  0  0  0
   19.1416   -6.8472   22.8600 C   0  0  0  0  0  0  0  0  0  0  0  0
   17.8503   -6.6743   22.1383 C   0  0  0  0  0  0  0  0  0  0  0  0
   16.6088   -6.8000   22.7767 C   0  0  0  0  0  0  0  0  0  0  0  0
   16.2556   -7.0806   24.0790 C   0  0  0  0  0  0  0  0  0  0  0  0
   14.8686   -7.0740   24.1273 C   0  0  0  0  0  0  0  0  0  0  0  0
   14.3611   -6.7995   22.9005 N   0  0  0  0  0  0  0  0  0  0  0  0
   15.4289   -6.6369   22.0958 C   0  0  0  0  0  0  0  0  0  0  0  0
   15.4050   -6.3367   20.7324 C   0  0  0  0  0  0  0  0  0  0  0  0
   16.6406   -6.2058   20.0675 C   0  0  0  0  0  0  0  0  0  0  0  0
   17.8529   -6.3734   20.7661 C   0  0  0  0  0  0  0  0  0  0  0  0
   13.4113   -6.7329   22.6503 H   0  0  0  0  0  0  0  0  0  0  0  0
   17.1287   -7.3342   25.1932 C   0  0  0  0  0  0  0  0  0  0  0  0
   17.8318   -7.5385   26.0895 N   0  0  0  0  0  0  0  0  0  0  0  0
   17.9847   -9.5622   15.5263 C   0  0  0  0  0  0  0  0  0  0  0  0
   17.7189   -9.3137   14.1158 N   0  0  0  0  0  0  0  0  0  0  0  0
   17.6297  -10.3617   13.1450 C   0  0  0  0  0  0  0  0  0  0  0  0
   17.8414  -11.5577   13.4836 O   0  0  0  0  0  0  0  0  0  0  0  0
   17.5951   -8.3838   13.8171 H   0  0  0  0  0  0  0  0  0  0  0  0
   17.2961  -10.0477   11.7480 C   0  0  0  0  0  0  0  0  0  0  0  0
   18.1963   -9.3306   10.9394 C   0  0  0  0  0  0  0  0  0  0  0  0
   17.8214   -9.0759    9.6633 N   0  0  0  0  0  0  0  0  0  0  0  0
   18.4765   -8.4235    8.6943 C   0  0  0  0  0  0  0  0  0  0  0  0
   17.6430   -8.4472    7.5778 C   0  0  0  0  0  0  0  0  0  0  0  0
   16.4930   -9.1079    7.8672 N   0  0  0  0  0  0  0  0  0  0  0  0
   16.6532   -9.4700    9.1501 C   0  0  0  0  0  0  0  0  0  0  0  0
   15.7467  -10.1797    9.9291 C   0  0  0  0  0  0  0  0  0  0  0  0
   16.0972  -10.4515   11.2202 N   0  0  0  0  0  0  0  0  0  0  0  0
 12 13  1  0  0  0
 13 14  2  0  0  0
 14 15  1  0  0  0
 15 16  2  0  0  0
 16 17  1  0  0  0
 17 18  1  0  0  0
 18 19  2  0  0  0
 19 20  1  0  0  0
 20 21  2  0  0  0
 19 10  1  0  0  0
 10  7  1  0  0  0
  7  8  2  0  0  0
  7  9  2  0  0  0
  7  1  1  0  0  0
  1  2  2  0  0  0
  2  3  1  0  0  0
  3  4  2  0  0  0
  4  5  1  0  0  0
  5  6  2  0  0  0
  4 25  1  0  0  0
 25 26  1  0  0  0
 26 27  1  0  0  0
 27 28  2  0  0  0
 27 30  1  0  0  0
 30 31  2  0  0  0
 31 32  1  0  0  0
 32 33  1  0  0  0
 33 34  2  0  0  0
 34 35  1  0  0  0
 35 36  2  0  0  0
 36 37  1  0  0  0
 37 38  2  0  0  0
 15 23  1  0  0  0
 23 24  3  0  0  0
 21 13  1  0  0  0
 18 14  1  0  0  0
  6  1  1  0  0  0
 38 30  1  0  0  0
 36 32  1  0  0  0
 17 22  1  0  0  0
 10 11  1  0  0  0
 26 29  1  0  0  0
M  END
>  <minimizedAffinity>
-4.64106

>  <minimizedRMSD>
3.52250

$$$$
CSC102902539 CSSS00102902539 MCULE-9440386410 MolPort-046-498-230 PubChem-138031382 Z2771409397


 26 29  0  0  0  0  0  0  0  0999 V2000
   16.9777   -9.8421   11.0915 N   0  0  0  0  0  0  0  0  0  0  0  0
   15.6841   -9.8629   11.7681 C   0  0  0  0  0  0  0  0  0  0  0  0
   15.8326   -9.2725   13.1598 C   0  0  0  0  0  0  0  0  0  0  0  0
   16.8892  -10.0180   13.9216 C   0  0  0  0  0  0  0  0  0  0  0  0
   16.7695  -10.2168   15.3119 C   0  0  0  0  0  0  0  0  0  0  0  0
   17.7740  -10.9025   16.0039 C   0  0  0  0  0  0  0  0  0  0  0  0
   18.8887  -11.3969   15.3248 C   0  0  0  0  0  0  0  0  0  0  0  0
   19.0074  -11.2094   13.9469 C   0  0  0  0  0  0  0  0  0  0  0  0
   18.0145  -10.5274   13.2387 C   0  0  0  0  0  0  0  0  0  0  0  0
   18.1832  -10.3560   11.7525 C   0  0  0  0  0  0  0  0  0  0  0  0
   19.1871   -7.8254   11.0360 C   0  0  0  0  0  0  0  0  0  0  0  0
   18.9599   -8.0446    9.5805 C   0  0  0  0  0  0  0  0  0  0  0  0
   19.7221   -7.3695    8.6225 C   0  0  0  0  0  0  0  0  0  0  0  0
   19.1362   -7.7953    7.0917 S   0  0  0  0  0  0  0  0  0  0  0  0
   17.9356   -8.8146    7.6516 C   0  0  0  0  0  0  0  0  0  0  0  0
   17.0235   -9.4816    6.9065 N   0  0  0  0  0  0  0  0  0  0  0  0
   16.0911  -10.2435    7.5414 C   0  0  0  0  0  0  0  0  0  0  0  0
   16.0851  -10.3343    8.9037 N   0  0  0  0  0  0  0  0  0  0  0  0
   17.0008   -9.6747    9.6722 C   0  0  0  0  0  0  0  0  0  0  0  0
   17.9578   -8.8693    9.0297 C   0  0  0  0  0  0  0  0  0  0  0  0
   15.6018   -9.6842   16.0818 C   0  0  0  0  0  0  0  0  0  0  0  0
   15.9189   -8.3466   16.6592 C   0  0  0  0  0  0  0  0  0  0  0  0
   16.1074   -8.2032   18.0620 N   0  0  0  0  0  0  0  0  0  0  0  0
   16.0497   -7.3489   15.9034 O   0  0  0  0  0  0  0  0  0  0  0  0
   16.0054   -8.9827   18.6546 H   0  0  0  0  0  0  0  0  0  0  0  0
   16.3397   -7.3244   18.4402 H   0  0  0  0  0  0  0  0  0  0  0  0
 11 12  1  0  0  0
 12 13  2  0  0  0
 13 14  1  0  0  0
 14 15  1  0  0  0
 15 16  2  0  0  0
 16 17  1  0  0  0
 17 18  2  0  0  0
 18 19  1  0  0  0
 19  1  1  0  0  0
  1  2  1  0  0  0
  2  3  1  0  0  0
  3  4  1  0  0  0
  4  5  2  0  0  0
  5 21  1  0  0  0
 21 22  1  0  0  0
 22 23  1  0  0  0
 22 24  2  0  0  0
  5  6  1  0  0  0
  6  7  2  0  0  0
  7  8  1  0  0  0
  8  9  2  0  0  0
  9 10  1  0  0  0
 19 20  2  0  0  0
 20 12  1  0  0  0
 20 15  1  0  0  0
 10  1  1  0  0  0
  9  4  1  0  0  0
 23 25  1  0  0  0
 23 26  1  0  0  0
M  END
>  <minimizedAffinity>
-4.63468

>  <minimizedRMSD>
0.79420

$$$$
96151539 CHEMBL5003574 CSSS00159882139 MCULE-8390264413 MolPort-029-898-450 PubChem-72895893 ZINC000096151539


 26 29  0  0  0  0  0  0  0  0999 V2000
   17.5809   -9.5583   11.3124 N   0  0  0  0  0  0  0  0  0  0  0  0
   18.9232   -9.8168   11.8311 C   0  0  0  0  0  0  0  0  0  0  0  0
   18.8364  -10.6442   13.1092 C   0  0  0  0  0  0  0  0  0  0  0  0
   17.9114   -9.9601   14.1141 C   0  0  0  0  0  0  0  0  0  0  0  0
   16.5191   -9.7801   13.5051 C   0  0  0  0  0  0  0  0  0  0  0  0
   16.6106   -8.9559   12.2249 C   0  0  0  0  0  0  0  0  0  0  0  0
   17.3171   -9.5562    9.8979 C   0  0  0  0  0  0  0  0  0  0  0  0
   16.3721  -10.3954    9.3796 N   0  0  0  0  0  0  0  0  0  0  0  0
   16.0972  -10.4311    8.0417 C   0  0  0  0  0  0  0  0  0  0  0  0
   16.7745   -9.6257    7.1751 N   0  0  0  0  0  0  0  0  0  0  0  0
   17.7276   -8.7873    7.6506 C   0  0  0  0  0  0  0  0  0  0  0  0
   18.5053   -7.9401    6.8566 C   0  0  0  0  0  0  0  0  0  0  0  0
   19.4347   -7.2086    7.6016 C   0  0  0  0  0  0  0  0  0  0  0  0
   19.2618   -7.6422    9.2297 S   0  0  0  0  0  0  0  0  0  0  0  0
   18.0125   -8.7373    8.9987 C   0  0  0  0  0  0  0  0  0  0  0  0
   17.8689  -10.7462   15.3941 C   0  0  0  0  0  0  0  0  0  0  0  0
   17.9269  -12.0913   15.4566 N   0  0  0  0  0  0  0  0  0  0  0  0
   17.8416  -12.3796   16.7736 C   0  0  0  0  0  0  0  0  0  0  0  0
   17.7295  -11.2030   17.4947 C   0  0  0  0  0  0  0  0  0  0  0  0
   17.7547  -10.1902   16.6138 N   0  0  0  0  0  0  0  0  0  0  0  0
   17.6148   -8.7771   16.9376 C   0  0  0  0  0  0  0  0  0  0  0  0
   16.1887   -8.4527   17.2239 C   0  0  0  0  0  0  0  0  0  0  0  0
   15.7902   -8.0985   18.5427 N   0  0  0  0  0  0  0  0  0  0  0  0
   15.3306   -8.5255   16.3066 O   0  0  0  0  0  0  0  0  0  0  0  0
   16.4610   -8.0413   19.2610 H   0  0  0  0  0  0  0  0  0  0  0  0
   14.8435   -7.9106   18.7371 H   0  0  0  0  0  0  0  0  0  0  0  0
  7  8  2  0  0  0
  8  9  1  0  0  0
  9 10  2  0  0  0
 10 11  1  0  0  0
 11 12  1  0  0  0
 12 13  2  0  0  0
 13 14  1  0  0  0
 14 15  1  0  0  0
  7  1  1  0  0  0
  1  2  1  0  0  0
  2  3  1  0  0  0
  3  4  1  0  0  0
  4  5  1  0  0  0
  5  6  1  0  0  0
  4 16  1  0  0  0
 16 17  2  0  0  0
 17 18  1  0  0  0
 18 19  2  0  0  0
 19 20  1  0  0  0
 20 21  1  0  0  0
 21 22  1  0  0  0
 22 23  1  0  0  0
 22 24  2  0  0  0
 15  7  1  0  0  0
  6  1  1  0  0  0
 20 16  1  0  0  0
 15 11  2  0  0  0
 23 25  1  0  0  0
 23 26  1  0  0  0
M  END
>  <minimizedAffinity>
-4.63278

>  <minimizedRMSD>
1.07178

$$$$
CSSS09819788619 Z7911638362


 29 32  0  0  0  0  0  0  0  0999 V2000
   17.1703   -9.7794   11.0114 C   0  0  0  0  0  0  0  0  0  0  0  0
   16.0093  -10.3657   11.4311 N   0  0  0  0  0  0  0  0  0  0  0  0
   14.9386  -10.5130   10.5881 C   0  0  0  0  0  0  0  0  0  0  0  0
   15.0044  -10.0738    9.2953 N   0  0  0  0  0  0  0  0  0  0  0  0
   16.1497   -9.4903    8.8657 C   0  0  0  0  0  0  0  0  0  0  0  0
   16.3660   -9.0072    7.6208 N   0  0  0  0  0  0  0  0  0  0  0  0
   17.6340   -8.5367    7.6952 C   0  0  0  0  0  0  0  0  0  0  0  0
   18.3503   -7.9277    6.6671 C   0  0  0  0  0  0  0  0  0  0  0  0
   19.6638   -7.5031    6.9416 C   0  0  0  0  0  0  0  0  0  0  0  0
   20.3933   -6.9066    5.9687 F   0  0  0  0  0  0  0  0  0  0  0  0
   20.2281   -7.6933    8.2224 C   0  0  0  0  0  0  0  0  0  0  0  0
   19.4904   -8.3099    9.2481 C   0  0  0  0  0  0  0  0  0  0  0  0
   18.1942   -8.7186    8.9448 C   0  0  0  0  0  0  0  0  0  0  0  0
   17.2297   -9.3356    9.6964 C   0  0  0  0  0  0  0  0  0  0  0  0
   15.7529   -8.9995    6.8506 H   0  0  0  0  0  0  0  0  0  0  0  0
   18.2841   -9.6272   11.8919 N   0  0  0  0  0  0  0  0  0  0  0  0
   18.8574   -8.8319   11.8014 H   0  0  0  0  0  0  0  0  0  0  0  0
   18.5992  -10.6080   12.9174 C   0  0  0  0  0  0  0  0  0  0  0  0
   17.2315   -8.9902   16.0560 C   0  0  0  0  0  0  0  0  0  0  0  0
   18.4122   -8.7078   16.7525 C   0  0  0  0  0  0  0  0  0  0  0  0
   19.6507   -9.0509   16.2022 C   0  0  0  0  0  0  0  0  0  0  0  0
   19.7115   -9.6780   14.9542 C   0  0  0  0  0  0  0  0  0  0  0  0
   18.5333   -9.9677   14.2584 C   0  0  0  0  0  0  0  0  0  0  0  0
   17.2950   -9.6169   14.8061 C   0  0  0  0  0  0  0  0  0  0  0  0
   15.8682   -8.2437   18.4879 C   0  0  0  0  0  0  0  0  0  0  0  0
   15.6805   -8.5471   16.7467 S   0  0  0  0  0  0  0  0  0  0  0  0
   14.6608   -9.6983   16.5204 N   0  0  0  0  0  0  0  0  0  0  0  0
   15.1652   -7.2990   16.0863 O   0  0  0  0  0  0  0  0  0  0  0  0
   13.7371   -9.6094   16.8492 H   0  0  0  0  0  0  0  0  0  0  0  0
 25 26  1  0  0  0
 26 27  2  0  0  0
 26 28  2  0  0  0
 26 19  1  0  0  0
 19 20  2  0  0  0
 20 21  1  0  0  0
 21 22  2  0  0  0
 22 23  1  0  0  0
 23 18  1  0  0  0
 18 16  1  0  0  0
 16  1  1  0  0  0
  1  2  2  0  0  0
  2  3  1  0  0  0
  3  4  2  0  0  0
  4  5  1  0  0  0
  5  6  1  0  0  0
  6  7  1  0  0  0
  7  8  2  0  0  0
  8  9  1  0  0  0
  9 10  1  0  0  0
  9 11  2  0  0  0
 11 12  1  0  0  0
 12 13  2  0  0  0
 13 14  1  0  0  0
 23 24  2  0  0  0
 24 19  1  0  0  0
 14  1  1  0  0  0
 14  5  2  0  0  0
 13  7  1  0  0  0
 27 29  1  0  0  0
 16 17  1  0  0  0
  6 15  1  0  0  0
M  END
>  <minimizedAffinity>
-4.62461

>  <minimizedRMSD>
2.01921

$$$$
CSC027231275 CHEMBL2113970 CSSS00027231275 MCULE-7090045446 MolPort-009-147-618 PubChem-47015523 Z196139376


 25 27  0  0  0  0  0  0  0  0999 V2000
   18.9526  -11.9523   13.0683 C   0  0  0  0  0  0  0  0  0  0  0  0
   18.0304  -10.7430   13.0767 C   0  0  0  0  0  0  0  0  0  0  0  0
   18.1078  -10.0280   14.3871 C   0  0  0  0  0  0  0  0  0  0  0  0
   16.9236   -9.6570   15.0326 C   0  0  0  0  0  0  0  0  0  0  0  0
   16.9688   -8.9785   16.2556 C   0  0  0  0  0  0  0  0  0  0  0  0
   18.2045   -8.6740   16.8372 C   0  0  0  0  0  0  0  0  0  0  0  0
   19.3909   -9.0403   16.1957 C   0  0  0  0  0  0  0  0  0  0  0  0
   19.3442   -9.7148   14.9725 C   0  0  0  0  0  0  0  0  0  0  0  0
   15.4796   -8.5282   17.0656 S   0  0  0  0  0  0  0  0  0  0  0  0
   14.3064   -9.7778   16.8533 N   0  0  0  0  0  0  0  0  0  0  0  0
   14.9563   -7.2443   16.4858 O   0  0  0  0  0  0  0  0  0  0  0  0
   15.7402   -8.3289   18.5322 O   0  0  0  0  0  0  0  0  0  0  0  0
   14.1298   -9.9129   15.8579 H   0  0  0  0  0  0  0  0  0  0  0  0
   13.4389   -9.5125   17.3197 H   0  0  0  0  0  0  0  0  0  0  0  0
   18.3723   -9.8358   11.9891 N   0  0  0  0  0  0  0  0  0  0  0  0
   19.1707   -9.2677   12.0840 H   0  0  0  0  0  0  0  0  0  0  0  0
   17.6002   -9.7339   10.7900 C   0  0  0  0  0  0  0  0  0  0  0  0
   18.0563   -8.9867    9.7117 C   0  0  0  0  0  0  0  0  0  0  0  0
   17.3041   -8.8913    8.5645 C   0  0  0  0  0  0  0  0  0  0  0  0
   17.8805   -8.1105    7.5600 C   0  0  0  0  0  0  0  0  0  0  0  0
   19.1199   -7.5831    7.9401 C   0  0  0  0  0  0  0  0  0  0  0  0
   19.4644   -8.1037    9.5177 S   0  0  0  0  0  0  0  0  0  0  0  0
   16.1074   -9.5233    8.4693 N   0  0  0  0  0  0  0  0  0  0  0  0
   15.6519  -10.2582    9.5261 C   0  0  0  0  0  0  0  0  0  0  0  0
   16.3926  -10.3591   10.6715 N   0  0  0  0  0  0  0  0  0  0  0  0
  1  2  1  0  0  0
  2  3  1  0  0  0
  3  4  2  0  0  0
  4  5  1  0  0  0
  5  9  1  0  0  0
  9 10  1  0  0  0
  9 11  2  0  0  0
  9 12  2  0  0  0
  5  6  2  0  0  0
  6  7  1  0  0  0
  7  8  2  0  0  0
  2 15  1  0  0  0
 15 17  1  0  0  0
 17 18  1  0  0  0
 18 19  2  0  0  0
 19 20  1  0  0  0
 20 21  2  0  0  0
 21 22  1  0  0  0
 19 23  1  0  0  0
 23 24  2  0  0  0
 24 25  1  0  0  0
  8  3  1  0  0  0
 25 17  2  0  0  0
 22 18  1  0  0  0
 10 13  1  0  0  0
 10 14  1  0  0  0
 15 16  1  0  0  0
M  END
>  <minimizedAffinity>
-4.59928

>  <minimizedRMSD>
1.18090

$$$$
CSC027250568 84208259 CSSS00027250568 MCULE-6132875925 MolPort-027-674-126 PubChem-71898749 Z290870206 ZINC000084208259 ZINC84208259


 28 30  0  0  0  0  0  0  0  0999 V2000
   19.0626   -9.7130   13.3294 N   0  0  0  0  0  0  0  0  0  0  0  0
   18.1028  -10.4145   12.5306 C   0  0  0  0  0  0  0  0  0  0  0  0
   17.6024  -11.4878   12.9631 O   0  0  0  0  0  0  0  0  0  0  0  0
   19.4807   -8.9026   12.9583 H   0  0  0  0  0  0  0  0  0  0  0  0
   17.7137   -9.8697   11.2049 C   0  0  0  0  0  0  0  0  0  0  0  0
   16.3793   -9.8453   10.7222 C   0  0  0  0  0  0  0  0  0  0  0  0
   15.2312  -10.3744   11.5139 C   0  0  0  0  0  0  0  0  0  0  0  0
   16.1106   -9.3241    9.4934 N   0  0  0  0  0  0  0  0  0  0  0  0
   17.0839   -8.8166    8.6948 C   0  0  0  0  0  0  0  0  0  0  0  0
   16.7635   -8.2908    7.4399 C   0  0  0  0  0  0  0  0  0  0  0  0
   17.7729   -7.7695    6.6238 C   0  0  0  0  0  0  0  0  0  0  0  0
   19.1025   -7.7730    7.0604 C   0  0  0  0  0  0  0  0  0  0  0  0
   20.1708   -7.2180    6.1894 C   0  0  0  0  0  0  0  0  0  0  0  0
   19.4278   -8.2981    8.3154 C   0  0  0  0  0  0  0  0  0  0  0  0
   18.4214   -8.8195    9.1326 C   0  0  0  0  0  0  0  0  0  0  0  0
   18.7234   -9.3464   10.3847 C   0  0  0  0  0  0  0  0  0  0  0  0
   19.4479  -10.1444   14.6659 C   0  0  0  0  0  0  0  0  0  0  0  0
   16.4367   -9.0791   16.9741 C   0  0  0  0  0  0  0  0  0  0  0  0
   16.7052  -10.4203   17.2108 C   0  0  0  0  0  0  0  0  0  0  0  0
   17.7731  -10.9006   16.4405 C   0  0  0  0  0  0  0  0  0  0  0  0
   18.3259   -9.9247   15.6217 C   0  0  0  0  0  0  0  0  0  0  0  0
   17.5038   -8.4741   15.8267 S   0  0  0  0  0  0  0  0  0  0  0  0
   15.1794   -8.1482   17.7672 S   0  0  0  0  0  0  0  0  0  0  0  0
   14.7060   -7.0542   16.8506 O   0  0  0  0  0  0  0  0  0  0  0  0
   14.0204   -9.0525   18.0776 O   0  0  0  0  0  0  0  0  0  0  0  0
   14.8155   -7.7407   20.2871 C   0  0  0  0  0  0  0  0  0  0  0  0
   15.7819   -7.4621   19.2384 N   0  0  0  0  0  0  0  0  0  0  0  0
   16.6809   -7.8821   19.4745 H   0  0  0  0  0  0  0  0  0  0  0  0
 26 27  1  0  0  0
 27 23  1  0  0  0
 23 24  2  0  0  0
 23 25  2  0  0  0
 23 18  1  0  0  0
 18 19  2  0  0  0
 19 20  1  0  0  0
 20 21  2  0  0  0
 21 17  1  0  0  0
 21 22  1  0  0  0
 17  1  1  0  0  0
  1  2  1  0  0  0
  2  3  2  0  0  0
  2  5  1  0  0  0
  5  6  2  0  0  0
  6  7  1  0  0  0
  6  8  1  0  0  0
  8  9  2  0  0  0
  9 10  1  0  0  0
 10 11  2  0  0  0
 11 12  1  0  0  0
 12 13  1  0  0  0
 12 14  2  0  0  0
 14 15  1  0  0  0
 15 16  2  0  0  0
 15  9  1  0  0  0
 16  5  1  0  0  0
 22 18  1  0  0  0
 27 28  1  0  0  0
  1  4  1  0  0  0
M  END
>  <minimizedAffinity>
-4.58623

>  <minimizedRMSD>
1.45467

$$$$
792110 CSSS00132908396 ChemDiv-5400-0853 LN00609426 MCULE-6671942311 MolPort-000-417-699 PubChem-1078537 ZINC000000792110


 33 36  0  0  0  0  0  0  0  0999 V2000
   19.3008   -8.0996    7.7196 N   0  0  0  0  0  0  0  0  0  0  0  0
   20.1986   -7.7229    8.6257 N   0  0  0  0  0  0  0  0  0  0  0  0
   19.7848   -8.1169    9.8604 C   0  0  0  0  0  0  0  0  0  0  0  0
   18.5689   -8.7516    9.6915 C   0  0  0  0  0  0  0  0  0  0  0  0
   17.6537   -9.3101   10.5719 C   0  0  0  0  0  0  0  0  0  0  0  0
   16.4887   -9.8011   10.0494 N   0  0  0  0  0  0  0  0  0  0  0  0
   16.2281   -9.7374    8.7039 C   0  0  0  0  0  0  0  0  0  0  0  0
   17.1364   -9.1821    7.8458 N   0  0  0  0  0  0  0  0  0  0  0  0
   18.2994   -8.7168    8.3646 C   0  0  0  0  0  0  0  0  0  0  0  0
   19.3905   -7.7811    6.3227 C   0  0  0  0  0  0  0  0  0  0  0  0
   20.2605   -6.7596    5.9163 C   0  0  0  0  0  0  0  0  0  0  0  0
   20.3763   -6.4191    4.5667 C   0  0  0  0  0  0  0  0  0  0  0  0
   19.6280   -7.1039    3.6079 C   0  0  0  0  0  0  0  0  0  0  0  0
   18.7772   -8.1409    3.9964 C   0  0  0  0  0  0  0  0  0  0  0  0
   18.6535   -8.4875    5.3458 C   0  0  0  0  0  0  0  0  0  0  0  0
   17.7924   -9.6523    5.6965 C   0  0  0  0  0  0  0  0  0  0  0  0
   19.7503   -6.7417    2.1720 C   0  0  0  0  0  0  0  0  0  0  0  0
   17.9145   -9.3521   11.9750 N   0  0  0  0  0  0  0  0  0  0  0  0
   18.8271   -9.1696   12.2961 H   0  0  0  0  0  0  0  0  0  0  0  0
   16.8741   -9.6559   12.9449 C   0  0  0  0  0  0  0  0  0  0  0  0
   17.4992   -9.9916   14.2903 C   0  0  0  0  0  0  0  0  0  0  0  0
   16.7230   -9.3884   15.4142 C   0  0  0  0  0  0  0  0  0  0  0  0
   15.8249   -8.3483   15.1543 C   0  0  0  0  0  0  0  0  0  0  0  0
   15.0987   -7.7715   16.2003 C   0  0  0  0  0  0  0  0  0  0  0  0
   15.2722   -8.2291   17.5113 C   0  0  0  0  0  0  0  0  0  0  0  0
   16.1731   -9.2674   17.7723 C   0  0  0  0  0  0  0  0  0  0  0  0
   16.8996   -9.8445   16.7267 C   0  0  0  0  0  0  0  0  0  0  0  0
   14.3513   -7.5137   18.8214 S   0  0  0  0  0  0  0  0  0  0  0  0
   12.9827   -8.5049   19.1821 N   0  0  0  0  0  0  0  0  0  0  0  0
   13.8853   -6.1433   18.4191 O   0  0  0  0  0  0  0  0  0  0  0  0
   15.2126   -7.4117   20.0487 O   0  0  0  0  0  0  0  0  0  0  0  0
   12.3906   -8.5811   18.3550 H   0  0  0  0  0  0  0  0  0  0  0  0
   12.4502   -8.0851   19.9440 H   0  0  0  0  0  0  0  0  0  0  0  0
  1 10  1  0  0  0
 10 11  2  0  0  0
 11 12  1  0  0  0
 12 13  2  0  0  0
 13 14  1  0  0  0
 14 15  2  0  0  0
 15 16  1  0  0  0
 13 17  1  0  0  0
  1  2  1  0  0  0
  2  3  2  0  0  0
  3  4  1  0  0  0
  4  5  2  0  0  0
  5 18  1  0  0  0
 18 20  1  0  0  0
 20 21  1  0  0  0
 21 22  1  0  0  0
 22 23  2  0  0  0
 23 24  1  0  0  0
 24 25  2  0  0  0
 25 26  1  0  0  0
 26 27  2  0  0  0
 25 28  1  0  0  0
 28 29  1  0  0  0
 28 30  2  0  0  0
 28 31  2  0  0  0
  5  6  1  0  0  0
  6  7  2  0  0  0
  7  8  1  0  0  0
  8  9  2  0  0  0
  9  1  1  0  0  0
 15 10  1  0  0  0
  9  4  1  0  0  0
 27 22  1  0  0  0
 18 19  1  0  0  0
 29 32  1  0  0  0
 29 33  1  0  0  0
M  END
>  <minimizedAffinity>
-4.58356

>  <minimizedRMSD>
2.51415

$$$$
CSC025935558 CSSS00025935558 MCULE-2250115502 MolPort-023-181-485 Z1333168518


 24 26  0  0  0  0  0  0  0  0999 V2000
   16.5804   -9.4786   12.6367 C   0  0  0  0  0  0  0  0  0  0  0  0
   17.6303   -9.6128   11.6421 N   0  0  0  0  0  0  0  0  0  0  0  0
   18.5574   -9.7530   11.9420 H   0  0  0  0  0  0  0  0  0  0  0  0
   17.3574   -9.5473   10.2418 C   0  0  0  0  0  0  0  0  0  0  0  0
   18.1254   -8.7566    9.3992 C   0  0  0  0  0  0  0  0  0  0  0  0
   17.8512   -8.7087    8.0751 C   0  0  0  0  0  0  0  0  0  0  0  0
   18.7044   -7.8926    7.4447 N   0  0  0  0  0  0  0  0  0  0  0  0
   19.5277   -7.4182    8.3773 N   0  0  0  0  0  0  0  0  0  0  0  0
   19.2049   -7.9261    9.5963 C   0  0  0  0  0  0  0  0  0  0  0  0
   16.8377   -9.4131    7.5169 N   0  0  0  0  0  0  0  0  0  0  0  0
   16.0728  -10.1968    8.3363 C   0  0  0  0  0  0  0  0  0  0  0  0
   16.3330  -10.2603    9.6819 N   0  0  0  0  0  0  0  0  0  0  0  0
   18.7202   -7.6844    6.4826 H   0  0  0  0  0  0  0  0  0  0  0  0
   17.0458   -8.5489   13.7388 C   0  0  0  0  0  0  0  0  0  0  0  0
   17.6842  -10.1882   15.5462 N   0  0  0  0  0  0  0  0  0  0  0  0
   16.8840   -9.2140   15.0645 C   0  0  0  0  0  0  0  0  0  0  0  0
   15.8796   -8.9359   15.9179 N   0  0  0  0  0  0  0  0  0  0  0  0
   16.0337   -9.7302   16.9685 N   0  0  0  0  0  0  0  0  0  0  0  0
   17.1262  -10.4812   16.7342 C   0  0  0  0  0  0  0  0  0  0  0  0
   17.7422  -11.7170   17.8733 S   0  0  0  0  0  0  0  0  0  0  0  0
   16.9449  -11.7562   18.9744 H   0  0  0  0  0  0  0  0  0  0  0  0
   18.4947  -11.8131   13.8951 C   0  0  0  0  0  0  0  0  0  0  0  0
   18.8753  -10.7977   14.9566 C   0  0  0  0  0  0  0  0  0  0  0  0
   19.7894   -9.7381   14.3690 C   0  0  0  0  0  0  0  0  0  0  0  0
 22 23  1  0  0  0
 23 15  1  0  0  0
 15 16  1  0  0  0
 16 14  1  0  0  0
 14  1  1  0  0  0
  1  2  1  0  0  0
  2  4  1  0  0  0
  4  5  1  0  0  0
  5  6  2  0  0  0
  6  7  1  0  0  0
  7  8  1  0  0  0
  8  9  2  0  0  0
  6 10  1  0  0  0
 10 11  2  0  0  0
 11 12  1  0  0  0
 16 17  2  0  0  0
 17 18  1  0  0  0
 18 19  2  0  0  0
 19 20  1  0  0  0
 23 24  1  0  0  0
 19 15  1  0  0  0
 12  4  2  0  0  0
  9  5  1  0  0  0
  2  3  1  0  0  0
  7 13  1  0  0  0
 20 21  1  0  0  0
M  END
>  <minimizedAffinity>
-4.57266

>  <minimizedRMSD>
1.76063

$$$$
CSC046231306 27794830 CSSS00046231306 LN01894885 MCULE-7399236627 MolPort-004-901-142 PubChem-35181640 Z1213701800 ZINC000027794830 ZINC27794830


 29 31  0  0  0  0  0  0  0  0999 V2000
   17.6718  -11.4096   13.4385 N   0  0  0  0  0  0  0  0  0  0  0  0
   18.2474  -10.2127   12.9044 C   0  0  0  0  0  0  0  0  0  0  0  0
   18.9576   -9.4707   13.6354 O   0  0  0  0  0  0  0  0  0  0  0  0
   17.1602  -11.9957   12.8351 H   0  0  0  0  0  0  0  0  0  0  0  0
   18.0189   -9.8436   11.5006 C   0  0  0  0  0  0  0  0  0  0  0  0
   16.8436  -10.2369   10.8476 C   0  0  0  0  0  0  0  0  0  0  0  0
   16.6488   -9.8736    9.5164 C   0  0  0  0  0  0  0  0  0  0  0  0
   15.5937  -10.2242    8.9230 O   0  0  0  0  0  0  0  0  0  0  0  0
   17.6325   -9.1232    8.8607 C   0  0  0  0  0  0  0  0  0  0  0  0
   17.4937   -8.7279    7.5230 C   0  0  0  0  0  0  0  0  0  0  0  0
   18.5001   -7.9791    6.9065 C   0  0  0  0  0  0  0  0  0  0  0  0
   18.3074   -7.4439    5.0884 Br  0  0  0  0  0  0  0  0  0  0  0  0
   19.6476   -7.6221    7.6213 C   0  0  0  0  0  0  0  0  0  0  0  0
   19.7942   -8.0121    8.9558 C   0  0  0  0  0  0  0  0  0  0  0  0
   18.7931   -8.7612    9.5810 C   0  0  0  0  0  0  0  0  0  0  0  0
   18.9373   -9.1296   10.8505 O   0  0  0  0  0  0  0  0  0  0  0  0
   17.8095  -11.7987   14.8356 C   0  0  0  0  0  0  0  0  0  0  0  0
   15.7985   -8.9789   17.3696 C   0  0  0  0  0  0  0  0  0  0  0  0
   15.4122   -9.1191   16.0317 C   0  0  0  0  0  0  0  0  0  0  0  0
   16.0634  -10.0411   15.2071 C   0  0  0  0  0  0  0  0  0  0  0  0
   17.1030  -10.8261   15.7180 C   0  0  0  0  0  0  0  0  0  0  0  0
   17.4938  -10.6818   17.0533 C   0  0  0  0  0  0  0  0  0  0  0  0
   16.8427   -9.7596   17.8777 C   0  0  0  0  0  0  0  0  0  0  0  0
   16.1245   -7.1274   19.5082 N   0  0  0  0  0  0  0  0  0  0  0  0
   14.9894   -7.8135   18.4008 S   0  0  0  0  0  0  0  0  0  0  0  0
   13.9029   -8.4973   19.1821 O   0  0  0  0  0  0  0  0  0  0  0  0
   14.3917   -6.7241   17.5565 O   0  0  0  0  0  0  0  0  0  0  0  0
   15.6499   -6.4505   20.1057 H   0  0  0  0  0  0  0  0  0  0  0  0
   16.8670   -6.6600   18.9880 H   0  0  0  0  0  0  0  0  0  0  0  0
 24 25  1  0  0  0
 25 26  2  0  0  0
 25 27  2  0  0  0
 25 18  1  0  0  0
 18 19  2  0  0  0
 19 20  1  0  0  0
 20 21  2  0  0  0
 21 17  1  0  0  0
 21 22  1  0  0  0
 17  1  1  0  0  0
  1  2  1  0  0  0
  2  3  2  0  0  0
  2  5  1  0  0  0
  5  6  2  0  0  0
  6  7  1  0  0  0
  7  8  2  0  0  0
  7  9  1  0  0  0
  9 10  2  0  0  0
 10 11  1  0  0  0
 11 12  1  0  0  0
 11 13  2  0  0  0
 13 14  1  0  0  0
 14 15  2  0  0  0
 15 16  1  0  0  0
 15  9  1  0  0  0
 16  5  1  0  0  0
 22 23  2  0  0  0
 23 18  1  0  0  0
 24 28  1  0  0  0
 24 29  1  0  0  0
  1  4  1  0  0  0
M  END
>  <minimizedAffinity>
-4.57215

>  <minimizedRMSD>
1.31525

$$$$
CSCC[C@@H]1NC(=O)c2cc(NC(=O)CCCn3nnc4ccccc4c3=O)ccc2NC1=O 96222149 CSSS00161017025 LN00389479 MCULE-3451668809 MolPort-029-886-018 PubChem-75492018 ZINC000096222149 ZINC96222149


 37 40  0  0  0  0  0  0  0  0999 V2000
   12.9536   -7.4766   21.0505 C   0  0  0  0  0  0  0  0  0  0  0  0
   12.6209   -6.4184   20.1110 N   0  0  0  0  0  0  0  0  0  0  0  0
   13.2053   -6.2490   18.8167 C   0  0  0  0  0  0  0  0  0  0  0  0
   12.7779   -5.3120   18.0906 O   0  0  0  0  0  0  0  0  0  0  0  0
   14.2404   -7.1612   18.2743 C   0  0  0  0  0  0  0  0  0  0  0  0
   14.2245   -7.3843   16.8887 C   0  0  0  0  0  0  0  0  0  0  0  0
   15.1929   -8.1774   16.2630 C   0  0  0  0  0  0  0  0  0  0  0  0
   16.2125   -8.7362   17.0308 C   0  0  0  0  0  0  0  0  0  0  0  0
   16.2548   -8.5193   18.4075 C   0  0  0  0  0  0  0  0  0  0  0  0
   15.2751   -7.7531   19.0485 C   0  0  0  0  0  0  0  0  0  0  0  0
   15.4292   -7.5579   20.4606 N   0  0  0  0  0  0  0  0  0  0  0  0
   14.3894   -7.3782   21.4234 C   0  0  0  0  0  0  0  0  0  0  0  0
   14.6938   -7.1413   22.6208 O   0  0  0  0  0  0  0  0  0  0  0  0
   11.9380   -5.7656   20.3881 H   0  0  0  0  0  0  0  0  0  0  0  0
   16.3518   -7.5466   20.8039 H   0  0  0  0  0  0  0  0  0  0  0  0
   15.1827   -8.4139   14.8488 N   0  0  0  0  0  0  0  0  0  0  0  0
   15.8996   -9.4386   14.1475 C   0  0  0  0  0  0  0  0  0  0  0  0
   16.6676  -10.2315   14.7540 O   0  0  0  0  0  0  0  0  0  0  0  0
   14.6267   -7.8114   14.3038 H   0  0  0  0  0  0  0  0  0  0  0  0
   15.7135   -9.5843   12.6755 C   0  0  0  0  0  0  0  0  0  0  0  0
   16.9059  -10.2894   12.0503 C   0  0  0  0  0  0  0  0  0  0  0  0
   17.9479   -9.2767   11.6013 C   0  0  0  0  0  0  0  0  0  0  0  0
   17.9374   -9.1526   10.1491 N   0  0  0  0  0  0  0  0  0  0  0  0
   16.9595   -9.7444    9.4577 N   0  0  0  0  0  0  0  0  0  0  0  0
   16.8894   -9.6568    8.1294 N   0  0  0  0  0  0  0  0  0  0  0  0
   17.8128   -8.9560    7.4302 C   0  0  0  0  0  0  0  0  0  0  0  0
   17.7300   -8.8712    6.0376 C   0  0  0  0  0  0  0  0  0  0  0  0
   18.6883   -8.1435    5.3250 C   0  0  0  0  0  0  0  0  0  0  0  0
   19.7288   -7.5004    6.0035 C   0  0  0  0  0  0  0  0  0  0  0  0
   19.8143   -7.5833    7.3969 C   0  0  0  0  0  0  0  0  0  0  0  0
   18.8558   -8.3122    8.1163 C   0  0  0  0  0  0  0  0  0  0  0  0
   18.8987   -8.4242    9.5089 C   0  0  0  0  0  0  0  0  0  0  0  0
   19.8181   -7.8597   10.1662 O   0  0  0  0  0  0  0  0  0  0  0  0
   12.6110   -8.8608   20.5046 C   0  0  0  0  0  0  0  0  0  0  0  0
   11.1335   -8.9697   20.1710 C   0  0  0  0  0  0  0  0  0  0  0  0
   10.3050   -7.9967   17.8927 C   0  0  0  0  0  0  0  0  0  0  0  0
   10.9152   -9.5995   18.4815 S   0  0  0  0  0  0  0  0  0  0  0  0
 36 37  1  0  0  0
 37 35  1  0  0  0
 35 34  1  0  0  0
  1 34  1  0  0  0
  1  2  1  0  0  0
  2  3  1  0  0  0
  3  4  2  0  0  0
  3  5  1  0  0  0
  5  6  2  0  0  0
  6  7  1  0  0  0
  7 16  1  0  0  0
  7  8  2  0  0  0
 16 17  1  0  0  0
 17 18  2  0  0  0
 17 20  1  0  0  0
 20 21  1  0  0  0
 21 22  1  0  0  0
 22 23  1  0  0  0
 23 24  1  0  0  0
 24 25  2  0  0  0
 25 26  1  0  0  0
 26 27  2  0  0  0
 27 28  1  0  0  0
 28 29  2  0  0  0
 29 30  1  0  0  0
 30 31  2  0  0  0
 31 32  1  0  0  0
 31 26  1  0  0  0
 32 33  2  0  0  0
 32 23  1  0  0  0
  8  9  1  0  0  0
  9 10  2  0  0  0
 10 11  1  0  0  0
 10  5  1  0  0  0
 11 12  1  0  0  0
 12 13  2  0  0  0
 12  1  1  0  0  0
  2 14  1  0  0  0
 16 19  1  0  0  0
 11 15  1  0  0  0
M  END
>  <minimizedAffinity>
-4.55388

>  <minimizedRMSD>
2.98335

$$$$
CSC027129014 9461387 CSSS00027129014 MCULE-6971081128 MolPort-005-812-913 PubChem-16307531 Z135291006 ZINC000009461387 ZINC09461387


 35 39  0  0  0  0  0  0  0  0999 V2000
   17.0316   -9.7748   10.7870 C   0  0  0  0  0  0  0  0  0  0  0  0
   18.1897   -9.1038   11.0341 N   0  0  0  0  0  0  0  0  0  0  0  0
   18.9059   -8.6189    9.9970 C   0  0  0  0  0  0  0  0  0  0  0  0
   18.5100   -8.7634    8.6868 C   0  0  0  0  0  0  0  0  0  0  0  0
   19.4251   -8.1754    7.7804 C   0  0  0  0  0  0  0  0  0  0  0  0
   20.5377   -7.6045    8.4139 C   0  0  0  0  0  0  0  0  0  0  0  0
   20.3656   -7.8118   10.0833 S   0  0  0  0  0  0  0  0  0  0  0  0
   17.3331   -9.4854    8.4333 C   0  0  0  0  0  0  0  0  0  0  0  0
   16.9615   -9.7144    7.2499 O   0  0  0  0  0  0  0  0  0  0  0  0
   16.6005   -9.9657    9.4924 N   0  0  0  0  0  0  0  0  0  0  0  0
   19.2649   -8.0948    6.3170 C   0  0  0  0  0  0  0  0  0  0  0  0
   20.1990   -7.3845    5.5498 C   0  0  0  0  0  0  0  0  0  0  0  0
   20.0297   -7.2604    4.1677 C   0  0  0  0  0  0  0  0  0  0  0  0
   18.9175   -7.8336    3.5457 C   0  0  0  0  0  0  0  0  0  0  0  0
   17.9713   -8.5254    4.3064 C   0  0  0  0  0  0  0  0  0  0  0  0
   18.1408   -8.6494    5.6884 C   0  0  0  0  0  0  0  0  0  0  0  0
   16.2352  -10.2661   11.9527 C   0  0  0  0  0  0  0  0  0  0  0  0
   16.1001   -9.1992   12.9327 N   0  0  0  0  0  0  0  0  0  0  0  0
   15.7816   -8.3190   12.6280 H   0  0  0  0  0  0  0  0  0  0  0  0
   15.9957   -8.7595   16.6354 C   0  0  0  0  0  0  0  0  0  0  0  0
   16.9765   -9.6749   17.0421 C   0  0  0  0  0  0  0  0  0  0  0  0
   17.6699  -10.4340   16.0963 C   0  0  0  0  0  0  0  0  0  0  0  0
   17.3867  -10.2834   14.7366 C   0  0  0  0  0  0  0  0  0  0  0  0
   16.4086   -9.3706   14.3168 C   0  0  0  0  0  0  0  0  0  0  0  0
   15.7182   -8.6138   15.2682 C   0  0  0  0  0  0  0  0  0  0  0  0
   14.2321   -7.3177   17.2963 O   0  0  0  0  0  0  0  0  0  0  0  0
   15.2658   -7.9588   17.6335 C   0  0  0  0  0  0  0  0  0  0  0  0
   15.7294   -7.9054   18.9853 N   0  0  0  0  0  0  0  0  0  0  0  0
   16.5367   -8.4118   19.2326 H   0  0  0  0  0  0  0  0  0  0  0  0
   15.0469   -7.1273   20.0058 C   0  0  0  0  0  0  0  0  0  0  0  0
   14.9054   -7.9662   21.2604 C   0  0  0  0  0  0  0  0  0  0  0  0
   15.9866   -6.9094   21.1744 C   0  0  0  0  0  0  0  0  0  0  0  0
   15.3541  -10.6893    9.2340 C   0  0  0  0  0  0  0  0  0  0  0  0
   14.2979  -10.2200   10.1378 C   0  0  0  0  0  0  0  0  0  0  0  0
   13.4656   -9.8501   10.8515 N   0  0  0  0  0  0  0  0  0  0  0  0
 26 27  2  0  0  0
 27 28  1  0  0  0
 27 20  1  0  0  0
 28 30  1  0  0  0
 30 31  1  0  0  0
 31 32  1  0  0  0
 32 30  1  0  0  0
 20 21  2  0  0  0
 21 22  1  0  0  0
 22 23  2  0  0  0
 23 24  1  0  0  0
 24 18  1  0  0  0
 24 25  2  0  0  0
 18 17  1  0  0  0
 17  1  1  0  0  0
  1  2  2  0  0  0
  2  3  1  0  0  0
  3  4  2  0  0  0
  4  5  1  0  0  0
  4  8  1  0  0  0
  5  6  2  0  0  0
  5 11  1  0  0  0
  6  7  1  0  0  0
  7  3  1  0  0  0
 11 12  2  0  0  0
 12 13  1  0  0  0
 13 14  2  0  0  0
 14 15  1  0  0  0
 15 16  2  0  0  0
 16 11  1  0  0  0
  8  9  2  0  0  0
  8 10  1  0  0  0
 10 33  1  0  0  0
 10  1  1  0  0  0
 33 34  1  0  0  0
 34 35  3  0  0  0
 25 20  1  0  0  0
 28 29  1  0  0  0
 18 19  1  0  0  0
M  END
>  <minimizedAffinity>
-4.53260

>  <minimizedRMSD>
1.91143

$$$$
CSC026822164 7275206 CSSS00026822164 MCULE-9804254783 MolPort-004-155-956 PubChem-8375207 Z73487771 ZINC000007275206 ZINC07275206


 28 31  0  0  0  0  0  0  0  0999 V2000
   17.5961  -10.1683   12.4260 C   0  0  0  0  0  0  0  0  0  0  0  0
   17.9723  -11.4191   11.9237 C   0  0  0  0  0  0  0  0  0  0  0  0
   17.4283  -11.4843   10.3308 S   0  0  0  0  0  0  0  0  0  0  0  0
   16.7435   -9.9570   10.3588 C   0  0  0  0  0  0  0  0  0  0  0  0
   16.9246   -9.3635   11.5546 N   0  0  0  0  0  0  0  0  0  0  0  0
   17.1622   -8.7698   15.9226 C   0  0  0  0  0  0  0  0  0  0  0  0
   16.8969   -9.1964   14.6117 C   0  0  0  0  0  0  0  0  0  0  0  0
   17.9063   -9.7298   13.8002 C   0  0  0  0  0  0  0  0  0  0  0  0
   19.2052   -9.8378   14.3115 C   0  0  0  0  0  0  0  0  0  0  0  0
   19.4880   -9.4193   15.6120 C   0  0  0  0  0  0  0  0  0  0  0  0
   18.4798   -8.8873   16.4207 C   0  0  0  0  0  0  0  0  0  0  0  0
   18.8085   -8.4837   17.7092 O   0  0  0  0  0  0  0  0  0  0  0  0
   19.6890   -8.5714   18.0173 H   0  0  0  0  0  0  0  0  0  0  0  0
   16.0229   -8.3317   18.1450 N   0  0  0  0  0  0  0  0  0  0  0  0
   16.0458   -8.2147   16.7256 C   0  0  0  0  0  0  0  0  0  0  0  0
   15.0916   -7.6245   16.1516 O   0  0  0  0  0  0  0  0  0  0  0  0
   15.2714   -7.9555   18.6578 H   0  0  0  0  0  0  0  0  0  0  0  0
   16.7585   -8.7888   18.6132 H   0  0  0  0  0  0  0  0  0  0  0  0
   16.0979   -9.2888    9.1954 C   0  0  0  0  0  0  0  0  0  0  0  0
   17.1373   -8.7925    8.2517 C   0  0  0  0  0  0  0  0  0  0  0  0
   17.1362   -9.0851    6.9283 N   0  0  0  0  0  0  0  0  0  0  0  0
   18.2253   -8.5546    6.3177 C   0  0  0  0  0  0  0  0  0  0  0  0
   18.5028   -8.6807    4.9566 C   0  0  0  0  0  0  0  0  0  0  0  0
   19.6715   -8.0854    4.4522 C   0  0  0  0  0  0  0  0  0  0  0  0
   20.5411   -7.3793    5.3063 C   0  0  0  0  0  0  0  0  0  0  0  0
   20.2533   -7.2597    6.6751 C   0  0  0  0  0  0  0  0  0  0  0  0
   19.0886   -7.8574    7.1488 C   0  0  0  0  0  0  0  0  0  0  0  0
   18.4926   -7.8891    8.7163 S   0  0  0  0  0  0  0  0  0  0  0  0
 14 15  1  0  0  0
 15 16  2  0  0  0
 15  6  1  0  0  0
  6  7  2  0  0  0
  7  8  1  0  0  0
  8  9  2  0  0  0
  8  1  1  0  0  0
  9 10  1  0  0  0
 10 11  2  0  0  0
 11 12  1  0  0  0
 11  6  1  0  0  0
  1  2  2  0  0  0
  2  3  1  0  0  0
  3  4  1  0  0  0
  4 19  1  0  0  0
  4  5  2  0  0  0
 19 20  1  0  0  0
 20 21  2  0  0  0
 21 22  1  0  0  0
 22 23  2  0  0  0
 23 24  1  0  0  0
 24 25  2  0  0  0
 25 26  1  0  0  0
 26 27  2  0  0  0
 27 28  1  0  0  0
 27 22  1  0  0  0
 28 20  1  0  0  0
  5  1  1  0  0  0
 14 17  1  0  0  0
 14 18  1  0  0  0
 12 13  1  0  0  0
M  END
>  <minimizedAffinity>
-4.51998

>  <minimizedRMSD>
2.09033

$$$$
CSC028086137 1895728 CSSS00028086137 LN01083270 MCULE-9848238046 MolPort-000-417-328 PubChem-1632805 Z56800329 ZINC000001895728 ZINC01895728


 30 32  0  0  0  0  0  0  0  0999 V2000
   17.6545  -10.5568   15.9061 C   0  0  0  0  0  0  0  0  0  0  0  0
   17.7843  -11.8903   15.7668 N   0  0  0  0  0  0  0  0  0  0  0  0
   17.9998  -12.1237   14.4786 N   0  0  0  0  0  0  0  0  0  0  0  0
   17.9951  -10.9279   13.8576 C   0  0  0  0  0  0  0  0  0  0  0  0
   17.7897   -9.9240   14.7284 N   0  0  0  0  0  0  0  0  0  0  0  0
   17.3502   -9.7437   17.4715 S   0  0  0  0  0  0  0  0  0  0  0  0
   15.6868   -9.2253   16.9603 C   0  0  0  0  0  0  0  0  0  0  0  0
   15.6801   -8.0051   19.1659 N   0  0  0  0  0  0  0  0  0  0  0  0
   15.2300   -8.0963   17.8123 C   0  0  0  0  0  0  0  0  0  0  0  0
   14.4703   -7.2166   17.3262 O   0  0  0  0  0  0  0  0  0  0  0  0
   16.2534   -8.7224   19.5207 H   0  0  0  0  0  0  0  0  0  0  0  0
   15.3277   -6.8978   20.0427 C   0  0  0  0  0  0  0  0  0  0  0  0
   15.1638   -7.3897   21.4685 C   0  0  0  0  0  0  0  0  0  0  0  0
   17.2535   -6.2695   21.6004 O   0  0  0  0  0  0  0  0  0  0  0  0
   16.1642   -6.6886   22.3622 C   0  0  0  0  0  0  0  0  0  0  0  0
   17.8948   -5.8201   22.1729 H   0  0  0  0  0  0  0  0  0  0  0  0
   18.2243  -10.7479   12.3932 C   0  0  0  0  0  0  0  0  0  0  0  0
   16.6468  -10.5121   11.5136 S   0  0  0  0  0  0  0  0  0  0  0  0
   17.4111   -9.6753   10.1296 C   0  0  0  0  0  0  0  0  0  0  0  0
   17.0712   -9.9112    8.8396 N   0  0  0  0  0  0  0  0  0  0  0  0
   17.7941   -9.1255    8.0029 C   0  0  0  0  0  0  0  0  0  0  0  0
   17.6662   -9.1301    6.6140 C   0  0  0  0  0  0  0  0  0  0  0  0
   18.4743   -8.2599    5.8630 C   0  0  0  0  0  0  0  0  0  0  0  0
   19.3915   -7.4034    6.5030 C   0  0  0  0  0  0  0  0  0  0  0  0
   19.5122   -7.4064    7.9016 C   0  0  0  0  0  0  0  0  0  0  0  0
   18.7005   -8.2782    8.6220 C   0  0  0  0  0  0  0  0  0  0  0  0
   18.6196   -8.4983   10.2826 S   0  0  0  0  0  0  0  0  0  0  0  0
   17.6821   -8.4971   14.4550 C   0  0  0  0  0  0  0  0  0  0  0  0
   16.2486   -8.1083   14.3243 C   0  0  0  0  0  0  0  0  0  0  0  0
   15.6102   -8.3068   13.1762 C   0  0  0  0  0  0  0  0  0  0  0  0
 14 15  1  0  0  0
 15 13  1  0  0  0
 13 12  1  0  0  0
 12  8  1  0  0  0
  8  9  1  0  0  0
  9 10  2  0  0  0
  9  7  1  0  0  0
  7  6  1  0  0  0
  6  1  1  0  0  0
  1  2  2  0  0  0
  2  3  1  0  0  0
  3  4  2  0  0  0
  4 17  1  0  0  0
  4  5  1  0  0  0
 17 18  1  0  0  0
 18 19  1  0  0  0
 19 20  2  0  0  0
 20 21  1  0  0  0
 21 22  2  0  0  0
 22 23  1  0  0  0
 23 24  2  0  0  0
 24 25  1  0  0  0
 25 26  2  0  0  0
 26 27  1  0  0  0
 26 21  1  0  0  0
 27 19  1  0  0  0
  5 28  1  0  0  0
  5  1  1  0  0  0
 28 29  1  0  0  0
 29 30  2  0  0  0
 14 16  1  0  0  0
  8 11  1  0  0  0
M  END
>  <minimizedAffinity>
-4.50087

>  <minimizedRMSD>
2.61180

$$$$
CSSS20447611389


 33 36  0  0  0  0  0  0  0  0999 V2000
   17.4337  -10.2510   14.9951 C   0  0  0  0  0  0  0  0  0  0  0  0
   18.1976   -9.8502   16.0959 C   0  0  0  0  0  0  0  0  0  0  0  0
   17.6325   -9.0438   17.0882 C   0  0  0  0  0  0  0  0  0  0  0  0
   16.3004   -8.6306   16.9880 C   0  0  0  0  0  0  0  0  0  0  0  0
   15.5344   -9.0307   15.8835 C   0  0  0  0  0  0  0  0  0  0  0  0
   16.0977   -9.8362   14.8907 C   0  0  0  0  0  0  0  0  0  0  0  0
   19.4725  -11.4993   14.3459 C   0  0  0  0  0  0  0  0  0  0  0  0
   18.0608  -11.1145   13.9442 C   0  0  0  0  0  0  0  0  0  0  0  0
   18.0857  -10.4310   12.6574 N   0  0  0  0  0  0  0  0  0  0  0  0
   17.0836  -10.6292   11.6543 C   0  0  0  0  0  0  0  0  0  0  0  0
   16.1519  -11.4573   11.8489 O   0  0  0  0  0  0  0  0  0  0  0  0
   18.8230   -9.8062   12.4699 H   0  0  0  0  0  0  0  0  0  0  0  0
   17.1416   -9.8678   10.3952 C   0  0  0  0  0  0  0  0  0  0  0  0
   18.2749   -9.1100   10.0735 C   0  0  0  0  0  0  0  0  0  0  0  0
   18.3135   -8.3930    8.8787 C   0  0  0  0  0  0  0  0  0  0  0  0
   17.2086   -8.4406    8.0089 C   0  0  0  0  0  0  0  0  0  0  0  0
   17.2462   -7.7417    6.8445 N   0  0  0  0  0  0  0  0  0  0  0  0
   18.3355   -6.9989    6.5102 C   0  0  0  0  0  0  0  0  0  0  0  0
   19.4332   -6.9523    7.3757 C   0  0  0  0  0  0  0  0  0  0  0  0
   19.4000   -7.6505    8.5425 N   0  0  0  0  0  0  0  0  0  0  0  0
   16.1165   -9.1804    8.3358 N   0  0  0  0  0  0  0  0  0  0  0  0
   16.0623   -9.8863    9.4983 C   0  0  0  0  0  0  0  0  0  0  0  0
   15.7489   -7.8035   18.0162 N   0  0  0  0  0  0  0  0  0  0  0  0
   16.3659   -7.3955   18.6659 H   0  0  0  0  0  0  0  0  0  0  0  0
   14.0539   -7.4799   18.1814 S   0  0  0  0  0  0  0  0  0  0  0  0
   13.3073   -8.7796   18.2811 O   0  0  0  0  0  0  0  0  0  0  0  0
   13.5745   -6.7304   16.9696 O   0  0  0  0  0  0  0  0  0  0  0  0
   13.7654   -6.5392   19.6339 C   0  0  0  0  0  0  0  0  0  0  0  0
   13.3183   -5.2176   19.5493 C   0  0  0  0  0  0  0  0  0  0  0  0
   13.1038   -4.4963   20.6825 N   0  0  0  0  0  0  0  0  0  0  0  0
   13.3142   -5.0297   21.9163 C   0  0  0  0  0  0  0  0  0  0  0  0
   13.7605   -6.3472   22.0433 C   0  0  0  0  0  0  0  0  0  0  0  0
   13.9862   -7.1037   20.8923 C   0  0  0  0  0  0  0  0  0  0  0  0
  7  8  1  0  0  0
  8  9  1  0  0  0
  9 10  1  0  0  0
 10 11  2  0  0  0
 10 13  1  0  0  0
 13 14  2  0  0  0
 14 15  1  0  0  0
 15 16  2  0  0  0
 16 17  1  0  0  0
 17 18  2  0  0  0
 18 19  1  0  0  0
 19 20  2  0  0  0
 16 21  1  0  0  0
 21 22  2  0  0  0
  8  1  1  0  0  0
  1  2  2  0  0  0
  2  3  1  0  0  0
  3  4  2  0  0  0
  4 23  1  0  0  0
 23 25  1  0  0  0
 25 26  2  0  0  0
 25 27  2  0  0  0
 25 28  1  0  0  0
 28 29  2  0  0  0
 29 30  1  0  0  0
 30 31  2  0  0  0
 31 32  1  0  0  0
 32 33  2  0  0  0
  4  5  1  0  0  0
  5  6  2  0  0  0
 22 13  1  0  0  0
  6  1  1  0  0  0
 20 15  1  0  0  0
 33 28  1  0  0  0
  9 12  1  0  0  0
 23 24  1  0  0  0
M  END
>  <minimizedAffinity>
-4.47666

>  <minimizedRMSD>
2.72841

$$$$
CSSS04566198098


 27 29  0  0  0  0  0  0  0  0999 V2000
   17.8645   -9.9234   11.3459 C   0  0  0  0  0  0  0  0  0  0  0  0
   16.8381   -9.4672   14.9609 C   0  0  0  0  0  0  0  0  0  0  0  0
   17.2513  -10.6833   15.5164 C   0  0  0  0  0  0  0  0  0  0  0  0
   17.8657  -11.6483   14.7130 C   0  0  0  0  0  0  0  0  0  0  0  0
   18.3743  -13.1711   15.4092 Cl  0  0  0  0  0  0  0  0  0  0  0  0
   18.0718  -11.3982   13.3532 C   0  0  0  0  0  0  0  0  0  0  0  0
   17.6707  -10.1790   12.7978 C   0  0  0  0  0  0  0  0  0  0  0  0
   17.0486   -9.2172   13.6002 C   0  0  0  0  0  0  0  0  0  0  0  0
   16.5561   -8.4812   17.6127 N   0  0  0  0  0  0  0  0  0  0  0  0
   16.0729   -8.2541   15.9703 S   0  0  0  0  0  0  0  0  0  0  0  0
   16.4820   -6.8823   15.5121 O   0  0  0  0  0  0  0  0  0  0  0  0
   14.5788   -8.3765   15.8648 O   0  0  0  0  0  0  0  0  0  0  0  0
   16.1107   -7.7753   18.1989 H   0  0  0  0  0  0  0  0  0  0  0  0
   17.5697   -8.3923   17.6843 H   0  0  0  0  0  0  0  0  0  0  0  0
   19.0309   -9.1365   11.1521 O   0  0  0  0  0  0  0  0  0  0  0  0
   19.2902   -8.4838    9.9450 C   0  0  0  0  0  0  0  0  0  0  0  0
   20.2098   -7.6225    9.8762 O   0  0  0  0  0  0  0  0  0  0  0  0
   18.4798   -8.8113    8.7549 C   0  0  0  0  0  0  0  0  0  0  0  0
   17.3251   -9.6068    8.8872 C   0  0  0  0  0  0  0  0  0  0  0  0
   16.5476   -9.9222    7.7534 C   0  0  0  0  0  0  0  0  0  0  0  0
   16.9041   -9.4617    6.5183 N   0  0  0  0  0  0  0  0  0  0  0  0
   18.0165   -8.6960    6.3947 C   0  0  0  0  0  0  0  0  0  0  0  0
   18.7969   -8.3668    7.4633 C   0  0  0  0  0  0  0  0  0  0  0  0
   19.8322   -7.5897    6.9902 C   0  0  0  0  0  0  0  0  0  0  0  0
   19.5965   -7.5000    5.6163 C   0  0  0  0  0  0  0  0  0  0  0  0
   18.4816   -8.1792    5.2501 N   0  0  0  0  0  0  0  0  0  0  0  0
   18.1003   -8.2715    4.3472 H   0  0  0  0  0  0  0  0  0  0  0  0
  9 10  1  0  0  0
 10 11  2  0  0  0
 10 12  2  0  0  0
 10  2  1  0  0  0
  2  3  2  0  0  0
  3  4  1  0  0  0
  4  5  1  0  0  0
  4  6  2  0  0  0
  6  7  1  0  0  0
  7  1  1  0  0  0
  1 15  1  0  0  0
 15 16  1  0  0  0
 16 17  2  0  0  0
 16 18  1  0  0  0
 18 19  2  0  0  0
 19 20  1  0  0  0
 20 21  2  0  0  0
 21 22  1  0  0  0
 22 23  2  0  0  0
 23 24  1  0  0  0
 24 25  2  0  0  0
 25 26  1  0  0  0
  7  8  2  0  0  0
  8  2  1  0  0  0
 23 18  1  0  0  0
 26 22  1  0  0  0
  9 13  1  0  0  0
  9 14  1  0  0  0
 26 27  1  0  0  0
M  END
>  <minimizedAffinity>
-4.45570

>  <minimizedRMSD>
1.65239

$$$$
CSSS01498115741


 35 38  0  0  0  0  0  0  0  0999 V2000
   14.6135   -7.8014   18.2657 C   0  0  0  0  0  0  0  0  0  0  0  0
   14.2341   -7.6501   16.9246 C   0  0  0  0  0  0  0  0  0  0  0  0
   15.0971   -8.0435   15.8984 C   0  0  0  0  0  0  0  0  0  0  0  0
   16.3521   -8.5941   16.1984 C   0  0  0  0  0  0  0  0  0  0  0  0
   16.7292   -8.7466   17.5362 C   0  0  0  0  0  0  0  0  0  0  0  0
   15.8675   -8.3527   18.5637 C   0  0  0  0  0  0  0  0  0  0  0  0
   13.8882   -6.1068   19.9776 N   0  0  0  0  0  0  0  0  0  0  0  0
   13.7061   -7.3854   19.3498 C   0  0  0  0  0  0  0  0  0  0  0  0
   12.7739   -8.1530   19.7142 O   0  0  0  0  0  0  0  0  0  0  0  0
   14.6216   -5.5485   19.6316 H   0  0  0  0  0  0  0  0  0  0  0  0
   13.4960   -5.8309   22.3803 C   0  0  0  0  0  0  0  0  0  0  0  0
   12.7463   -5.2980   23.4427 C   0  0  0  0  0  0  0  0  0  0  0  0
   11.6300   -4.4978   23.1906 C   0  0  0  0  0  0  0  0  0  0  0  0
   11.2528   -4.2235   21.8753 C   0  0  0  0  0  0  0  0  0  0  0  0
   11.9920   -4.7493   20.8137 C   0  0  0  0  0  0  0  0  0  0  0  0
   13.1165   -5.5543   21.0552 C   0  0  0  0  0  0  0  0  0  0  0  0
   15.7269   -6.1957   23.3925 C   0  0  0  0  0  0  0  0  0  0  0  0
   14.6179   -6.6332   22.6188 O   0  0  0  0  0  0  0  0  0  0  0  0
   17.2630   -9.0116   15.1728 N   0  0  0  0  0  0  0  0  0  0  0  0
   16.9900   -9.0963   13.7678 C   0  0  0  0  0  0  0  0  0  0  0  0
   15.8682   -8.7680   13.2985 O   0  0  0  0  0  0  0  0  0  0  0  0
   18.1686   -9.2661   15.4631 H   0  0  0  0  0  0  0  0  0  0  0  0
   18.0483   -9.5975   12.8471 C   0  0  0  0  0  0  0  0  0  0  0  0
   17.6458  -10.8755   12.2784 N   0  0  0  0  0  0  0  0  0  0  0  0
   18.1703  -11.9018   13.1601 C   0  0  0  0  0  0  0  0  0  0  0  0
   18.3397  -11.0286   11.0086 C   0  0  0  0  0  0  0  0  0  0  0  0
   17.6004  -10.3082    9.9287 C   0  0  0  0  0  0  0  0  0  0  0  0
   16.3389  -10.6038    9.5410 N   0  0  0  0  0  0  0  0  0  0  0  0
   15.9963   -9.7273    8.5995 N   0  0  0  0  0  0  0  0  0  0  0  0
   17.0572   -8.9147    8.4403 C   0  0  0  0  0  0  0  0  0  0  0  0
   17.1607   -7.8360    7.5669 C   0  0  0  0  0  0  0  0  0  0  0  0
   18.3705   -7.1191    7.5787 C   0  0  0  0  0  0  0  0  0  0  0  0
   19.4198   -7.4915    8.4444 C   0  0  0  0  0  0  0  0  0  0  0  0
   19.2520   -8.5900    9.3012 C   0  0  0  0  0  0  0  0  0  0  0  0
   18.0674   -9.2488    9.2522 N   0  0  0  0  0  0  0  0  0  0  0  0
 17 18  1  0  0  0
 18 11  1  0  0  0
 11 12  2  0  0  0
 12 13  1  0  0  0
 13 14  2  0  0  0
 14 15  1  0  0  0
 15 16  2  0  0  0
 16  7  1  0  0  0
  7  8  1  0  0  0
  8  9  2  0  0  0
  8  1  1  0  0  0
  1  2  2  0  0  0
  2  3  1  0  0  0
  3  4  2  0  0  0
  4 19  1  0  0  0
 19 20  1  0  0  0
 20 21  2  0  0  0
 20 23  1  0  0  0
 23 24  1  0  0  0
 24 25  1  0  0  0
 24 26  1  0  0  0
 26 27  1  0  0  0
 27 28  2  0  0  0
 28 29  1  0  0  0
 29 30  2  0  0  0
 30 31  1  0  0  0
 31 32  2  0  0  0
 32 33  1  0  0  0
 33 34  2  0  0  0
 34 35  1  0  0  0
  4  5  1  0  0  0
  5  6  2  0  0  0
 16 11  1  0  0  0
  6  1  1  0  0  0
 35 27  1  0  0  0
 35 30  1  0  0  0
  7 10  1  0  0  0
 19 22  1  0  0  0
M  END
>  <minimizedAffinity>
-4.43604

>  <minimizedRMSD>
3.24481

$$$$
CSC025911007 40479784 CSSS00025911007 MCULE-7297051283 MolPort-009-151-364 PubChem-45801928 Z217709240 ZINC000040479784


 23 25  0  0  0  0  0  0  0  0999 V2000
   18.0212  -10.8063   13.1702 C   0  0  0  0  0  0  0  0  0  0  0  0
   16.2372   -9.2502   16.3153 C   0  0  0  0  0  0  0  0  0  0  0  0
   16.4062   -9.0529   14.6557 S   0  0  0  0  0  0  0  0  0  0  0  0
   17.4063  -10.3874   14.4575 C   0  0  0  0  0  0  0  0  0  0  0  0
   17.6342  -10.9941   15.6858 C   0  0  0  0  0  0  0  0  0  0  0  0
   16.9653  -10.3538   16.7382 C   0  0  0  0  0  0  0  0  0  0  0  0
   15.2737   -8.2198   17.3577 S   0  0  0  0  0  0  0  0  0  0  0  0
   15.8825   -8.2040   18.7312 O   0  0  0  0  0  0  0  0  0  0  0  0
   15.2667   -6.8171   16.8160 O   0  0  0  0  0  0  0  0  0  0  0  0
   12.8665   -7.8540   18.2066 C   0  0  0  0  0  0  0  0  0  0  0  0
   13.6518   -8.8187   17.4553 N   0  0  0  0  0  0  0  0  0  0  0  0
   13.2647   -8.9263   16.5178 H   0  0  0  0  0  0  0  0  0  0  0  0
   18.0740   -9.6717   12.2633 N   0  0  0  0  0  0  0  0  0  0  0  0
   18.5875   -8.8742   12.5273 H   0  0  0  0  0  0  0  0  0  0  0  0
   17.4048   -9.6765   11.0010 C   0  0  0  0  0  0  0  0  0  0  0  0
   17.9463   -9.0040    9.9067 C   0  0  0  0  0  0  0  0  0  0  0  0
   17.2658   -9.0359    8.7131 C   0  0  0  0  0  0  0  0  0  0  0  0
   18.1035   -8.1666    7.5589 S   0  0  0  0  0  0  0  0  0  0  0  0
   19.3782   -7.7261    8.5896 C   0  0  0  0  0  0  0  0  0  0  0  0
   19.1377   -8.2716    9.8567 C   0  0  0  0  0  0  0  0  0  0  0  0
   16.0923   -9.6942    8.5611 N   0  0  0  0  0  0  0  0  0  0  0  0
   15.5688  -10.3496    9.6360 C   0  0  0  0  0  0  0  0  0  0  0  0
   16.2202  -10.3380   10.8383 N   0  0  0  0  0  0  0  0  0  0  0  0
 10 11  1  0  0  0
 11  7  1  0  0  0
  7  2  1  0  0  0
  2  3  1  0  0  0
  3  4  1  0  0  0
  4  1  1  0  0  0
  1 13  1  0  0  0
 13 15  1  0  0  0
 15 16  1  0  0  0
 16 17  2  0  0  0
 17 18  1  0  0  0
 18 19  1  0  0  0
 19 20  2  0  0  0
 17 21  1  0  0  0
 21 22  2  0  0  0
 22 23  1  0  0  0
  4  5  2  0  0  0
  5  6  1  0  0  0
  7  8  2  0  0  0
  7  9  2  0  0  0
  6  2  2  0  0  0
 23 15  2  0  0  0
 20 16  1  0  0  0
 11 12  1  0  0  0
 13 14  1  0  0  0
M  END
>  <minimizedAffinity>
-4.41894

>  <minimizedRMSD>
1.37756

$$$$
CSC028199723 10933079 CSSS00028199723 MCULE-9403270817 MolPort-005-772-570 PubChem-17567971 Z202948640 ZINC000010933079 ZINC10933079


 27 29  0  0  0  0  0  0  0  0999 V2000
   16.9715  -10.2559   12.1988 O   0  0  0  0  0  0  0  0  0  0  0  0
   16.5846  -10.1064   13.5315 C   0  0  0  0  0  0  0  0  0  0  0  0
   15.6179   -9.3542   13.8290 O   0  0  0  0  0  0  0  0  0  0  0  0
   17.3213  -10.8383   14.5775 C   0  0  0  0  0  0  0  0  0  0  0  0
   17.7473  -10.3899   15.8308 C   0  0  0  0  0  0  0  0  0  0  0  0
   18.4279  -11.3666   16.5733 C   0  0  0  0  0  0  0  0  0  0  0  0
   18.5521  -12.5934   15.9285 C   0  0  0  0  0  0  0  0  0  0  0  0
   17.8048  -12.4382   14.4305 S   0  0  0  0  0  0  0  0  0  0  0  0
   17.4884   -8.7727   16.4755 S   0  0  0  0  0  0  0  0  0  0  0  0
   18.8719   -8.2853   17.3890 N   0  0  0  0  0  0  0  0  0  0  0  0
   17.2843   -7.8013   15.3474 O   0  0  0  0  0  0  0  0  0  0  0  0
   16.2859   -8.7701   17.3765 O   0  0  0  0  0  0  0  0  0  0  0  0
   19.6943   -8.2838   16.7857 H   0  0  0  0  0  0  0  0  0  0  0  0
   19.0170   -8.9370   18.1601 H   0  0  0  0  0  0  0  0  0  0  0  0
   16.0302  -10.2386   11.1358 C   0  0  0  0  0  0  0  0  0  0  0  0
   20.3704   -7.0727    5.3642 C   0  0  0  0  0  0  0  0  0  0  0  0
   19.6826   -7.5498    6.5918 C   0  0  0  0  0  0  0  0  0  0  0  0
   18.6012   -8.4269    6.4962 C   0  0  0  0  0  0  0  0  0  0  0  0
   17.9611   -8.8721    7.6186 N   0  0  0  0  0  0  0  0  0  0  0  0
   16.9034   -9.7349    7.5087 C   0  0  0  0  0  0  0  0  0  0  0  0
   16.5048  -10.1322    6.3794 O   0  0  0  0  0  0  0  0  0  0  0  0
   16.2500  -10.1899    8.6528 C   0  0  0  0  0  0  0  0  0  0  0  0
   16.6881   -9.7463    9.8970 C   0  0  0  0  0  0  0  0  0  0  0  0
   17.7441   -8.8988    9.9809 N   0  0  0  0  0  0  0  0  0  0  0  0
   18.3786   -8.4572    8.8643 C   0  0  0  0  0  0  0  0  0  0  0  0
   19.4589   -7.5806    8.9919 C   0  0  0  0  0  0  0  0  0  0  0  0
   20.1121   -7.1261    7.8477 C   0  0  0  0  0  0  0  0  0  0  0  0
 16 17  1  0  0  0
 17 18  2  0  0  0
 18 19  1  0  0  0
 19 20  1  0  0  0
 20 21  2  0  0  0
 20 22  1  0  0  0
 22 23  2  0  0  0
 23 15  1  0  0  0
 23 24  1  0  0  0
 15  1  1  0  0  0
  1  2  1  0  0  0
  2  3  2  0  0  0
  2  4  1  0  0  0
  4  5  2  0  0  0
  5  6  1  0  0  0
  5  9  1  0  0  0
  6  7  2  0  0  0
  7  8  1  0  0  0
  8  4  1  0  0  0
  9 10  1  0  0  0
  9 11  2  0  0  0
  9 12  2  0  0  0
 24 25  2  0  0  0
 25 26  1  0  0  0
 25 19  1  0  0  0
 26 27  2  0  0  0
 27 17  1  0  0  0
 10 13  1  0  0  0
 10 14  1  0  0  0
M  END
>  <minimizedAffinity>
-4.41636

>  <minimizedRMSD>
1.76482

$$$$
952968719 CSSS00159946383 MCULE-9948545321 MolPort-045-940-324 PubChem-131890010 ZINC000952968719


 28 30  0  0  0  0  0  0  0  0999 V2000
   16.6785  -10.1750   13.1900 N   0  0  0  0  0  0  0  0  0  0  0  0
   17.6838   -9.7617   12.2542 C   0  0  0  0  0  0  0  0  0  0  0  0
   18.8518   -9.5208   12.6640 O   0  0  0  0  0  0  0  0  0  0  0  0
   15.8357  -10.5308   12.8262 H   0  0  0  0  0  0  0  0  0  0  0  0
   17.3449   -9.6639   10.8095 C   0  0  0  0  0  0  0  0  0  0  0  0
   18.1608   -9.0135    9.8483 C   0  0  0  0  0  0  0  0  0  0  0  0
   19.3738   -8.3957   10.1914 C   0  0  0  0  0  0  0  0  0  0  0  0
   20.1535   -7.7626    9.2225 C   0  0  0  0  0  0  0  0  0  0  0  0
   19.7314   -7.7366    7.8933 C   0  0  0  0  0  0  0  0  0  0  0  0
   18.5284   -8.3418    7.5241 C   0  0  0  0  0  0  0  0  0  0  0  0
   18.0354   -8.2835    5.8393 Cl  0  0  0  0  0  0  0  0  0  0  0  0
   17.7372   -8.9808    8.4939 C   0  0  0  0  0  0  0  0  0  0  0  0
   16.5634   -9.5672    8.1362 N   0  0  0  0  0  0  0  0  0  0  0  0
   15.7694  -10.1916    9.0414 C   0  0  0  0  0  0  0  0  0  0  0  0
   14.4948  -10.8170    8.6031 C   0  0  0  0  0  0  0  0  0  0  0  0
   16.1457  -10.2480   10.3813 C   0  0  0  0  0  0  0  0  0  0  0  0
   16.2971   -9.1331   16.8069 C   0  0  0  0  0  0  0  0  0  0  0  0
   17.1224  -10.1020   17.3961 C   0  0  0  0  0  0  0  0  0  0  0  0
   17.7665  -11.0658   16.6247 C   0  0  0  0  0  0  0  0  0  0  0  0
   17.6064  -11.0692   15.2424 C   0  0  0  0  0  0  0  0  0  0  0  0
   16.8104  -10.1083   14.6162 C   0  0  0  0  0  0  0  0  0  0  0  0
   16.1209   -9.1479   15.3962 C   0  0  0  0  0  0  0  0  0  0  0  0
   15.1437   -8.2282   14.7314 C   0  0  0  0  0  0  0  0  0  0  0  0
   15.3609   -7.2006   20.0307 C   0  0  0  0  0  0  0  0  0  0  0  0
   15.9605   -8.1453   19.1034 N   0  0  0  0  0  0  0  0  0  0  0  0
   15.6442   -8.1467   17.7077 C   0  0  0  0  0  0  0  0  0  0  0  0
   14.8274   -7.2980   17.2579 O   0  0  0  0  0  0  0  0  0  0  0  0
   16.6050   -8.8057   19.4464 H   0  0  0  0  0  0  0  0  0  0  0  0
 24 25  1  0  0  0
 25 26  1  0  0  0
 26 27  2  0  0  0
 26 17  1  0  0  0
 17 18  2  0  0  0
 18 19  1  0  0  0
 19 20  2  0  0  0
 20 21  1  0  0  0
 21  1  1  0  0  0
  1  2  1  0  0  0
  2  3  2  0  0  0
  2  5  1  0  0  0
  5  6  1  0  0  0
  6  7  2  0  0  0
  7  8  1  0  0  0
  8  9  2  0  0  0
  9 10  1  0  0  0
 10 11  1  0  0  0
 10 12  2  0  0  0
 12 13  1  0  0  0
 13 14  2  0  0  0
 14 15  1  0  0  0
 14 16  1  0  0  0
 21 22  2  0  0  0
 22 23  1  0  0  0
 22 17  1  0  0  0
 16  5  2  0  0  0
 12  6  1  0  0  0
 25 28  1  0  0  0
  1  4  1  0  0  0
M  END
>  <minimizedAffinity>
-4.40249

>  <minimizedRMSD>
1.01793

$$$$
CSC025943013 241160547 CSSS00025943013 MCULE-9085318747 MolPort-039-004-805 PubChem-119049556 Z1874182859 ZINC000241160547


 27 29  0  0  0  0  0  0  0  0999 V2000
   17.8833   -8.6220    8.6967 C   0  0  0  0  0  0  0  0  0  0  0  0
   16.6597   -8.9459    8.0982 C   0  0  0  0  0  0  0  0  0  0  0  0
   15.6366   -9.5260    8.8542 C   0  0  0  0  0  0  0  0  0  0  0  0
   15.8327   -9.7842   10.2135 C   0  0  0  0  0  0  0  0  0  0  0  0
   14.8416  -10.3481   10.9501 N   0  0  0  0  0  0  0  0  0  0  0  0
   15.0178  -10.6053   12.2724 C   0  0  0  0  0  0  0  0  0  0  0  0
   16.1953  -10.2995   12.8783 N   0  0  0  0  0  0  0  0  0  0  0  0
   17.2219   -9.7323   12.1867 C   0  0  0  0  0  0  0  0  0  0  0  0
   17.0622   -9.4579   10.8220 C   0  0  0  0  0  0  0  0  0  0  0  0
   18.0824   -8.8762   10.0581 C   0  0  0  0  0  0  0  0  0  0  0  0
   20.6884   -7.9297    8.6654 C   0  0  0  0  0  0  0  0  0  0  0  0
   19.1650   -7.8881    7.7496 S   0  0  0  0  0  0  0  0  0  0  0  0
   19.3532   -8.6502    6.4679 O   0  0  0  0  0  0  0  0  0  0  0  0
   18.8024   -6.4652    7.4311 O   0  0  0  0  0  0  0  0  0  0  0  0
   18.4508   -9.4207   12.8491 N   0  0  0  0  0  0  0  0  0  0  0  0
   18.9587   -8.6283   12.5602 H   0  0  0  0  0  0  0  0  0  0  0  0
   18.9757  -10.2333   13.9338 C   0  0  0  0  0  0  0  0  0  0  0  0
   18.0921  -10.1054   15.1232 C   0  0  0  0  0  0  0  0  0  0  0  0
   17.9141  -11.0777   16.0879 C   0  0  0  0  0  0  0  0  0  0  0  0
   17.0356  -10.5222   17.0052 C   0  0  0  0  0  0  0  0  0  0  0  0
   16.7550   -9.2554   16.5238 C   0  0  0  0  0  0  0  0  0  0  0  0
   17.3978   -9.0327   15.4049 O   0  0  0  0  0  0  0  0  0  0  0  0
   15.8657   -8.2798   17.1623 C   0  0  0  0  0  0  0  0  0  0  0  0
   15.8790   -8.1093   18.5758 N   0  0  0  0  0  0  0  0  0  0  0  0
   15.0849   -7.5864   16.4595 O   0  0  0  0  0  0  0  0  0  0  0  0
   16.4874   -8.6486   19.1310 H   0  0  0  0  0  0  0  0  0  0  0  0
   15.2797   -7.4521   18.9980 H   0  0  0  0  0  0  0  0  0  0  0  0
 11 12  1  0  0  0
 12 13  2  0  0  0
 12 14  2  0  0  0
 12  1  1  0  0  0
  1  2  2  0  0  0
  2  3  1  0  0  0
  3  4  2  0  0  0
  4  5  1  0  0  0
  5  6  2  0  0  0
  6  7  1  0  0  0
  7  8  2  0  0  0
  8 15  1  0  0  0
 15 17  1  0  0  0
 17 18  1  0  0  0
 18 19  2  0  0  0
 19 20  1  0  0  0
 20 21  2  0  0  0
 21 22  1  0  0  0
 21 23  1  0  0  0
 23 24  1  0  0  0
 23 25  2  0  0  0
  8  9  1  0  0  0
  9 10  2  0  0  0
 10  1  1  0  0  0
  9  4  1  0  0  0
 22 18  1  0  0  0
 15 16  1  0  0  0
 24 26  1  0  0  0
 24 27  1  0  0  0
M  END
>  <minimizedAffinity>
-4.39761

>  <minimizedRMSD>
2.56186

$$$$
12034483 CSSS00160578555 MCULE-9996412646 MolPort-047-398-832 PubChem-42365807


 34 37  0  0  0  0  0  0  0  0999 V2000
   15.8618   -8.2744   16.6015 C   0  0  0  0  0  0  0  0  0  0  0  0
   17.2530   -8.2249   16.7440 C   0  0  0  0  0  0  0  0  0  0  0  0
   18.0740   -8.6387   15.7445 N   0  0  0  0  0  0  0  0  0  0  0  0
   17.5746   -9.1080   14.5722 C   0  0  0  0  0  0  0  0  0  0  0  0
   16.1943   -9.1872   14.3569 C   0  0  0  0  0  0  0  0  0  0  0  0
   15.3260   -8.7638   15.3885 C   0  0  0  0  0  0  0  0  0  0  0  0
   14.0764   -8.8213   15.2268 O   0  0  0  0  0  0  0  0  0  0  0  0
   14.7035   -7.5052   20.2143 C   0  0  0  0  0  0  0  0  0  0  0  0
   15.4881   -7.9442   19.0727 N   0  0  0  0  0  0  0  0  0  0  0  0
   15.0164   -7.8097   17.7288 C   0  0  0  0  0  0  0  0  0  0  0  0
   13.8842   -7.2963   17.5155 O   0  0  0  0  0  0  0  0  0  0  0  0
   16.3727   -8.3471   19.2291 H   0  0  0  0  0  0  0  0  0  0  0  0
   15.7091   -9.7066   13.0550 C   0  0  0  0  0  0  0  0  0  0  0  0
   14.5231  -10.1161   12.9267 O   0  0  0  0  0  0  0  0  0  0  0  0
   16.5963   -9.7453   11.9313 N   0  0  0  0  0  0  0  0  0  0  0  0
   17.5325   -9.4696   12.0615 H   0  0  0  0  0  0  0  0  0  0  0  0
   16.1755  -10.1744   10.6051 C   0  0  0  0  0  0  0  0  0  0  0  0
   17.0436   -9.5537    9.5656 C   0  0  0  0  0  0  0  0  0  0  0  0
   16.8655   -9.7530    8.2371 N   0  0  0  0  0  0  0  0  0  0  0  0
   17.7623   -9.0325    7.5180 C   0  0  0  0  0  0  0  0  0  0  0  0
   17.8328   -9.0303    6.1249 C   0  0  0  0  0  0  0  0  0  0  0  0
   18.8090   -8.2330    5.5040 C   0  0  0  0  0  0  0  0  0  0  0  0
   19.6938   -7.4539    6.2753 C   0  0  0  0  0  0  0  0  0  0  0  0
   19.6134   -7.4623    7.6768 C   0  0  0  0  0  0  0  0  0  0  0  0
   18.6383   -8.2617    8.2668 C   0  0  0  0  0  0  0  0  0  0  0  0
   18.3014   -8.4689    9.8968 S   0  0  0  0  0  0  0  0  0  0  0  0
   19.5132   -8.5582   15.9243 C   0  0  0  0  0  0  0  0  0  0  0  0
   20.2091   -9.5741   15.0311 C   0  0  0  0  0  0  0  0  0  0  0  0
   19.4038  -10.8242   14.9334 C   0  0  0  0  0  0  0  0  0  0  0  0
   19.2396  -11.4456   13.6909 C   0  0  0  0  0  0  0  0  0  0  0  0
   18.4717  -12.6095   13.5852 C   0  0  0  0  0  0  0  0  0  0  0  0
   17.8628  -13.1513   14.7212 C   0  0  0  0  0  0  0  0  0  0  0  0
   18.0197  -12.5285   15.9632 C   0  0  0  0  0  0  0  0  0  0  0  0
   18.7873  -11.3647   16.0695 C   0  0  0  0  0  0  0  0  0  0  0  0
  8  9  1  0  0  0
  9 10  1  0  0  0
 10 11  2  0  0  0
 10  1  1  0  0  0
  1  2  2  0  0  0
  2  3  1  0  0  0
  3  4  1  0  0  0
  3 27  1  0  0  0
  4  5  2  0  0  0
  5  6  1  0  0  0
  5 13  1  0  0  0
  6  7  2  0  0  0
  6  1  1  0  0  0
 13 14  2  0  0  0
 13 15  1  0  0  0
 15 17  1  0  0  0
 17 18  1  0  0  0
 18 19  2  0  0  0
 19 20  1  0  0  0
 20 21  2  0  0  0
 21 22  1  0  0  0
 22 23  2  0  0  0
 23 24  1  0  0  0
 24 25  2  0  0  0
 25 26  1  0  0  0
 25 20  1  0  0  0
 26 18  1  0  0  0
 27 28  1  0  0  0
 28 29  1  0  0  0
 29 30  2  0  0  0
 30 31  1  0  0  0
 31 32  2  0  0  0
 32 33  1  0  0  0
 33 34  2  0  0  0
 34 29  1  0  0  0
  9 12  1  0  0  0
 15 16  1  0  0  0
M  END
>  <minimizedAffinity>
-4.39306

>  <minimizedRMSD>
2.59388

$$$$
535204203 CSSS00160447653 MCULE-2853591389 MolPort-046-803-429 PubChem-145886078 Z1519350989


 33 36  0  0  0  0  0  0  0  0999 V2000
   16.9686  -10.1875   15.7867 C   0  0  0  0  0  0  0  0  0  0  0  0
   17.8835  -10.9550   15.0594 C   0  0  0  0  0  0  0  0  0  0  0  0
   17.9524  -10.8318   13.6688 C   0  0  0  0  0  0  0  0  0  0  0  0
   17.1087   -9.9430   12.9940 C   0  0  0  0  0  0  0  0  0  0  0  0
   16.1913   -9.1759   13.7281 C   0  0  0  0  0  0  0  0  0  0  0  0
   16.1216   -9.2978   15.1185 C   0  0  0  0  0  0  0  0  0  0  0  0
   17.2145   -9.8404   11.5679 N   0  0  0  0  0  0  0  0  0  0  0  0
   16.1642  -10.0391   10.6129 C   0  0  0  0  0  0  0  0  0  0  0  0
   15.0005  -10.3565   10.9760 O   0  0  0  0  0  0  0  0  0  0  0  0
   18.1008   -9.6094   11.2070 H   0  0  0  0  0  0  0  0  0  0  0  0
   16.4474   -9.8307    9.1658 C   0  0  0  0  0  0  0  0  0  0  0  0
   17.5098   -8.7977    8.9938 C   0  0  0  0  0  0  0  0  0  0  0  0
   17.9419   -7.9728    9.9769 N   0  0  0  0  0  0  0  0  0  0  0  0
   18.9110   -7.2478    9.4806 O   0  0  0  0  0  0  0  0  0  0  0  0
   19.1270   -7.5746    8.2297 C   0  0  0  0  0  0  0  0  0  0  0  0
   20.0685   -7.0562    7.3453 C   0  0  0  0  0  0  0  0  0  0  0  0
   20.0984   -7.5986    6.0458 C   0  0  0  0  0  0  0  0  0  0  0  0
   19.2023   -8.6277    5.6729 C   0  0  0  0  0  0  0  0  0  0  0  0
   18.2618   -9.1284    6.5933 C   0  0  0  0  0  0  0  0  0  0  0  0
   18.2610   -8.5646    7.8664 C   0  0  0  0  0  0  0  0  0  0  0  0
   16.8974  -10.3352   17.5336 S   0  0  0  0  0  0  0  0  0  0  0  0
   18.1275  -11.0490   18.0176 O   0  0  0  0  0  0  0  0  0  0  0  0
   15.6812  -11.1187   17.9423 O   0  0  0  0  0  0  0  0  0  0  0  0
   16.8262   -8.7614   18.2535 N   0  0  0  0  0  0  0  0  0  0  0  0
   17.6697   -8.2931   18.4491 H   0  0  0  0  0  0  0  0  0  0  0  0
   13.2248   -6.8599   19.2251 C   0  0  0  0  0  0  0  0  0  0  0  0
   14.1005   -7.2977   20.2174 C   0  0  0  0  0  0  0  0  0  0  0  0
   15.2627   -7.9140   19.8775 N   0  0  0  0  0  0  0  0  0  0  0  0
   15.5934   -8.1153   18.5749 C   0  0  0  0  0  0  0  0  0  0  0  0
   14.7518   -7.6965   17.5907 N   0  0  0  0  0  0  0  0  0  0  0  0
   13.5813   -7.0763   17.8893 C   0  0  0  0  0  0  0  0  0  0  0  0
   11.6556   -4.9560   19.0719 C   0  0  0  0  0  0  0  0  0  0  0  0
   12.0328   -6.2262   19.5851 O   0  0  0  0  0  0  0  0  0  0  0  0
 32 33  1  0  0  0
 33 26  1  0  0  0
 26 27  2  0  0  0
 27 28  1  0  0  0
 28 29  2  0  0  0
 29 24  1  0  0  0
 24 21  1  0  0  0
 21 22  2  0  0  0
 21 23  2  0  0  0
 21  1  1  0  0  0
  1  2  2  0  0  0
  2  3  1  0  0  0
  3  4  2  0  0  0
  4  7  1  0  0  0
  7  8  1  0  0  0
  8  9  2  0  0  0
  8 11  1  0  0  0
 11 12  1  0  0  0
 12 13  2  0  0  0
 13 14  1  0  0  0
 14 15  1  0  0  0
 15 16  2  0  0  0
 16 17  1  0  0  0
 17 18  2  0  0  0
 18 19  1  0  0  0
 19 20  2  0  0  0
  4  5  1  0  0  0
  5  6  2  0  0  0
 29 30  1  0  0  0
 30 31  2  0  0  0
 31 26  1  0  0  0
  6  1  1  0  0  0
 20 12  1  0  0  0
 20 15  1  0  0  0
 24 25  1  0  0  0
  7 10  1  0  0  0
M  END
>  <minimizedAffinity>
-4.37095

>  <minimizedRMSD>
2.69909

$$$$
CSC027337953 CSSS00027337953 MCULE-1734971553 MolPort-009-168-975 PubChem-47021126 Z281816490


 26 28  0  0  0  0  0  0  0  0999 V2000
   19.1729  -12.0755   13.3273 C   0  0  0  0  0  0  0  0  0  0  0  0
   18.5584  -10.7214   13.6463 C   0  0  0  0  0  0  0  0  0  0  0  0
   18.0439  -10.6917   15.0496 C   0  0  0  0  0  0  0  0  0  0  0  0
   18.4269  -11.6652   15.9852 C   0  0  0  0  0  0  0  0  0  0  0  0
   17.9256  -11.6211   17.2890 C   0  0  0  0  0  0  0  0  0  0  0  0
   17.0403  -10.6064   17.6632 C   0  0  0  0  0  0  0  0  0  0  0  0
   16.6559   -9.6326   16.7351 C   0  0  0  0  0  0  0  0  0  0  0  0
   17.1558   -9.6799   15.4291 C   0  0  0  0  0  0  0  0  0  0  0  0
   15.5352   -8.3668   17.2014 S   0  0  0  0  0  0  0  0  0  0  0  0
   15.9834   -7.7295   18.7436 N   0  0  0  0  0  0  0  0  0  0  0  0
   15.5749   -7.2573   16.1884 O   0  0  0  0  0  0  0  0  0  0  0  0
   14.1440   -8.9289   17.2766 O   0  0  0  0  0  0  0  0  0  0  0  0
   16.9280   -7.3479   18.6923 H   0  0  0  0  0  0  0  0  0  0  0  0
   15.9548   -8.4737   19.4404 H   0  0  0  0  0  0  0  0  0  0  0  0
   17.4828  -10.4186   12.7102 N   0  0  0  0  0  0  0  0  0  0  0  0
   16.5592  -10.6296   12.9780 H   0  0  0  0  0  0  0  0  0  0  0  0
   17.6971   -9.8310   11.4221 C   0  0  0  0  0  0  0  0  0  0  0  0
   18.8874   -9.1563   11.0999 C   0  0  0  0  0  0  0  0  0  0  0  0
   19.0229   -8.5979    9.8127 C   0  0  0  0  0  0  0  0  0  0  0  0
   20.2731   -7.8816    9.4493 C   0  0  0  0  0  0  0  0  0  0  0  0
   18.0144   -8.7095    8.8978 N   0  0  0  0  0  0  0  0  0  0  0  0
   16.8844   -9.3670    9.2549 C   0  0  0  0  0  0  0  0  0  0  0  0
   15.8075   -9.5615    8.4779 N   0  0  0  0  0  0  0  0  0  0  0  0
   14.9915  -10.2593    9.3159 C   0  0  0  0  0  0  0  0  0  0  0  0
   15.5547  -10.4705   10.5334 N   0  0  0  0  0  0  0  0  0  0  0  0
   16.7400   -9.9000   10.4651 N   0  0  0  0  0  0  0  0  0  0  0  0
  2  1  1  0  0  0
  2 15  1  0  0  0
  2  3  1  0  0  0
 15 17  1  0  0  0
 17 18  2  0  0  0
 18 19  1  0  0  0
 19 20  1  0  0  0
 19 21  2  0  0  0
 21 22  1  0  0  0
 22 23  2  0  0  0
 23 24  1  0  0  0
 24 25  2  0  0  0
 25 26  1  0  0  0
 26 17  1  0  0  0
 26 22  1  0  0  0
  3  4  2  0  0  0
  4  5  1  0  0  0
  5  6  2  0  0  0
  6  7  1  0  0  0
  7  8  2  0  0  0
  7  9  1  0  0  0
  8  3  1  0  0  0
  9 10  1  0  0  0
  9 11  2  0  0  0
  9 12  2  0  0  0
 15 16  1  0  0  0
 10 13  1  0  0  0
 10 14  1  0  0  0
M  END
>  <minimizedAffinity>
-4.35503

>  <minimizedRMSD>
1.90828

$$$$
CSSS01529573153 MCULE-8411186269 MolPort-047-946-768 PubChem-163348615


 26 28  0  0  0  0  0  0  0  0999 V2000
   17.0630   -9.6433   12.5090 N   0  0  0  0  0  0  0  0  0  0  0  0
   16.6017   -8.5191   13.3211 C   0  0  0  0  0  0  0  0  0  0  0  0
   16.2148   -9.0221   14.7091 C   0  0  0  0  0  0  0  0  0  0  0  0
   17.3349   -9.7525   15.3067 N   0  0  0  0  0  0  0  0  0  0  0  0
   17.6296  -10.9407   14.4923 C   0  0  0  0  0  0  0  0  0  0  0  0
   18.0769  -10.5171   13.0964 C   0  0  0  0  0  0  0  0  0  0  0  0
   18.7257   -8.3044    8.6134 C   0  0  0  0  0  0  0  0  0  0  0  0
   18.4015   -8.6146    9.9352 C   0  0  0  0  0  0  0  0  0  0  0  0
   17.2030   -9.3361   10.0209 C   0  0  0  0  0  0  0  0  0  0  0  0
   16.5476   -9.8178   11.1715 C   0  0  0  0  0  0  0  0  0  0  0  0
   15.3690  -10.4883   10.9943 N   0  0  0  0  0  0  0  0  0  0  0  0
   14.8291  -10.6997    9.7583 C   0  0  0  0  0  0  0  0  0  0  0  0
   15.4597  -10.2401    8.6435 N   0  0  0  0  0  0  0  0  0  0  0  0
   16.6263   -9.5706    8.7860 C   0  0  0  0  0  0  0  0  0  0  0  0
   17.5577   -8.9155    7.5564 S   0  0  0  0  0  0  0  0  0  0  0  0
   19.9649   -7.4206    6.6716 C   0  0  0  0  0  0  0  0  0  0  0  0
   19.9452   -7.5665    8.1804 C   0  0  0  0  0  0  0  0  0  0  0  0
   16.9636  -10.1225   16.6830 C   0  0  0  0  0  0  0  0  0  0  0  0
   17.9541  -11.0800   17.3509 C   0  0  0  0  0  0  0  0  0  0  0  0
   16.7016   -8.9227   17.5472 C   0  0  0  0  0  0  0  0  0  0  0  0
   17.6471   -8.1661   17.9015 O   0  0  0  0  0  0  0  0  0  0  0  0
   15.3604   -8.6306   17.9475 N   0  0  0  0  0  0  0  0  0  0  0  0
   14.6347   -9.2151   17.6298 H   0  0  0  0  0  0  0  0  0  0  0  0
   15.0248   -7.5044   18.8056 C   0  0  0  0  0  0  0  0  0  0  0  0
   13.6478   -6.9897   18.4420 C   0  0  0  0  0  0  0  0  0  0  0  0
   15.0252   -7.9427   20.2577 C   0  0  0  0  0  0  0  0  0  0  0  0
 16 17  1  0  0  0
 17  7  1  0  0  0
  7  8  2  0  0  0
  8  9  1  0  0  0
  9 10  2  0  0  0
 10 11  1  0  0  0
 11 12  2  0  0  0
 12 13  1  0  0  0
 13 14  2  0  0  0
 14 15  1  0  0  0
 10  1  1  0  0  0
  1  2  1  0  0  0
  2  3  1  0  0  0
  3  4  1  0  0  0
  4  5  1  0  0  0
  5  6  1  0  0  0
  4 18  1  0  0  0
 18 19  1  0  0  0
 18 20  1  0  0  0
 20 21  2  0  0  0
 20 22  1  0  0  0
 22 24  1  0  0  0
 24 25  1  0  0  0
 24 26  1  0  0  0
 15  7  1  0  0  0
  6  1  1  0  0  0
 14  9  1  0  0  0
 22 23  1  0  0  0
M  END
>  <minimizedAffinity>
-4.34097

>  <minimizedRMSD>
2.09793

$$$$
CSC026021792 9224125 CSSS00026021792 MCULE-7487196105 MolPort-004-483-055 PubChem-16264646 Z18551013 ZINC000009224125 ZINC09224125


 35 38  0  0  0  0  0  0  0  0999 V2000
   18.5094  -11.9219   13.2030 C   0  0  0  0  0  0  0  0  0  0  0  0
   18.2496  -11.4850   14.6039 C   0  0  0  0  0  0  0  0  0  0  0  0
   18.0663  -12.3975   15.6422 C   0  0  0  0  0  0  0  0  0  0  0  0
   17.7734  -11.4837   17.0271 S   0  0  0  0  0  0  0  0  0  0  0  0
   17.9057  -10.0056   16.2490 C   0  0  0  0  0  0  0  0  0  0  0  0
   18.1539  -10.1686   14.9351 N   0  0  0  0  0  0  0  0  0  0  0  0
   17.6761   -8.6807   16.8892 C   0  0  0  0  0  0  0  0  0  0  0  0
   16.2157   -8.4378   17.0476 C   0  0  0  0  0  0  0  0  0  0  0  0
   15.4246   -8.8243   16.1475 O   0  0  0  0  0  0  0  0  0  0  0  0
   15.7360   -7.7960   18.2358 N   0  0  0  0  0  0  0  0  0  0  0  0
   16.4178   -7.5025   18.8825 H   0  0  0  0  0  0  0  0  0  0  0  0
   14.3669   -7.5349   18.5848 C   0  0  0  0  0  0  0  0  0  0  0  0
   13.4038   -7.2507   17.6028 C   0  0  0  0  0  0  0  0  0  0  0  0
   12.0757   -7.0032   17.9596 C   0  0  0  0  0  0  0  0  0  0  0  0
   11.6968   -7.0374   19.3035 C   0  0  0  0  0  0  0  0  0  0  0  0
   12.6460   -7.3195   20.2894 C   0  0  0  0  0  0  0  0  0  0  0  0
   13.9764   -7.5688   19.9369 C   0  0  0  0  0  0  0  0  0  0  0  0
   14.9630   -7.8635   21.0164 C   0  0  0  0  0  0  0  0  0  0  0  0
   18.7087  -10.7914   12.3624 O   0  0  0  0  0  0  0  0  0  0  0  0
   17.6479  -10.0585   11.8235 C   0  0  0  0  0  0  0  0  0  0  0  0
   16.4531  -10.4077   12.0212 O   0  0  0  0  0  0  0  0  0  0  0  0
   17.9338   -8.8619   10.9824 C   0  0  0  0  0  0  0  0  0  0  0  0
   17.0779   -9.5829    5.0370 C   0  0  0  0  0  0  0  0  0  0  0  0
   17.8458   -9.0216    6.1417 N   0  0  0  0  0  0  0  0  0  0  0  0
   17.4566   -9.2319    7.4251 C   0  0  0  0  0  0  0  0  0  0  0  0
   18.1441   -8.7342    8.4755 C   0  0  0  0  0  0  0  0  0  0  0  0
   17.5284   -9.1090    9.6062 N   0  0  0  0  0  0  0  0  0  0  0  0
   16.4675   -9.8489    9.1992 C   0  0  0  0  0  0  0  0  0  0  0  0
   16.3900   -9.9419    7.8430 N   0  0  0  0  0  0  0  0  0  0  0  0
   19.2904   -7.9751    8.2717 C   0  0  0  0  0  0  0  0  0  0  0  0
   19.9362   -7.5016    9.2469 O   0  0  0  0  0  0  0  0  0  0  0  0
   19.6934   -7.7545    6.9781 N   0  0  0  0  0  0  0  0  0  0  0  0
   20.8921   -6.9609    6.7231 C   0  0  0  0  0  0  0  0  0  0  0  0
   18.9772   -8.2732    5.9173 C   0  0  0  0  0  0  0  0  0  0  0  0
   19.3629   -8.0597    4.7331 O   0  0  0  0  0  0  0  0  0  0  0  0
 23 24  1  0  0  0
 24 25  1  0  0  0
 25 26  2  0  0  0
 26 27  1  0  0  0
 26 30  1  0  0  0
 27 22  1  0  0  0
 27 28  1  0  0  0
 22 20  1  0  0  0
 20 21  2  0  0  0
 20 19  1  0  0  0
 19  1  1  0  0  0
  1  2  1  0  0  0
  2  3  2  0  0  0
  3  4  1  0  0  0
  4  5  1  0  0  0
  5  7  1  0  0  0
  5  6  2  0  0  0
  7  8  1  0  0  0
  8  9  2  0  0  0
  8 10  1  0  0  0
 10 12  1  0  0  0
 12 13  2  0  0  0
 13 14  1  0  0  0
 14 15  2  0  0  0
 15 16  1  0  0  0
 16 17  2  0  0  0
 17 18  1  0  0  0
 17 12  1  0  0  0
  6  2  1  0  0  0
 28 29  2  0  0  0
 29 25  1  0  0  0
 30 31  2  0  0  0
 30 32  1  0  0  0
 32 33  1  0  0  0
 32 34  1  0  0  0
 34 35  2  0  0  0
 34 24  1  0  0  0
 10 11  1  0  0  0
M  END
>  <minimizedAffinity>
-4.33753

>  <minimizedRMSD>
1.88876

$$$$
CSC028062472 16470780 CSSS00028062472 MCULE-2666959536 MolPort-010-456-461 PubChem-27148359 Z169682924 ZINC000016470780 ZINC16470780


 30 32  0  0  0  0  0  0  0  0999 V2000
   17.9971  -11.1057   13.1576 N   0  0  0  0  0  0  0  0  0  0  0  0
   18.2331  -12.3890   13.8002 C   0  0  0  0  0  0  0  0  0  0  0  0
   17.2214  -11.0343   11.9489 C   0  0  0  0  0  0  0  0  0  0  0  0
   16.8084  -12.0900   11.3984 O   0  0  0  0  0  0  0  0  0  0  0  0
   18.5660   -9.9126   13.7753 C   0  0  0  0  0  0  0  0  0  0  0  0
   15.9694   -8.4135   16.8574 C   0  0  0  0  0  0  0  0  0  0  0  0
   16.9420   -9.3777   17.1593 C   0  0  0  0  0  0  0  0  0  0  0  0
   17.7886   -9.8653   16.1595 C   0  0  0  0  0  0  0  0  0  0  0  0
   17.6693   -9.3922   14.8487 C   0  0  0  0  0  0  0  0  0  0  0  0
   16.7025   -8.4304   14.5412 C   0  0  0  0  0  0  0  0  0  0  0  0
   15.8561   -7.9431   15.5407 C   0  0  0  0  0  0  0  0  0  0  0  0
   14.5702   -7.5915   20.3632 C   0  0  0  0  0  0  0  0  0  0  0  0
   15.4183   -8.0796   19.2888 N   0  0  0  0  0  0  0  0  0  0  0  0
   15.0770   -7.9003   17.9117 C   0  0  0  0  0  0  0  0  0  0  0  0
   14.0106   -7.3022   17.6000 O   0  0  0  0  0  0  0  0  0  0  0  0
   16.2537   -8.5483   19.5161 H   0  0  0  0  0  0  0  0  0  0  0  0
   16.9004   -9.7223   11.3136 C   0  0  0  0  0  0  0  0  0  0  0  0
   18.1809   -8.9875   10.9538 C   0  0  0  0  0  0  0  0  0  0  0  0
   18.2765   -8.8201    9.5085 N   0  0  0  0  0  0  0  0  0  0  0  0
   17.3138   -9.3712    8.7186 C   0  0  0  0  0  0  0  0  0  0  0  0
   17.3716   -9.2442    7.3683 N   0  0  0  0  0  0  0  0  0  0  0  0
   18.3878   -8.5699    6.7690 C   0  0  0  0  0  0  0  0  0  0  0  0
   18.4387   -8.4409    5.3695 C   0  0  0  0  0  0  0  0  0  0  0  0
   17.3849   -9.0349    4.4979 C   0  0  0  0  0  0  0  0  0  0  0  0
   19.4942   -7.7436    4.7738 C   0  0  0  0  0  0  0  0  0  0  0  0
   20.4988   -7.1744    5.5607 C   0  0  0  0  0  0  0  0  0  0  0  0
   20.4548   -7.2989    6.9510 C   0  0  0  0  0  0  0  0  0  0  0  0
   19.4027   -7.9949    7.5626 C   0  0  0  0  0  0  0  0  0  0  0  0
   19.3253   -8.1393    8.9554 C   0  0  0  0  0  0  0  0  0  0  0  0
   20.2188   -7.6380    9.6945 O   0  0  0  0  0  0  0  0  0  0  0  0
 12 13  1  0  0  0
 13 14  1  0  0  0
 14 15  2  0  0  0
 14  6  1  0  0  0
  6  7  2  0  0  0
  7  8  1  0  0  0
  8  9  2  0  0  0
  9  5  1  0  0  0
  9 10  1  0  0  0
  5  1  1  0  0  0
  1  2  1  0  0  0
  1  3  1  0  0  0
  3  4  2  0  0  0
  3 17  1  0  0  0
 17 18  1  0  0  0
 18 19  1  0  0  0
 19 20  1  0  0  0
 20 21  2  0  0  0
 21 22  1  0  0  0
 22 23  2  0  0  0
 23 24  1  0  0  0
 23 25  1  0  0  0
 25 26  2  0  0  0
 26 27  1  0  0  0
 27 28  2  0  0  0
 28 29  1  0  0  0
 28 22  1  0  0  0
 29 30  2  0  0  0
 29 19  1  0  0  0
 10 11  2  0  0  0
 11  6  1  0  0  0
 13 16  1  0  0  0
M  END
>  <minimizedAffinity>
-4.33079

>  <minimizedRMSD>
2.47039

$$$$
CSSS00089769645 PubChem-154744787 Z1757895909


 30 33  0  0  0  0  0  0  0  0999 V2000
   17.8330  -10.6583   12.6565 N   0  0  0  0  0  0  0  0  0  0  0  0
   17.4580  -11.9940   13.1211 C   0  0  0  0  0  0  0  0  0  0  0  0
   18.6038  -12.6021   13.9240 C   0  0  0  0  0  0  0  0  0  0  0  0
   18.9081  -11.7245   15.1327 C   0  0  0  0  0  0  0  0  0  0  0  0
   19.2026  -10.2906   14.6929 C   0  0  0  0  0  0  0  0  0  0  0  0
   18.0826   -9.7479   13.7963 C   0  0  0  0  0  0  0  0  0  0  0  0
   16.8484   -9.3654   14.5876 C   0  0  0  0  0  0  0  0  0  0  0  0
   15.5375   -9.6244   14.2225 C   0  0  0  0  0  0  0  0  0  0  0  0
   14.7452   -9.1038   15.2351 C   0  0  0  0  0  0  0  0  0  0  0  0
   15.6129   -8.5551   16.1640 C   0  0  0  0  0  0  0  0  0  0  0  0
   16.8901   -8.7183   15.7654 N   0  0  0  0  0  0  0  0  0  0  0  0
   18.0962   -8.2805   16.4544 C   0  0  0  0  0  0  0  0  0  0  0  0
   15.1805   -7.8928   17.4097 C   0  0  0  0  0  0  0  0  0  0  0  0
   14.2067   -7.0914   17.4016 O   0  0  0  0  0  0  0  0  0  0  0  0
   15.8749   -8.1604   18.6303 N   0  0  0  0  0  0  0  0  0  0  0  0
   15.5022   -7.5225   19.8801 C   0  0  0  0  0  0  0  0  0  0  0  0
   16.6272   -8.7954   18.6232 H   0  0  0  0  0  0  0  0  0  0  0  0
   16.7580  -10.1486   11.8139 C   0  0  0  0  0  0  0  0  0  0  0  0
   18.9826   -7.8865    7.2559 N   0  0  0  0  0  0  0  0  0  0  0  0
   18.3171   -8.4715    8.2621 C   0  0  0  0  0  0  0  0  0  0  0  0
   19.0405   -8.3710    9.4075 C   0  0  0  0  0  0  0  0  0  0  0  0
   18.5759   -8.9004   10.6054 C   0  0  0  0  0  0  0  0  0  0  0  0
   17.3231   -9.5436   10.5741 C   0  0  0  0  0  0  0  0  0  0  0  0
   16.6106   -9.6432    9.3550 C   0  0  0  0  0  0  0  0  0  0  0  0
   17.1168   -9.1006    8.2055 N   0  0  0  0  0  0  0  0  0  0  0  0
   20.2013   -7.7004    9.0713 C   0  0  0  0  0  0  0  0  0  0  0  0
   20.1285   -7.4174    7.7410 N   0  0  0  0  0  0  0  0  0  0  0  0
   19.4079   -6.6956    5.1586 C   0  0  0  0  0  0  0  0  0  0  0  0
   18.5814   -7.7592    5.8589 C   0  0  0  0  0  0  0  0  0  0  0  0
   18.7194   -9.0869    5.1390 C   0  0  0  0  0  0  0  0  0  0  0  0
 28 29  1  0  0  0
 29 30  1  0  0  0
 29 19  1  0  0  0
 19 20  1  0  0  0
 20 21  2  0  0  0
 21 22  1  0  0  0
 22 23  2  0  0  0
 23 24  1  0  0  0
 24 25  2  0  0  0
 23 18  1  0  0  0
 18  1  1  0  0  0
  1  2  1  0  0  0
  2  3  1  0  0  0
  3  4  1  0  0  0
  4  5  1  0  0  0
  5  6  1  0  0  0
  6  7  1  0  0  0
  7  8  2  0  0  0
  8  9  1  0  0  0
  9 10  2  0  0  0
 10 11  1  0  0  0
 11 12  1  0  0  0
 10 13  1  0  0  0
 13 14  2  0  0  0
 13 15  1  0  0  0
 15 16  1  0  0  0
 21 26  1  0  0  0
 26 27  2  0  0  0
 27 19  1  0  0  0
 25 20  1  0  0  0
  6  1  1  0  0  0
 11  7  1  0  0  0
 15 17  1  0  0  0
M  END
>  <minimizedAffinity>
-4.31747

>  <minimizedRMSD>
1.83057

$$$$
CSC027951856 3272149 CSSS00027951856 MCULE-7513798694 MolPort-004-257-788 PubChem-2388283 Z20255805 ZINC000003272149 ZINC03272149


 34 37  0  0  0  0  0  0  0  0999 V2000
   16.2713   -8.9102   14.0912 N   0  0  0  0  0  0  0  0  0  0  0  0
   16.2077   -9.8252   13.1060 C   0  0  0  0  0  0  0  0  0  0  0  0
   17.1263  -10.7957   13.2771 N   0  0  0  0  0  0  0  0  0  0  0  0
   17.7943  -10.5037   14.3854 N   0  0  0  0  0  0  0  0  0  0  0  0
   17.2720   -9.3595   14.8670 C   0  0  0  0  0  0  0  0  0  0  0  0
   15.9263   -6.6450   13.2469 C   0  0  0  0  0  0  0  0  0  0  0  0
   15.4911   -7.6897   14.2571 C   0  0  0  0  0  0  0  0  0  0  0  0
   15.2846   -9.7499   11.9341 C   0  0  0  0  0  0  0  0  0  0  0  0
   15.6457  -11.0731   10.7345 S   0  0  0  0  0  0  0  0  0  0  0  0
   16.7183  -10.0427    9.7412 C   0  0  0  0  0  0  0  0  0  0  0  0
   16.6849  -10.0232    8.3869 N   0  0  0  0  0  0  0  0  0  0  0  0
   17.5944   -9.1430    7.8986 C   0  0  0  0  0  0  0  0  0  0  0  0
   17.7949   -8.8911    6.5415 C   0  0  0  0  0  0  0  0  0  0  0  0
   18.7715   -7.9506    6.1709 C   0  0  0  0  0  0  0  0  0  0  0  0
   19.5275   -7.2789    7.1518 C   0  0  0  0  0  0  0  0  0  0  0  0
   19.3172   -7.5393    8.5149 C   0  0  0  0  0  0  0  0  0  0  0  0
   18.3435   -8.4746    8.8550 C   0  0  0  0  0  0  0  0  0  0  0  0
   17.8751   -8.9847   10.3820 S   0  0  0  0  0  0  0  0  0  0  0  0
   17.8697   -8.5341   16.3386 S   0  0  0  0  0  0  0  0  0  0  0  0
   16.6044   -9.3153   17.3819 C   0  0  0  0  0  0  0  0  0  0  0  0
   15.6320   -8.2936   17.8554 C   0  0  0  0  0  0  0  0  0  0  0  0
   15.0853   -7.5224   17.0226 O   0  0  0  0  0  0  0  0  0  0  0  0
   15.3297   -8.2137   19.2543 N   0  0  0  0  0  0  0  0  0  0  0  0
   15.8165   -8.8340   19.8438 H   0  0  0  0  0  0  0  0  0  0  0  0
   14.3938   -7.3276   19.8912 C   0  0  0  0  0  0  0  0  0  0  0  0
   13.1066   -7.1489   19.3584 C   0  0  0  0  0  0  0  0  0  0  0  0
   12.1892   -6.2936   19.9686 C   0  0  0  0  0  0  0  0  0  0  0  0
   12.5458   -5.6034   21.1249 C   0  0  0  0  0  0  0  0  0  0  0  0
   13.8196   -5.7695   21.6687 C   0  0  0  0  0  0  0  0  0  0  0  0
   14.7567   -6.6257   21.0693 C   0  0  0  0  0  0  0  0  0  0  0  0
   16.0903   -6.7451   21.7064 C   0  0  0  0  0  0  0  0  0  0  0  0
   17.1466   -6.5786   21.0365 O   0  0  0  0  0  0  0  0  0  0  0  0
   16.1728   -7.0427   23.0700 O   0  0  0  0  0  0  0  0  0  0  0  0
   17.3280   -6.7392   23.8375 C   0  0  0  0  0  0  0  0  0  0  0  0
  6  7  1  0  0  0
  7  1  1  0  0  0
  1  2  1  0  0  0
  2  8  1  0  0  0
  2  3  2  0  0  0
  8  9  1  0  0  0
  9 10  1  0  0  0
 10 11  2  0  0  0
 11 12  1  0  0  0
 12 13  2  0  0  0
 13 14  1  0  0  0
 14 15  2  0  0  0
 15 16  1  0  0  0
 16 17  2  0  0  0
 17 18  1  0  0  0
 17 12  1  0  0  0
 18 10  1  0  0  0
  3  4  1  0  0  0
  4  5  2  0  0  0
  5 19  1  0  0  0
  5  1  1  0  0  0
 19 20  1  0  0  0
 20 21  1  0  0  0
 21 22  2  0  0  0
 21 23  1  0  0  0
 23 25  1  0  0  0
 25 26  2  0  0  0
 26 27  1  0  0  0
 27 28  2  0  0  0
 28 29  1  0  0  0
 29 30  2  0  0  0
 30 31  1  0  0  0
 30 25  1  0  0  0
 31 32  2  0  0  0
 31 33  1  0  0  0
 33 34  1  0  0  0
 23 24  1  0  0  0
M  END
>  <minimizedAffinity>
-4.31655

>  <minimizedRMSD>
2.30814

$$$$
1704315461 CSSS02125540759 MCULE-8835939576 MolPort-046-566-267 PubChem-135104549 ZINC001704315461


 27 30  0  0  0  0  0  0  0  0999 V2000
   17.0071   -9.8422   13.3366 C   0  0  0  0  0  0  0  0  0  0  0  0
   16.3470   -9.0941   14.1094 O   0  0  0  0  0  0  0  0  0  0  0  0
   16.4787  -10.1812   12.0455 N   0  0  0  0  0  0  0  0  0  0  0  0
   17.2312  -11.0614   11.1454 C   0  0  0  0  0  0  0  0  0  0  0  0
   16.4331  -11.3808    9.8798 C   0  0  0  0  0  0  0  0  0  0  0  0
   15.8761  -10.1088    9.2193 C   0  0  0  0  0  0  0  0  0  0  0  0
   15.2750   -9.1023   10.2160 C   0  0  0  0  0  0  0  0  0  0  0  0
   15.1767   -9.6578   11.6340 C   0  0  0  0  0  0  0  0  0  0  0  0
   16.8950   -9.4296    8.3550 C   0  0  0  0  0  0  0  0  0  0  0  0
   17.0100   -9.6768    7.0223 N   0  0  0  0  0  0  0  0  0  0  0  0
   18.0240   -8.8672    6.6748 C   0  0  0  0  0  0  0  0  0  0  0  0
   18.5862   -8.6970    5.4124 C   0  0  0  0  0  0  0  0  0  0  0  0
   19.6502   -7.7819    5.2978 C   0  0  0  0  0  0  0  0  0  0  0  0
   20.1153   -7.0739    6.4299 C   0  0  0  0  0  0  0  0  0  0  0  0
   19.5225   -7.2716    7.6914 C   0  0  0  0  0  0  0  0  0  0  0  0
   18.4739   -8.1839    7.7636 C   0  0  0  0  0  0  0  0  0  0  0  0
   17.7687   -8.5394    8.8021 O   0  0  0  0  0  0  0  0  0  0  0  0
   18.3694   -9.6575   16.2101 C   0  0  0  0  0  0  0  0  0  0  0  0
   19.0100   -9.4797   14.8315 C   0  0  0  0  0  0  0  0  0  0  0  0
   18.3473  -10.3682   13.7739 C   0  0  0  0  0  0  0  0  0  0  0  0
   18.2895  -11.8334   14.2193 C   0  0  0  0  0  0  0  0  0  0  0  0
   17.6573  -11.9795   15.6023 C   0  0  0  0  0  0  0  0  0  0  0  0
   18.4055  -11.1303   16.6242 C   0  0  0  0  0  0  0  0  0  0  0  0
   17.8062  -11.2866   17.8742 O   0  0  0  0  0  0  0  0  0  0  0  0
   16.8812  -10.9983   17.8276 H   0  0  0  0  0  0  0  0  0  0  0  0
   19.9944   -8.1660   16.3925 C   0  0  0  0  0  0  0  0  0  0  0  0
   19.0596   -8.8807   17.1434 O   0  0  0  0  0  0  0  0  0  0  0  0
 26 27  1  0  0  0
 18 27  1  0  0  0
 18 19  1  0  0  0
 19 20  1  0  0  0
 20  1  1  0  0  0
  1  2  2  0  0  0
  1  3  1  0  0  0
  3  4  1  0  0  0
  4  5  1  0  0  0
  5  6  1  0  0  0
  6  9  1  0  0  0
  9 10  2  0  0  0
 10 11  1  0  0  0
 11 12  2  0  0  0
 12 13  1  0  0  0
 13 14  2  0  0  0
 14 15  1  0  0  0
 15 16  2  0  0  0
 16 17  1  0  0  0
  6  7  1  0  0  0
  7  8  1  0  0  0
 20 21  1  0  0  0
 21 22  1  0  0  0
 22 23  1  0  0  0
 23 24  1  0  0  0
 23 18  1  0  0  0
  8  3  1  0  0  0
 17  9  1  0  0  0
 16 11  1  0  0  0
 24 25  1  0  0  0
M  END
>  <minimizedAffinity>
-4.29730

>  <minimizedRMSD>
2.30285

$$$$
1875326929 CSSS00161140845 MCULE-2883054947 MolPort-047-338-172


 28 31  0  0  0  0  0  0  0  0999 V2000
   15.2403   -9.2795   14.5321 O   0  0  0  0  0  0  0  0  0  0  0  0
   15.8614   -9.7393   15.5290 C   0  0  0  0  0  0  0  0  0  0  0  0
   16.9330  -10.6737   15.3382 N   0  0  0  0  0  0  0  0  0  0  0  0
   17.6181  -11.3281   16.4354 C   0  0  0  0  0  0  0  0  0  0  0  0
   18.6410  -12.2445   15.7923 C   0  0  0  0  0  0  0  0  0  0  0  0
   18.2655  -12.3380   14.3195 C   0  0  0  0  0  0  0  0  0  0  0  0
   17.3392  -11.1668   14.0355 C   0  0  0  0  0  0  0  0  0  0  0  0
   15.4821   -9.2918   16.9052 C   0  0  0  0  0  0  0  0  0  0  0  0
   16.5241   -8.3313   17.4697 C   0  0  0  0  0  0  0  0  0  0  0  0
   16.0564   -7.8381   18.8308 C   0  0  0  0  0  0  0  0  0  0  0  0
   14.7861   -6.9991   18.7016 C   0  0  0  0  0  0  0  0  0  0  0  0
   13.7804   -7.6242   17.7788 C   0  0  0  0  0  0  0  0  0  0  0  0
   12.6068   -7.1726   17.7479 O   0  0  0  0  0  0  0  0  0  0  0  0
   14.1512   -8.6886   16.8955 N   0  0  0  0  0  0  0  0  0  0  0  0
   13.4832   -9.0272   16.2566 H   0  0  0  0  0  0  0  0  0  0  0  0
   18.0908  -10.0782   13.2827 C   0  0  0  0  0  0  0  0  0  0  0  0
   17.1679   -9.3153   12.4568 N   0  0  0  0  0  0  0  0  0  0  0  0
   16.4437   -8.8099   12.8919 H   0  0  0  0  0  0  0  0  0  0  0  0
   17.2809   -9.2773   11.0345 C   0  0  0  0  0  0  0  0  0  0  0  0
   18.1978   -8.4721   10.4292 N   0  0  0  0  0  0  0  0  0  0  0  0
   18.3134   -8.4362    9.0766 C   0  0  0  0  0  0  0  0  0  0  0  0
   19.2573   -7.6071    8.4650 C   0  0  0  0  0  0  0  0  0  0  0  0
   19.3620   -7.5838    7.0701 C   0  0  0  0  0  0  0  0  0  0  0  0
   18.5247   -8.3876    6.2875 C   0  0  0  0  0  0  0  0  0  0  0  0
   17.5782   -9.2195    6.8956 C   0  0  0  0  0  0  0  0  0  0  0  0
   17.4700   -9.2463    8.2885 C   0  0  0  0  0  0  0  0  0  0  0  0
   16.5574  -10.0480    8.8963 N   0  0  0  0  0  0  0  0  0  0  0  0
   16.4462  -10.0803   10.2514 C   0  0  0  0  0  0  0  0  0  0  0  0
  1  2  2  0  0  0
  8  2  1  0  0  0
  8  9  1  0  0  0
  9 10  1  0  0  0
 10 11  1  0  0  0
 11 12  1  0  0  0
 12 13  2  0  0  0
 12 14  1  0  0  0
  2  3  1  0  0  0
  3  4  1  0  0  0
  4  5  1  0  0  0
  5  6  1  0  0  0
  6  7  1  0  0  0
  7 16  1  0  0  0
 16 17  1  0  0  0
 17 19  1  0  0  0
 19 20  2  0  0  0
 20 21  1  0  0  0
 21 22  2  0  0  0
 22 23  1  0  0  0
 23 24  2  0  0  0
 24 25  1  0  0  0
 25 26  2  0  0  0
 26 27  1  0  0  0
 27 28  2  0  0  0
 14  8  1  0  0  0
  7  3  1  0  0  0
 28 19  1  0  0  0
 26 21  1  0  0  0
 14 15  1  0  0  0
 17 18  1  0  0  0
M  END
>  <minimizedAffinity>
-4.28488

>  <minimizedRMSD>
1.90559

$$$$
CSC027311726 CHEMBL5084899 CSSS00027311726 MCULE-7225575524 MolPort-005-747-835 PubChem-42931700 Z225058138


 30 32  0  0  0  0  0  0  0  0999 V2000
   18.2309  -10.1964   12.3680 C   0  0  0  0  0  0  0  0  0  0  0  0
   18.0016  -11.4623   12.9959 N   0  0  0  0  0  0  0  0  0  0  0  0
   18.9400   -9.3262   12.9437 O   0  0  0  0  0  0  0  0  0  0  0  0
   17.4779  -12.1404   12.5109 H   0  0  0  0  0  0  0  0  0  0  0  0
   18.0457   -8.1635    7.7669 C   0  0  0  0  0  0  0  0  0  0  0  0
   17.7057   -8.8753    8.8984 C   0  0  0  0  0  0  0  0  0  0  0  0
   16.4894   -9.4058    8.6095 C   0  0  0  0  0  0  0  0  0  0  0  0
   15.8079  -10.1842    9.4838 N   0  0  0  0  0  0  0  0  0  0  0  0
   16.3704  -10.4432   10.7037 C   0  0  0  0  0  0  0  0  0  0  0  0
   17.6399   -9.9108   11.0500 C   0  0  0  0  0  0  0  0  0  0  0  0
   18.3281   -9.1023   10.1198 C   0  0  0  0  0  0  0  0  0  0  0  0
   16.1193   -9.0488    7.4060 O   0  0  0  0  0  0  0  0  0  0  0  0
   17.0410   -8.2937    6.8653 N   0  0  0  0  0  0  0  0  0  0  0  0
   19.8085   -7.6059    6.1151 C   0  0  0  0  0  0  0  0  0  0  0  0
   19.2890   -7.3687    7.5202 C   0  0  0  0  0  0  0  0  0  0  0  0
   20.3608   -7.7187    8.5348 C   0  0  0  0  0  0  0  0  0  0  0  0
   18.5094  -11.7906   14.3216 C   0  0  0  0  0  0  0  0  0  0  0  0
   17.7239  -12.9563   14.8936 C   0  0  0  0  0  0  0  0  0  0  0  0
   18.4253  -10.6031   15.2304 C   0  0  0  0  0  0  0  0  0  0  0  0
   17.1920  -10.1604   15.7322 C   0  0  0  0  0  0  0  0  0  0  0  0
   17.1329   -9.0430   16.5714 C   0  0  0  0  0  0  0  0  0  0  0  0
   18.3080   -8.3613   16.9052 C   0  0  0  0  0  0  0  0  0  0  0  0
   19.5382   -8.7983   16.4061 C   0  0  0  0  0  0  0  0  0  0  0  0
   19.5963   -9.9169   15.5698 C   0  0  0  0  0  0  0  0  0  0  0  0
   15.5871   -8.4872   17.1850 S   0  0  0  0  0  0  0  0  0  0  0  0
   15.7522   -8.0085   18.8370 N   0  0  0  0  0  0  0  0  0  0  0  0
   15.1134   -7.3177   16.3697 O   0  0  0  0  0  0  0  0  0  0  0  0
   14.5801   -9.5996   17.1010 O   0  0  0  0  0  0  0  0  0  0  0  0
   16.4342   -7.2531   18.9055 H   0  0  0  0  0  0  0  0  0  0  0  0
   16.0691   -8.8039   19.3914 H   0  0  0  0  0  0  0  0  0  0  0  0
 14 15  1  0  0  0
 15  5  1  0  0  0
  5  6  1  0  0  0
  6  7  2  0  0  0
  7  8  1  0  0  0
  8  9  2  0  0  0
  9 10  1  0  0  0
 10  1  1  0  0  0
  1  2  1  0  0  0
  2 17  1  0  0  0
 17 19  1  0  0  0
 19 20  2  0  0  0
 20 21  1  0  0  0
 21 25  1  0  0  0
 25 26  1  0  0  0
 25 27  2  0  0  0
 25 28  2  0  0  0
 21 22  2  0  0  0
 22 23  1  0  0  0
 23 24  2  0  0  0
 17 18  1  0  0  0
  1  3  2  0  0  0
 10 11  2  0  0  0
  7 12  1  0  0  0
 12 13  1  0  0  0
 15 16  1  0  0  0
 13  5  2  0  0  0
 11  6  1  0  0  0
 24 19  1  0  0  0
  2  4  1  0  0  0
 26 29  1  0  0  0
 26 30  1  0  0  0
M  END
>  <minimizedAffinity>
-4.27617

>  <minimizedRMSD>
1.53550

$$$$
5484566 CSSS00160617840 LN00703461 MCULE-2596443621 MolPort-000-841-851 MolPort-002-662-275 PubChem-44668214 PubChem-7709348 ZINC000005484566 ZINC05484566


 30 32  0  0  0  0  0  0  0  0999 V2000
   17.0688  -10.7352   13.3629 C   0  0  0  0  0  0  0  0  0  0  0  0
   18.0491  -11.5295   13.3746 O   0  0  0  0  0  0  0  0  0  0  0  0
   16.2825  -10.5892   12.1779 N   0  0  0  0  0  0  0  0  0  0  0  0
   15.5201   -9.9663   12.1855 H   0  0  0  0  0  0  0  0  0  0  0  0
   16.0952   -8.4726   16.8732 C   0  0  0  0  0  0  0  0  0  0  0  0
   15.8949   -7.9249   15.5974 C   0  0  0  0  0  0  0  0  0  0  0  0
   16.2128   -8.6622   14.4540 C   0  0  0  0  0  0  0  0  0  0  0  0
   16.7344   -9.9580   14.5692 C   0  0  0  0  0  0  0  0  0  0  0  0
   16.9331  -10.5047   15.8448 C   0  0  0  0  0  0  0  0  0  0  0  0
   16.6153   -9.7658   16.9879 C   0  0  0  0  0  0  0  0  0  0  0  0
   14.3361   -6.6765   19.8338 C   0  0  0  0  0  0  0  0  0  0  0  0
   14.4719   -7.4402   18.5665 C   0  0  0  0  0  0  0  0  0  0  0  0
   13.4357   -7.8017   17.9500 O   0  0  0  0  0  0  0  0  0  0  0  0
   15.7805   -7.7465   18.0691 N   0  0  0  0  0  0  0  0  0  0  0  0
   16.5423   -7.4252   18.6037 H   0  0  0  0  0  0  0  0  0  0  0  0
   16.5728  -11.3311   10.9623 C   0  0  0  0  0  0  0  0  0  0  0  0
   16.7214  -10.3818    9.8234 C   0  0  0  0  0  0  0  0  0  0  0  0
   15.7982  -10.2117    8.8514 N   0  0  0  0  0  0  0  0  0  0  0  0
   16.2449   -9.2534    8.0431 N   0  0  0  0  0  0  0  0  0  0  0  0
   17.4294   -8.8545    8.5473 C   0  0  0  0  0  0  0  0  0  0  0  0
   17.7472   -9.5346    9.6561 N   0  0  0  0  0  0  0  0  0  0  0  0
   18.8783   -9.3324   10.3754 C   0  0  0  0  0  0  0  0  0  0  0  0
   19.7697   -8.3493    9.9229 C   0  0  0  0  0  0  0  0  0  0  0  0
   21.2524   -8.0360   10.7990 Cl  0  0  0  0  0  0  0  0  0  0  0  0
   19.4656   -7.6168    8.7585 C   0  0  0  0  0  0  0  0  0  0  0  0
   18.2756   -7.8600    8.0428 C   0  0  0  0  0  0  0  0  0  0  0  0
   17.9348   -7.0862    6.8000 C   0  0  0  0  0  0  0  0  0  0  0  0
   16.5738   -6.8436    6.7627 F   0  0  0  0  0  0  0  0  0  0  0  0
   18.2964   -7.8195    5.6846 F   0  0  0  0  0  0  0  0  0  0  0  0
   18.6043   -5.8744    6.7728 F   0  0  0  0  0  0  0  0  0  0  0  0
 11 12  1  0  0  0
 12 13  2  0  0  0
 12 14  1  0  0  0
 14  5  1  0  0  0
  5  6  2  0  0  0
  6  7  1  0  0  0
  7  8  2  0  0  0
  8  9  1  0  0  0
  8  1  1  0  0  0
  9 10  2  0  0  0
 10  5  1  0  0  0
  1  2  2  0  0  0
  1  3  1  0  0  0
  3 16  1  0  0  0
 16 17  1  0  0  0
 17 18  2  0  0  0
 18 19  1  0  0  0
 19 20  2  0  0  0
 20 21  1  0  0  0
 21 22  1  0  0  0
 21 17  1  0  0  0
 22 23  2  0  0  0
 23 24  1  0  0  0
 23 25  1  0  0  0
 25 26  2  0  0  0
 26 27  1  0  0  0
 26 20  1  0  0  0
 27 28  1  0  0  0
 27 29  1  0  0  0
 27 30  1  0  0  0
 14 15  1  0  0  0
  3  4  1  0  0  0
M  END
>  <minimizedAffinity>
-4.27287

>  <minimizedRMSD>
1.24701

$$$$
CSC027224293 32850545 CSSS00027224293 MCULE-7094380006 MolPort-009-419-906 PubChem-42925731 Z194537980 ZINC000032850545 ZINC32850545


 28 30  0  0  0  0  0  0  0  0999 V2000
   17.0499  -10.3561   14.4122 C   0  0  0  0  0  0  0  0  0  0  0  0
   17.1935  -11.5940   14.2174 O   0  0  0  0  0  0  0  0  0  0  0  0
   15.5224   -8.7305   17.2531 C   0  0  0  0  0  0  0  0  0  0  0  0
   16.4282   -9.5620   17.8782 C   0  0  0  0  0  0  0  0  0  0  0  0
   17.0832  -10.2430   16.9242 N   0  0  0  0  0  0  0  0  0  0  0  0
   18.1237  -11.2234   17.1877 C   0  0  0  0  0  0  0  0  0  0  0  0
   16.6019   -9.8521   15.7232 C   0  0  0  0  0  0  0  0  0  0  0  0
   15.6128   -8.8976   15.8830 C   0  0  0  0  0  0  0  0  0  0  0  0
   14.4204   -7.6400   18.0735 S   0  0  0  0  0  0  0  0  0  0  0  0
   13.7447   -6.7519   17.0657 O   0  0  0  0  0  0  0  0  0  0  0  0
   15.1986   -6.7828   19.0312 O   0  0  0  0  0  0  0  0  0  0  0  0
   12.1879   -7.6166   19.3637 C   0  0  0  0  0  0  0  0  0  0  0  0
   13.2277   -8.5421   18.9467 N   0  0  0  0  0  0  0  0  0  0  0  0
   12.8293   -9.2634   18.3455 H   0  0  0  0  0  0  0  0  0  0  0  0
   17.3133   -9.4475   13.3856 O   0  0  0  0  0  0  0  0  0  0  0  0
   18.4830   -9.5360   12.5852 C   0  0  0  0  0  0  0  0  0  0  0  0
   18.1149   -9.4094   11.1504 C   0  0  0  0  0  0  0  0  0  0  0  0
   16.9041   -9.9220   10.6948 C   0  0  0  0  0  0  0  0  0  0  0  0
   16.5715   -9.7657    9.3501 C   0  0  0  0  0  0  0  0  0  0  0  0
   15.4762  -10.2338    8.9339 O   0  0  0  0  0  0  0  0  0  0  0  0
   17.4257   -9.1124    8.5022 N   0  0  0  0  0  0  0  0  0  0  0  0
   17.0988   -8.9604    7.1840 C   0  0  0  0  0  0  0  0  0  0  0  0
   17.9565   -8.2943    6.3067 C   0  0  0  0  0  0  0  0  0  0  0  0
   19.1591   -7.7799    6.7872 C   0  0  0  0  0  0  0  0  0  0  0  0
   20.0837   -7.0662    5.8687 C   0  0  0  0  0  0  0  0  0  0  0  0
   19.4923   -7.9349    8.1315 C   0  0  0  0  0  0  0  0  0  0  0  0
   18.6135   -8.6073    8.9838 C   0  0  0  0  0  0  0  0  0  0  0  0
   18.9401   -8.7574   10.2935 N   0  0  0  0  0  0  0  0  0  0  0  0
 12 13  1  0  0  0
 13  9  1  0  0  0
  9 10  2  0  0  0
  9 11  2  0  0  0
  9  3  1  0  0  0
  3  4  2  0  0  0
  4  5  1  0  0  0
  5  6  1  0  0  0
  5  7  1  0  0  0
  7  8  2  0  0  0
  7  1  1  0  0  0
  8  3  1  0  0  0
  1  2  2  0  0  0
  1 15  1  0  0  0
 15 16  1  0  0  0
 16 17  1  0  0  0
 17 18  2  0  0  0
 18 19  1  0  0  0
 19 20  2  0  0  0
 19 21  1  0  0  0
 21 22  1  0  0  0
 22 23  2  0  0  0
 23 24  1  0  0  0
 24 25  1  0  0  0
 24 26  2  0  0  0
 26 27  1  0  0  0
 27 28  2  0  0  0
 27 21  1  0  0  0
 28 17  1  0  0  0
 13 14  1  0  0  0
M  END
>  <minimizedAffinity>
-4.26027

>  <minimizedRMSD>
1.79114

$$$$
CSC026240662 CSSS00026240662 MCULE-8244065658 MolPort-009-322-257 PubChem-45897577 Z431696048


 32 35  0  0  0  0  0  0  0  0999 V2000
   17.2223  -10.0364   12.5038 C   0  0  0  0  0  0  0  0  0  0  0  0
   17.7310  -11.1296   12.8704 O   0  0  0  0  0  0  0  0  0  0  0  0
   16.6369   -9.1534   13.4743 N   0  0  0  0  0  0  0  0  0  0  0  0
   16.2567   -8.3130   13.1302 H   0  0  0  0  0  0  0  0  0  0  0  0
   14.8809  -10.5651   10.6245 C   0  0  0  0  0  0  0  0  0  0  0  0
   16.1347   -9.8857   10.1874 C   0  0  0  0  0  0  0  0  0  0  0  0
   17.2195   -9.6444   11.0708 C   0  0  0  0  0  0  0  0  0  0  0  0
   18.3551   -8.9980   10.5618 C   0  0  0  0  0  0  0  0  0  0  0  0
   18.4132   -8.6059    9.2278 C   0  0  0  0  0  0  0  0  0  0  0  0
   19.5451   -7.9619    8.7212 C   0  0  0  0  0  0  0  0  0  0  0  0
   19.5825   -7.5763    7.3771 C   0  0  0  0  0  0  0  0  0  0  0  0
   18.4900   -7.8341    6.5413 C   0  0  0  0  0  0  0  0  0  0  0  0
   18.5309   -7.4587    5.2405 F   0  0  0  0  0  0  0  0  0  0  0  0
   17.3558   -8.4787    7.0463 C   0  0  0  0  0  0  0  0  0  0  0  0
   17.3138   -8.8659    8.3887 C   0  0  0  0  0  0  0  0  0  0  0  0
   16.2170   -9.4919    8.8867 N   0  0  0  0  0  0  0  0  0  0  0  0
   16.5466   -9.3637   14.8900 C   0  0  0  0  0  0  0  0  0  0  0  0
   17.1129  -10.4848   15.5129 C   0  0  0  0  0  0  0  0  0  0  0  0
   16.9986  -10.6581   16.8936 C   0  0  0  0  0  0  0  0  0  0  0  0
   16.3198   -9.7101   17.6621 C   0  0  0  0  0  0  0  0  0  0  0  0
   15.7556   -8.5735   17.0595 C   0  0  0  0  0  0  0  0  0  0  0  0
   15.8682   -8.4197   15.6671 C   0  0  0  0  0  0  0  0  0  0  0  0
   14.9835   -7.5574   17.8762 C   0  0  0  0  0  0  0  0  0  0  0  0
   14.6655   -6.3128   17.0591 C   0  0  0  0  0  0  0  0  0  0  0  0
   15.7160   -7.1655   19.0781 N   0  0  0  0  0  0  0  0  0  0  0  0
   14.9193   -7.5450   20.1933 C   0  0  0  0  0  0  0  0  0  0  0  0
   15.2785   -7.3508   21.3832 O   0  0  0  0  0  0  0  0  0  0  0  0
   13.6877   -8.1572   19.8551 N   0  0  0  0  0  0  0  0  0  0  0  0
   13.7261   -8.1565   18.4355 C   0  0  0  0  0  0  0  0  0  0  0  0
   12.7839   -8.6127   17.7346 O   0  0  0  0  0  0  0  0  0  0  0  0
   16.5947   -6.7226   19.1100 H   0  0  0  0  0  0  0  0  0  0  0  0
   12.9833   -8.4973   20.4529 H   0  0  0  0  0  0  0  0  0  0  0  0
  5  6  1  0  0  0
  6  7  2  0  0  0
  7  8  1  0  0  0
  7  1  1  0  0  0
  8  9  2  0  0  0
  9 10  1  0  0  0
 10 11  2  0  0  0
 11 12  1  0  0  0
 12 13  1  0  0  0
 12 14  2  0  0  0
 14 15  1  0  0  0
 15 16  2  0  0  0
 15  9  1  0  0  0
 16  6  1  0  0  0
  1  2  2  0  0  0
  1  3  1  0  0  0
  3 17  1  0  0  0
 17 18  2  0  0  0
 18 19  1  0  0  0
 19 20  2  0  0  0
 20 21  1  0  0  0
 21 22  2  0  0  0
 22 17  1  0  0  0
 23 21  1  0  0  0
 23 24  1  0  0  0
 23 25  1  0  0  0
 25 26  1  0  0  0
 26 27  2  0  0  0
 26 28  1  0  0  0
 28 29  1  0  0  0
 29 30  2  0  0  0
 29 23  1  0  0  0
  3  4  1  0  0  0
 25 31  1  0  0  0
 28 32  1  0  0  0
M  END
>  <minimizedAffinity>
-4.25121

>  <minimizedRMSD>
2.08592

$$$$
CSC102905443 CHEMBL4980140 CSSS00102905443 MCULE-2011494729 MolPort-046-472-878 PubChem-138008499 Z3077896856


 27 31  0  0  0  0  0  0  0  0999 V2000
   15.7537   -8.7418   13.6347 C   0  0  0  0  0  0  0  0  0  0  0  0
   15.1043   -9.7797   12.7097 C   0  0  0  0  0  0  0  0  0  0  0  0
   16.1367  -10.5088   11.8549 C   0  0  0  0  0  0  0  0  0  0  0  0
   17.0080   -9.5383   11.2004 N   0  0  0  0  0  0  0  0  0  0  0  0
   17.7448   -8.6214   12.0652 C   0  0  0  0  0  0  0  0  0  0  0  0
   16.7674   -7.8304   12.9298 C   0  0  0  0  0  0  0  0  0  0  0  0
   15.4266   -7.7833   16.3655 O   0  0  0  0  0  0  0  0  0  0  0  0
   16.0853   -8.8307   16.1284 C   0  0  0  0  0  0  0  0  0  0  0  0
   16.6721   -9.5634   17.1124 N   0  0  0  0  0  0  0  0  0  0  0  0
   17.2496  -10.5629   16.4208 C   0  0  0  0  0  0  0  0  0  0  0  0
   17.9983  -11.6260   16.9124 C   0  0  0  0  0  0  0  0  0  0  0  0
   18.4964  -12.5457   15.9715 C   0  0  0  0  0  0  0  0  0  0  0  0
   18.2267  -12.3638   14.5956 C   0  0  0  0  0  0  0  0  0  0  0  0
   17.4837  -11.2989   14.1677 N   0  0  0  0  0  0  0  0  0  0  0  0
   17.0113  -10.4219   15.0882 C   0  0  0  0  0  0  0  0  0  0  0  0
   16.2696   -9.3223   14.8768 N   0  0  0  0  0  0  0  0  0  0  0  0
   16.6738   -9.4033   18.0838 H   0  0  0  0  0  0  0  0  0  0  0  0
   17.1103   -9.5114    9.7628 C   0  0  0  0  0  0  0  0  0  0  0  0
   18.0171   -8.6936    9.0739 C   0  0  0  0  0  0  0  0  0  0  0  0
   18.9631   -7.7851    9.4961 C   0  0  0  0  0  0  0  0  0  0  0  0
   19.5319   -7.3058    8.3140 C   0  0  0  0  0  0  0  0  0  0  0  0
   18.9753   -7.8792    7.2188 N   0  0  0  0  0  0  0  0  0  0  0  0
   18.0571   -8.7186    7.7147 C   0  0  0  0  0  0  0  0  0  0  0  0
   17.2426   -9.5151    6.9828 N   0  0  0  0  0  0  0  0  0  0  0  0
   16.3550  -10.3161    7.6398 C   0  0  0  0  0  0  0  0  0  0  0  0
   16.2950  -10.3093    9.0073 N   0  0  0  0  0  0  0  0  0  0  0  0
   19.1960   -7.7155    6.2734 H   0  0  0  0  0  0  0  0  0  0  0  0
  7  8  2  0  0  0
  8  9  1  0  0  0
  9 10  1  0  0  0
 10 11  2  0  0  0
 11 12  1  0  0  0
 12 13  2  0  0  0
 13 14  1  0  0  0
 14 15  2  0  0  0
 15 16  1  0  0  0
 16  1  1  0  0  0
  1  2  1  0  0  0
  2  3  1  0  0  0
  3  4  1  0  0  0
  4  5  1  0  0  0
  5  6  1  0  0  0
  4 18  1  0  0  0
 18 19  2  0  0  0
 19 20  1  0  0  0
 20 21  2  0  0  0
 21 22  1  0  0  0
 22 23  1  0  0  0
 23 24  2  0  0  0
 24 25  1  0  0  0
 25 26  2  0  0  0
 16  8  1  0  0  0
  6  1  1  0  0  0
 26 18  1  0  0  0
 15 10  1  0  0  0
 23 19  1  0  0  0
  9 17  1  0  0  0
 22 27  1  0  0  0
M  END
>  <minimizedAffinity>
-4.25029

>  <minimizedRMSD>
0.95390

$$$$
72440535 CSSS00160045002 MCULE-9676004024 MolPort-021-763-979 PubChem-56902789 ZINC000072440535


 26 28  0  0  0  0  0  0  0  0999 V2000
   17.6049   -9.1985    9.8351 N   0  0  0  0  0  0  0  0  0  0  0  0
   18.7329   -8.7105    9.3580 N   0  0  0  0  0  0  0  0  0  0  0  0
   18.4616   -8.3321    8.0877 C   0  0  0  0  0  0  0  0  0  0  0  0
   17.1325   -8.5800    7.7362 C   0  0  0  0  0  0  0  0  0  0  0  0
   16.6492   -9.1335    8.9027 C   0  0  0  0  0  0  0  0  0  0  0  0
   15.3910   -9.5743    9.1458 N   0  0  0  0  0  0  0  0  0  0  0  0
   15.0991  -10.0967   10.3760 C   0  0  0  0  0  0  0  0  0  0  0  0
   16.0947  -10.1724   11.3697 C   0  0  0  0  0  0  0  0  0  0  0  0
   17.3857   -9.7037   11.0745 C   0  0  0  0  0  0  0  0  0  0  0  0
   19.4733   -7.7242    7.1842 C   0  0  0  0  0  0  0  0  0  0  0  0
   13.7243  -10.5932   10.6830 C   0  0  0  0  0  0  0  0  0  0  0  0
   13.5701  -10.8561   12.1689 C   0  0  0  0  0  0  0  0  0  0  0  0
   12.6798   -9.5938   10.2237 C   0  0  0  0  0  0  0  0  0  0  0  0
   18.4428   -9.7509   12.0369 N   0  0  0  0  0  0  0  0  0  0  0  0
   19.1869   -9.1119   11.9518 H   0  0  0  0  0  0  0  0  0  0  0  0
   18.4648  -10.7033   13.1361 C   0  0  0  0  0  0  0  0  0  0  0  0
   18.2150   -9.9907   14.4174 C   0  0  0  0  0  0  0  0  0  0  0  0
   19.1759   -9.7072   15.3681 C   0  0  0  0  0  0  0  0  0  0  0  0
   18.5049   -9.0220   16.3690 C   0  0  0  0  0  0  0  0  0  0  0  0
   17.1911   -8.9420   15.9417 C   0  0  0  0  0  0  0  0  0  0  0  0
   17.0471   -9.5239   14.7775 O   0  0  0  0  0  0  0  0  0  0  0  0
   16.0955   -8.2982   16.6735 C   0  0  0  0  0  0  0  0  0  0  0  0
   16.0755   -8.3267   18.1022 N   0  0  0  0  0  0  0  0  0  0  0  0
   15.0111   -7.7027   18.8698 C   0  0  0  0  0  0  0  0  0  0  0  0
   15.1741   -7.7210   16.0357 O   0  0  0  0  0  0  0  0  0  0  0  0
   16.8048   -8.7830   18.5808 H   0  0  0  0  0  0  0  0  0  0  0  0
  1  2  1  0  0  0
  2  3  2  0  0  0
  3  4  1  0  0  0
  4  5  2  0  0  0
  5  6  1  0  0  0
  6  7  2  0  0  0
  7 11  1  0  0  0
 11 12  1  0  0  0
 11 13  1  0  0  0
  7  8  1  0  0  0
  8  9  2  0  0  0
  9 14  1  0  0  0
 14 16  1  0  0  0
 16 17  1  0  0  0
 17 18  2  0  0  0
 18 19  1  0  0  0
 19 20  2  0  0  0
 20 22  1  0  0  0
 22 23  1  0  0  0
 23 24  1  0  0  0
 22 25  2  0  0  0
 20 21  1  0  0  0
  3 10  1  0  0  0
  5  1  1  0  0  0
 21 17  1  0  0  0
  9  1  1  0  0  0
 14 15  1  0  0  0
 23 26  1  0  0  0
M  END
>  <minimizedAffinity>
-4.24648

>  <minimizedRMSD>
2.31259

$$$$
CSC028024680 CSSS00028024680 MCULE-2480272113 MolPort-005-761-855 PubChem-42929383 Z217395672


 30 32  0  0  0  0  0  0  0  0999 V2000
   16.9695  -10.2137   11.2245 C   0  0  0  0  0  0  0  0  0  0  0  0
   17.9258  -10.6752   12.1840 N   0  0  0  0  0  0  0  0  0  0  0  0
   15.7356  -10.2972   11.4736 O   0  0  0  0  0  0  0  0  0  0  0  0
   18.8837  -10.5811   11.9774 H   0  0  0  0  0  0  0  0  0  0  0  0
   18.7584   -7.9331    6.5063 N   0  0  0  0  0  0  0  0  0  0  0  0
   18.2533   -8.5989    7.5499 C   0  0  0  0  0  0  0  0  0  0  0  0
   18.6121   -7.9777    8.7018 C   0  0  0  0  0  0  0  0  0  0  0  0
   18.2166   -8.4666    9.9398 C   0  0  0  0  0  0  0  0  0  0  0  0
   17.4262   -9.6363    9.9492 C   0  0  0  0  0  0  0  0  0  0  0  0
   17.0769  -10.2497    8.7173 C   0  0  0  0  0  0  0  0  0  0  0  0
   17.4954   -9.7227    7.5267 N   0  0  0  0  0  0  0  0  0  0  0  0
   19.3711   -6.8837    8.3307 C   0  0  0  0  0  0  0  0  0  0  0  0
   19.4393   -6.8891    6.9713 N   0  0  0  0  0  0  0  0  0  0  0  0
   19.4044   -9.5182    4.7664 C   0  0  0  0  0  0  0  0  0  0  0  0
   18.6024   -8.2743    5.0979 C   0  0  0  0  0  0  0  0  0  0  0  0
   19.0568   -7.1208    4.2241 C   0  0  0  0  0  0  0  0  0  0  0  0
   17.5421  -11.2783   13.4534 C   0  0  0  0  0  0  0  0  0  0  0  0
   18.3173  -12.5664   13.6817 C   0  0  0  0  0  0  0  0  0  0  0  0
   17.7764  -10.3152   14.5726 C   0  0  0  0  0  0  0  0  0  0  0  0
   16.6827   -9.8406   15.3040 C   0  0  0  0  0  0  0  0  0  0  0  0
   16.8743   -8.9338   16.3522 C   0  0  0  0  0  0  0  0  0  0  0  0
   18.1651   -8.4940   16.6649 C   0  0  0  0  0  0  0  0  0  0  0  0
   19.2615   -8.9626   15.9357 C   0  0  0  0  0  0  0  0  0  0  0  0
   19.0691   -9.8709   14.8911 C   0  0  0  0  0  0  0  0  0  0  0  0
   15.4961   -8.3370   17.2575 S   0  0  0  0  0  0  0  0  0  0  0  0
   16.0174   -7.7428   18.7940 N   0  0  0  0  0  0  0  0  0  0  0  0
   14.8335   -7.2274   16.4914 O   0  0  0  0  0  0  0  0  0  0  0  0
   14.5144   -9.4535   17.4771 O   0  0  0  0  0  0  0  0  0  0  0  0
   16.6848   -6.9837   18.6564 H   0  0  0  0  0  0  0  0  0  0  0  0
   16.4632   -8.4968   19.3167 H   0  0  0  0  0  0  0  0  0  0  0  0
 14 15  1  0  0  0
 15  5  1  0  0  0
  5  6  1  0  0  0
  6  7  2  0  0  0
  7  8  1  0  0  0
  8  9  2  0  0  0
  9  1  1  0  0  0
  1  2  1  0  0  0
  2 17  1  0  0  0
 17 19  1  0  0  0
 19 20  2  0  0  0
 20 21  1  0  0  0
 21 25  1  0  0  0
 25 26  1  0  0  0
 25 27  2  0  0  0
 25 28  2  0  0  0
 21 22  2  0  0  0
 22 23  1  0  0  0
 23 24  2  0  0  0
 17 18  1  0  0  0
  1  3  2  0  0  0
  9 10  1  0  0  0
 10 11  2  0  0  0
  7 12  1  0  0  0
 12 13  2  0  0  0
 15 16  1  0  0  0
 13  5  1  0  0  0
 11  6  1  0  0  0
 24 19  1  0  0  0
  2  4  1  0  0  0
 26 29  1  0  0  0
 26 30  1  0  0  0
M  END
>  <minimizedAffinity>
-4.23406

>  <minimizedRMSD>
1.24884

$$$$
CSSS00160534317 MCULE-4944812392 MolPort-046-896-342 PubChem-146089996 Z1951573528


 28 31  0  0  0  0  0  0  0  0999 V2000
   17.3173  -10.1559   14.8833 C   0  0  0  0  0  0  0  0  0  0  0  0
   17.7337  -11.4113   15.3515 C   0  0  0  0  0  0  0  0  0  0  0  0
   18.3573  -12.3203   14.4929 C   0  0  0  0  0  0  0  0  0  0  0  0
   18.5714  -11.9831   13.1547 C   0  0  0  0  0  0  0  0  0  0  0  0
   18.1634  -10.7378   12.6700 C   0  0  0  0  0  0  0  0  0  0  0  0
   17.5381   -9.8297   13.5368 C   0  0  0  0  0  0  0  0  0  0  0  0
   15.8212   -8.1047   17.7514 C   0  0  0  0  0  0  0  0  0  0  0  0
   15.4645   -7.3307   16.5630 N   0  0  0  0  0  0  0  0  0  0  0  0
   15.9884   -8.0190   15.4342 C   0  0  0  0  0  0  0  0  0  0  0  0
   15.8480   -7.5964   14.2564 O   0  0  0  0  0  0  0  0  0  0  0  0
   16.6737   -9.2183   15.7688 N   0  0  0  0  0  0  0  0  0  0  0  0
   16.5710   -9.2723   17.1892 C   0  0  0  0  0  0  0  0  0  0  0  0
   17.0759  -10.1878   17.8925 O   0  0  0  0  0  0  0  0  0  0  0  0
   14.9554   -6.4882   16.5473 H   0  0  0  0  0  0  0  0  0  0  0  0
   14.0502   -7.5060   19.3969 C   0  0  0  0  0  0  0  0  0  0  0  0
   14.5627   -8.5814   18.4588 C   0  0  0  0  0  0  0  0  0  0  0  0
   18.3929  -10.4130   11.2973 N   0  0  0  0  0  0  0  0  0  0  0  0
   18.7209  -11.1192   10.6949 H   0  0  0  0  0  0  0  0  0  0  0  0
   18.1629   -9.0841   10.7516 C   0  0  0  0  0  0  0  0  0  0  0  0
   17.7507   -9.1944    9.3236 C   0  0  0  0  0  0  0  0  0  0  0  0
   16.7182   -9.9772    8.8274 C   0  0  0  0  0  0  0  0  0  0  0  0
   16.6918   -9.8549    7.4747 N   0  0  0  0  0  0  0  0  0  0  0  0
   17.7092   -9.0150    7.2000 C   0  0  0  0  0  0  0  0  0  0  0  0
   18.1038   -8.5797    5.9394 C   0  0  0  0  0  0  0  0  0  0  0  0
   19.1721   -7.7325    5.8661 N   0  0  0  0  0  0  0  0  0  0  0  0
   19.8433   -7.3179    6.9848 C   0  0  0  0  0  0  0  0  0  0  0  0
   19.4320   -7.7674    8.2484 C   0  0  0  0  0  0  0  0  0  0  0  0
   18.3669   -8.6056    8.2907 N   0  0  0  0  0  0  0  0  0  0  0  0
 15 16  1  0  0  0
 16  7  1  0  0  0
  7  8  1  0  0  0
  8  9  1  0  0  0
  9 10  2  0  0  0
  9 11  1  0  0  0
 11 12  1  0  0  0
 12 13  2  0  0  0
 11  1  1  0  0  0
  1  2  2  0  0  0
  2  3  1  0  0  0
  3  4  2  0  0  0
  4  5  1  0  0  0
  5 17  1  0  0  0
 17 19  1  0  0  0
 19 20  1  0  0  0
 20 21  2  0  0  0
 21 22  1  0  0  0
 22 23  2  0  0  0
 23 24  1  0  0  0
 24 25  2  0  0  0
 25 26  1  0  0  0
 26 27  2  0  0  0
 27 28  1  0  0  0
  5  6  2  0  0  0
 12  7  1  0  0  0
  6  1  1  0  0  0
 28 20  1  0  0  0
 28 23  1  0  0  0
  8 14  1  0  0  0
 17 18  1  0  0  0
M  END
>  <minimizedAffinity>
-4.22592

>  <minimizedRMSD>
1.41819

$$$$
CSSS14929148735


 26 28  0  0  0  0  0  0  0  0999 V2000
   18.7516  -13.0026   14.0591 C   0  0  0  0  0  0  0  0  0  0  0  0
   18.0650  -11.7880   14.5856 C   0  0  0  0  0  0  0  0  0  0  0  0
   17.7682  -10.6909   13.7539 C   0  0  0  0  0  0  0  0  0  0  0  0
   17.1133   -9.5753   14.2873 C   0  0  0  0  0  0  0  0  0  0  0  0
   16.7623   -9.5404   15.6405 C   0  0  0  0  0  0  0  0  0  0  0  0
   17.0676  -10.6265   16.4658 C   0  0  0  0  0  0  0  0  0  0  0  0
   17.7152  -11.7468   15.9390 C   0  0  0  0  0  0  0  0  0  0  0  0
   15.9546   -8.1315   16.3026 S   0  0  0  0  0  0  0  0  0  0  0  0
   14.2428   -8.3213   16.1639 N   0  0  0  0  0  0  0  0  0  0  0  0
   16.3696   -6.9051   15.5397 O   0  0  0  0  0  0  0  0  0  0  0  0
   16.3255   -7.9726   17.7497 O   0  0  0  0  0  0  0  0  0  0  0  0
   13.9913   -8.4291   15.1813 H   0  0  0  0  0  0  0  0  0  0  0  0
   13.7774   -7.4978   16.5456 H   0  0  0  0  0  0  0  0  0  0  0  0
   18.1023  -10.7004   12.2992 C   0  0  0  0  0  0  0  0  0  0  0  0
   17.5142   -9.5371   11.6531 N   0  0  0  0  0  0  0  0  0  0  0  0
   16.7345   -9.1070   12.0730 H   0  0  0  0  0  0  0  0  0  0  0  0
   18.0234   -8.9935   10.4333 C   0  0  0  0  0  0  0  0  0  0  0  0
   17.4546   -9.3270    9.2096 C   0  0  0  0  0  0  0  0  0  0  0  0
   16.4235  -10.1363    8.9281 N   0  0  0  0  0  0  0  0  0  0  0  0
   16.2988  -10.0977    7.6003 N   0  0  0  0  0  0  0  0  0  0  0  0
   17.2037   -9.3014    7.0300 N   0  0  0  0  0  0  0  0  0  0  0  0
   17.9262   -8.8210    8.0491 C   0  0  0  0  0  0  0  0  0  0  0  0
   18.9736   -7.9629    7.9904 N   0  0  0  0  0  0  0  0  0  0  0  0
   19.5781   -7.5950    9.1626 C   0  0  0  0  0  0  0  0  0  0  0  0
   19.1170   -8.1010   10.4028 C   0  0  0  0  0  0  0  0  0  0  0  0
   17.3157   -9.1092    6.0709 H   0  0  0  0  0  0  0  0  0  0  0  0
  1  2  1  0  0  0
  2  3  2  0  0  0
  3 14  1  0  0  0
 14 15  1  0  0  0
 15 17  1  0  0  0
 17 18  2  0  0  0
 18 19  1  0  0  0
 19 20  2  0  0  0
 20 21  1  0  0  0
 21 22  1  0  0  0
 22 23  2  0  0  0
 23 24  1  0  0  0
 24 25  2  0  0  0
  3  4  1  0  0  0
  4  5  2  0  0  0
  5  6  1  0  0  0
  6  7  2  0  0  0
  5  8  1  0  0  0
  8  9  1  0  0  0
  8 10  2  0  0  0
  8 11  2  0  0  0
  7  2  1  0  0  0
 25 17  1  0  0  0
 22 18  1  0  0  0
 15 16  1  0  0  0
 21 26  1  0  0  0
  9 12  1  0  0  0
  9 13  1  0  0  0
M  END
>  <minimizedAffinity>
-4.20917

>  <minimizedRMSD>
1.02357

$$$$
CSSS00138473518 MCULE-1970944736 MolPort-044-451-227 Z1937474137


 28 31  0  0  0  0  0  0  0  0999 V2000
   17.2311   -9.3097   12.1047 C   0  0  0  0  0  0  0  0  0  0  0  0
   16.1867   -8.7181   12.4910 O   0  0  0  0  0  0  0  0  0  0  0  0
   18.0265  -10.0622   13.0305 N   0  0  0  0  0  0  0  0  0  0  0  0
   18.8667  -10.4394   12.6826 H   0  0  0  0  0  0  0  0  0  0  0  0
   14.6421  -10.4633   10.3663 C   0  0  0  0  0  0  0  0  0  0  0  0
   15.7109  -10.1801    9.3710 C   0  0  0  0  0  0  0  0  0  0  0  0
   15.5442  -10.3675    8.0400 N   0  0  0  0  0  0  0  0  0  0  0  0
   16.6190   -9.9294    7.4424 O   0  0  0  0  0  0  0  0  0  0  0  0
   17.4607   -9.4649    8.3283 C   0  0  0  0  0  0  0  0  0  0  0  0
   18.6587   -8.8840    8.0783 N   0  0  0  0  0  0  0  0  0  0  0  0
   19.3930   -8.4093    9.1270 C   0  0  0  0  0  0  0  0  0  0  0  0
   20.7064   -7.7615    8.8756 C   0  0  0  0  0  0  0  0  0  0  0  0
   18.9149   -8.5307   10.4493 C   0  0  0  0  0  0  0  0  0  0  0  0
   17.6744   -9.1485   10.7084 C   0  0  0  0  0  0  0  0  0  0  0  0
   16.9546   -9.6061    9.5906 C   0  0  0  0  0  0  0  0  0  0  0  0
   17.7294  -10.3245   14.4099 C   0  0  0  0  0  0  0  0  0  0  0  0
   16.9999   -9.4166   15.1921 C   0  0  0  0  0  0  0  0  0  0  0  0
   16.7155   -9.6942   16.5353 C   0  0  0  0  0  0  0  0  0  0  0  0
   17.1657  -10.8948   17.0983 C   0  0  0  0  0  0  0  0  0  0  0  0
   17.8908  -11.8055   16.3266 C   0  0  0  0  0  0  0  0  0  0  0  0
   18.1719  -11.5233   14.9870 C   0  0  0  0  0  0  0  0  0  0  0  0
   18.8755  -12.4191   14.2511 F   0  0  0  0  0  0  0  0  0  0  0  0
   15.9507   -8.7333   17.3454 C   0  0  0  0  0  0  0  0  0  0  0  0
   16.1503   -8.5345   18.6595 N   0  0  0  0  0  0  0  0  0  0  0  0
   15.2853   -7.6081   19.0319 N   0  0  0  0  0  0  0  0  0  0  0  0
   14.5746   -7.2583   17.9424 C   0  0  0  0  0  0  0  0  0  0  0  0
   14.9693   -7.9513   16.8552 N   0  0  0  0  0  0  0  0  0  0  0  0
   15.1795   -7.2408   19.9391 H   0  0  0  0  0  0  0  0  0  0  0  0
  5  6  1  0  0  0
  6  7  2  0  0  0
  7  8  1  0  0  0
  8  9  1  0  0  0
  9 10  2  0  0  0
 10 11  1  0  0  0
 11 12  1  0  0  0
 11 13  2  0  0  0
 13 14  1  0  0  0
 14  1  1  0  0  0
  1  2  2  0  0  0
  1  3  1  0  0  0
  3 16  1  0  0  0
 16 17  2  0  0  0
 17 18  1  0  0  0
 18 19  2  0  0  0
 19 20  1  0  0  0
 20 21  2  0  0  0
 21 22  1  0  0  0
 18 23  1  0  0  0
 23 24  2  0  0  0
 24 25  1  0  0  0
 25 26  1  0  0  0
 26 27  2  0  0  0
 14 15  2  0  0  0
 15  6  1  0  0  0
 15  9  1  0  0  0
 21 16  1  0  0  0
 27 23  1  0  0  0
  3  4  1  0  0  0
 25 28  1  0  0  0
M  END
>  <minimizedAffinity>
-4.20897

>  <minimizedRMSD>
1.30003

$$$$
CSSS20447606487


 34 37  0  0  0  0  0  0  0  0999 V2000
   16.6447   -9.9364   16.3321 C   0  0  0  0  0  0  0  0  0  0  0  0
   16.1798  -10.7073   15.0953 C   0  0  0  0  0  0  0  0  0  0  0  0
   16.5021   -9.9527   13.8838 N   0  0  0  0  0  0  0  0  0  0  0  0
   16.0418   -8.5674   13.7970 C   0  0  0  0  0  0  0  0  0  0  0  0
   16.5382   -7.7933   15.0131 C   0  0  0  0  0  0  0  0  0  0  0  0
   16.2057   -8.5408   16.2256 N   0  0  0  0  0  0  0  0  0  0  0  0
   15.3378   -7.9598   17.2116 C   0  0  0  0  0  0  0  0  0  0  0  0
   15.0338   -6.7384   17.1444 O   0  0  0  0  0  0  0  0  0  0  0  0
   17.4252  -10.4896   12.9217 C   0  0  0  0  0  0  0  0  0  0  0  0
   18.1497  -11.4735   13.2342 O   0  0  0  0  0  0  0  0  0  0  0  0
   17.5767   -9.8927   11.5786 C   0  0  0  0  0  0  0  0  0  0  0  0
   16.5619   -9.9967   10.5756 C   0  0  0  0  0  0  0  0  0  0  0  0
   15.3103  -10.7733   10.8107 C   0  0  0  0  0  0  0  0  0  0  0  0
   16.7480   -9.4272    9.3456 N   0  0  0  0  0  0  0  0  0  0  0  0
   17.9073   -8.7719    9.0968 C   0  0  0  0  0  0  0  0  0  0  0  0
   18.2729   -8.1596    7.9659 N   0  0  0  0  0  0  0  0  0  0  0  0
   19.4859   -7.6477    8.1435 N   0  0  0  0  0  0  0  0  0  0  0  0
   19.9122   -7.9457    9.4015 C   0  0  0  0  0  0  0  0  0  0  0  0
   18.9018   -8.6659   10.0111 C   0  0  0  0  0  0  0  0  0  0  0  0
   18.7800   -9.2205   11.2765 C   0  0  0  0  0  0  0  0  0  0  0  0
   17.4841   -8.0103    6.7535 C   0  0  0  0  0  0  0  0  0  0  0  0
   16.2952   -7.1075    7.0194 C   0  0  0  0  0  0  0  0  0  0  0  0
   18.7881   -8.6418   16.3935 C   0  0  0  0  0  0  0  0  0  0  0  0
   18.1625  -10.0215   16.4547 C   0  0  0  0  0  0  0  0  0  0  0  0
   14.7833   -8.7790   18.3338 C   0  0  0  0  0  0  0  0  0  0  0  0
   14.3564   -7.9096   19.4675 C   0  0  0  0  0  0  0  0  0  0  0  0
   15.1135   -7.6940   20.5591 N   0  0  0  0  0  0  0  0  0  0  0  0
   14.4178   -6.8951   21.3493 N   0  0  0  0  0  0  0  0  0  0  0  0
   13.2595   -6.6557   20.7117 C   0  0  0  0  0  0  0  0  0  0  0  0
   12.2294   -5.8328   21.2457 N   0  0  0  0  0  0  0  0  0  0  0  0
   13.1678   -7.2752   19.5207 N   0  0  0  0  0  0  0  0  0  0  0  0
   12.3482   -5.4025   22.1232 H   0  0  0  0  0  0  0  0  0  0  0  0
   11.3976   -5.6936   20.7378 H   0  0  0  0  0  0  0  0  0  0  0  0
   12.4326   -7.2674   18.8659 H   0  0  0  0  0  0  0  0  0  0  0  0
 23 24  1  0  0  0
 24  1  1  0  0  0
  1  2  1  0  0  0
  2  3  1  0  0  0
  3  4  1  0  0  0
  4  5  1  0  0  0
  5  6  1  0  0  0
  6  7  1  0  0  0
  7  8  2  0  0  0
  7 25  1  0  0  0
 25 26  1  0  0  0
 26 27  2  0  0  0
 27 28  1  0  0  0
 28 29  2  0  0  0
 29 30  1  0  0  0
 29 31  1  0  0  0
  3  9  1  0  0  0
  9 10  2  0  0  0
  9 11  1  0  0  0
 11 12  2  0  0  0
 12 13  1  0  0  0
 12 14  1  0  0  0
 14 15  2  0  0  0
 15 16  1  0  0  0
 16 21  1  0  0  0
 21 22  1  0  0  0
 16 17  1  0  0  0
 17 18  2  0  0  0
 18 19  1  0  0  0
 19 20  2  0  0  0
  6  1  1  0  0  0
 31 26  1  0  0  0
 20 11  1  0  0  0
 19 15  1  0  0  0
 30 32  1  0  0  0
 30 33  1  0  0  0
 31 34  1  0  0  0
M  END
>  <minimizedAffinity>
-4.20167

>  <minimizedRMSD>
2.25847

$$$$
96117373 CSSS00160823997 MCULE-3820167674 MolPort-028-852-584 PubChem-71828872 ZINC000096117373


 30 33  0  0  0  0  0  0  0  0999 V2000
   16.1167   -9.1333   15.8625 C   0  0  0  0  0  0  0  0  0  0  0  0
   16.0387  -10.3911   15.8241 O   0  0  0  0  0  0  0  0  0  0  0  0
   16.8553   -8.4343   14.8572 N   0  0  0  0  0  0  0  0  0  0  0  0
   16.8699   -7.4502   14.8834 H   0  0  0  0  0  0  0  0  0  0  0  0
   13.8357   -7.1363   18.3614 C   0  0  0  0  0  0  0  0  0  0  0  0
   12.8132   -6.4649   18.9421 N   0  0  0  0  0  0  0  0  0  0  0  0
   12.9683   -6.0076   20.2159 C   0  0  0  0  0  0  0  0  0  0  0  0
   14.1359   -6.2248   20.8910 N   0  0  0  0  0  0  0  0  0  0  0  0
   15.1741   -6.8993   20.3199 C   0  0  0  0  0  0  0  0  0  0  0  0
   16.2357   -7.0813   20.9720 O   0  0  0  0  0  0  0  0  0  0  0  0
   15.0306   -7.3760   19.0103 C   0  0  0  0  0  0  0  0  0  0  0  0
   15.9515   -8.0908   18.2206 C   0  0  0  0  0  0  0  0  0  0  0  0
   15.4394   -8.3972   16.9465 C   0  0  0  0  0  0  0  0  0  0  0  0
   13.8638   -7.7831   16.8180 S   0  0  0  0  0  0  0  0  0  0  0  0
   17.3152   -8.4798   18.6911 C   0  0  0  0  0  0  0  0  0  0  0  0
   14.2298   -5.8867   21.8108 H   0  0  0  0  0  0  0  0  0  0  0  0
   17.5877   -9.1133   13.7951 C   0  0  0  0  0  0  0  0  0  0  0  0
   16.6630   -9.5356   12.6916 C   0  0  0  0  0  0  0  0  0  0  0  0
   15.3777   -9.9227   12.8665 N   0  0  0  0  0  0  0  0  0  0  0  0
   14.8747  -10.1921   11.6639 N   0  0  0  0  0  0  0  0  0  0  0  0
   15.8649   -9.9587   10.7837 C   0  0  0  0  0  0  0  0  0  0  0  0
   15.8035  -10.0979    9.4004 C   0  0  0  0  0  0  0  0  0  0  0  0
   16.9678   -9.7888    8.6753 C   0  0  0  0  0  0  0  0  0  0  0  0
   18.1354   -9.3575    9.3385 C   0  0  0  0  0  0  0  0  0  0  0  0
   18.1316   -9.2374   10.7366 C   0  0  0  0  0  0  0  0  0  0  0  0
   16.9852   -9.5489   11.3902 N   0  0  0  0  0  0  0  0  0  0  0  0
   18.3882  -10.2892   14.3520 C   0  0  0  0  0  0  0  0  0  0  0  0
   18.4056  -11.4822   13.4083 C   0  0  0  0  0  0  0  0  0  0  0  0
   18.1584  -13.0066   14.3572 S   0  0  0  0  0  0  0  0  0  0  0  0
   18.3789  -12.1369   15.9332 C   0  0  0  0  0  0  0  0  0  0  0  0
  5  6  1  0  0  0
  6  7  2  0  0  0
  7  8  1  0  0  0
  8  9  1  0  0  0
  9 10  2  0  0  0
  9 11  1  0  0  0
 11 12  1  0  0  0
 12 13  2  0  0  0
 13  1  1  0  0  0
  1  2  2  0  0  0
  1  3  1  0  0  0
 17  3  1  0  0  0
 17 27  1  0  0  0
 27 28  1  0  0  0
 28 29  1  0  0  0
 29 30  1  0  0  0
 17 18  1  0  0  0
 18 19  2  0  0  0
 19 20  1  0  0  0
 20 21  2  0  0  0
 21 22  1  0  0  0
 22 23  2  0  0  0
 23 24  1  0  0  0
 24 25  2  0  0  0
 25 26  1  0  0  0
 13 14  1  0  0  0
 12 15  1  0  0  0
 11  5  2  0  0  0
 26 18  1  0  0  0
 14  5  1  0  0  0
 26 21  1  0  0  0
  8 16  1  0  0  0
  3  4  1  0  0  0
M  END
>  <minimizedAffinity>
-4.20005

>  <minimizedRMSD>
3.71950

$$$$
CSC026382111 54041488 CSSS00026382111 MCULE-5866139488 MolPort-044-489-760 PubChem-126767691 Z728940744 ZINC000054041488


 27 29  0  0  0  0  0  0  0  0999 V2000
   17.6513  -10.5487   14.0296 C   0  0  0  0  0  0  0  0  0  0  0  0
   18.1605   -9.9887   12.7876 N   0  0  0  0  0  0  0  0  0  0  0  0
   19.1043   -9.7128   12.7403 H   0  0  0  0  0  0  0  0  0  0  0  0
   17.2523   -8.3001    7.0414 C   0  0  0  0  0  0  0  0  0  0  0  0
   17.7374   -8.6185    8.3726 N   0  0  0  0  0  0  0  0  0  0  0  0
   18.9839   -8.4207    8.7871 N   0  0  0  0  0  0  0  0  0  0  0  0
   19.0897   -8.8288   10.0818 C   0  0  0  0  0  0  0  0  0  0  0  0
   17.8424   -9.2944   10.4595 C   0  0  0  0  0  0  0  0  0  0  0  0
   17.3338   -9.8270   11.6348 C   0  0  0  0  0  0  0  0  0  0  0  0
   16.0138  -10.1869   11.6488 N   0  0  0  0  0  0  0  0  0  0  0  0
   15.2178  -10.0293   10.5418 C   0  0  0  0  0  0  0  0  0  0  0  0
   13.7888  -10.4328   10.5974 C   0  0  0  0  0  0  0  0  0  0  0  0
   15.7304   -9.5028    9.3881 N   0  0  0  0  0  0  0  0  0  0  0  0
   17.0382   -9.1480    9.3806 C   0  0  0  0  0  0  0  0  0  0  0  0
   18.1790   -9.7531   15.2137 C   0  0  0  0  0  0  0  0  0  0  0  0
   17.0655   -9.1186   15.9799 C   0  0  0  0  0  0  0  0  0  0  0  0
   16.9751   -9.3179   17.3612 C   0  0  0  0  0  0  0  0  0  0  0  0
   15.9325   -8.7343   18.0868 C   0  0  0  0  0  0  0  0  0  0  0  0
   14.9754   -7.9500   17.4334 C   0  0  0  0  0  0  0  0  0  0  0  0
   15.0592   -7.7594   16.0497 C   0  0  0  0  0  0  0  0  0  0  0  0
   16.1015   -8.3428   15.3236 C   0  0  0  0  0  0  0  0  0  0  0  0
   13.6614   -7.2267   18.3429 S   0  0  0  0  0  0  0  0  0  0  0  0
   12.9580   -8.4124   19.3832 N   0  0  0  0  0  0  0  0  0  0  0  0
   14.1844   -6.0835   19.1664 O   0  0  0  0  0  0  0  0  0  0  0  0
   12.6165   -6.7062   17.3965 O   0  0  0  0  0  0  0  0  0  0  0  0
   13.6676   -8.7653   20.0253 H   0  0  0  0  0  0  0  0  0  0  0  0
   12.5931   -9.1827   18.8230 H   0  0  0  0  0  0  0  0  0  0  0  0
  4  5  1  0  0  0
  5  6  1  0  0  0
  6  7  2  0  0  0
  7  8  1  0  0  0
  8  9  2  0  0  0
  9  2  1  0  0  0
  2  1  1  0  0  0
  1 15  1  0  0  0
 15 16  1  0  0  0
 16 17  2  0  0  0
 17 18  1  0  0  0
 18 19  2  0  0  0
 19 20  1  0  0  0
 20 21  2  0  0  0
 19 22  1  0  0  0
 22 23  1  0  0  0
 22 24  2  0  0  0
 22 25  2  0  0  0
  9 10  1  0  0  0
 10 11  2  0  0  0
 11 12  1  0  0  0
 11 13  1  0  0  0
 13 14  2  0  0  0
 14  5  1  0  0  0
 14  8  1  0  0  0
 21 16  1  0  0  0
  2  3  1  0  0  0
 23 26  1  0  0  0
 23 27  1  0  0  0
M  END
>  <minimizedAffinity>
-4.18930

>  <minimizedRMSD>
2.53525

$$$$
67856846 CSSS00160436120 MCULE-6114194506 MolPort-019-810-836 PubChem-56711312 ZINC000067856846 ZINC67856846


 27 30  0  0  0  0  0  0  0  0999 V2000
   17.8391  -10.6049   12.3897 C   0  0  0  0  0  0  0  0  0  0  0  0
   17.7782  -11.8642   12.4332 O   0  0  0  0  0  0  0  0  0  0  0  0
   18.1555   -9.8753   13.5892 N   0  0  0  0  0  0  0  0  0  0  0  0
   17.8461   -8.4503   13.7254 C   0  0  0  0  0  0  0  0  0  0  0  0
   16.7779   -8.2396   14.8048 C   0  0  0  0  0  0  0  0  0  0  0  0
   17.0046   -9.1320   15.9433 N   0  0  0  0  0  0  0  0  0  0  0  0
   17.8115  -10.2065   15.9490 C   0  0  0  0  0  0  0  0  0  0  0  0
   18.6457  -10.5872   14.7698 C   0  0  0  0  0  0  0  0  0  0  0  0
   17.7967  -10.8727   17.1200 N   0  0  0  0  0  0  0  0  0  0  0  0
   16.9178  -10.1912   17.8904 C   0  0  0  0  0  0  0  0  0  0  0  0
   16.4272   -9.1227   17.1582 C   0  0  0  0  0  0  0  0  0  0  0  0
   15.1447  -10.5403   11.0685 C   0  0  0  0  0  0  0  0  0  0  0  0
   16.3477   -9.9098   10.4511 C   0  0  0  0  0  0  0  0  0  0  0  0
   17.6081   -9.9146   11.0959 C   0  0  0  0  0  0  0  0  0  0  0  0
   18.6831   -9.2764   10.4629 C   0  0  0  0  0  0  0  0  0  0  0  0
   18.5043   -8.6466    9.2346 C   0  0  0  0  0  0  0  0  0  0  0  0
   19.5618   -8.0029    8.5923 C   0  0  0  0  0  0  0  0  0  0  0  0
   19.3443   -7.3827    7.3598 C   0  0  0  0  0  0  0  0  0  0  0  0
   18.0678   -7.4177    6.7894 C   0  0  0  0  0  0  0  0  0  0  0  0
   17.0474   -8.0509    7.4303 N   0  0  0  0  0  0  0  0  0  0  0  0
   17.2347   -8.6621    8.6307 C   0  0  0  0  0  0  0  0  0  0  0  0
   16.1996   -9.2860    9.2499 N   0  0  0  0  0  0  0  0  0  0  0  0
   15.4381   -8.1423   17.6383 C   0  0  0  0  0  0  0  0  0  0  0  0
   15.4714   -7.7008   18.9915 N   0  0  0  0  0  0  0  0  0  0  0  0
   14.5585   -7.6858   16.8621 O   0  0  0  0  0  0  0  0  0  0  0  0
   16.1551   -8.0514   19.6070 H   0  0  0  0  0  0  0  0  0  0  0  0
   14.8108   -7.0448   19.3117 H   0  0  0  0  0  0  0  0  0  0  0  0
 12 13  1  0  0  0
 13 14  2  0  0  0
 14 15  1  0  0  0
 14  1  1  0  0  0
 15 16  2  0  0  0
 16 17  1  0  0  0
 17 18  2  0  0  0
 18 19  1  0  0  0
 19 20  2  0  0  0
 20 21  1  0  0  0
 21 22  2  0  0  0
 21 16  1  0  0  0
 22 13  1  0  0  0
  1  2  2  0  0  0
  1  3  1  0  0  0
  3  4  1  0  0  0
  4  5  1  0  0  0
  5  6  1  0  0  0
  6  7  1  0  0  0
  7  8  1  0  0  0
  7  9  2  0  0  0
  8  3  1  0  0  0
  9 10  1  0  0  0
 10 11  2  0  0  0
 11 23  1  0  0  0
 11  6  1  0  0  0
 23 24  1  0  0  0
 23 25  2  0  0  0
 24 26  1  0  0  0
 24 27  1  0  0  0
M  END
>  <minimizedAffinity>
-4.18382

>  <minimizedRMSD>
1.08314

$$$$
CSSS00159988539 MCULE-4527409720 MolPort-046-751-976


 24 26  0  0  0  0  0  0  0  0999 V2000
   15.9977   -9.2364   13.0920 C   0  0  0  0  0  0  0  0  0  0  0  0
   15.5896   -8.0426   13.0999 O   0  0  0  0  0  0  0  0  0  0  0  0
   15.8493  -10.0340   11.9149 N   0  0  0  0  0  0  0  0  0  0  0  0
   16.1697  -10.9649   11.9264 H   0  0  0  0  0  0  0  0  0  0  0  0
   18.3951  -11.3678   17.7369 O   0  0  0  0  0  0  0  0  0  0  0  0
   17.8108  -10.8623   16.5821 C   0  0  0  0  0  0  0  0  0  0  0  0
   17.8241  -11.6053   15.3951 C   0  0  0  0  0  0  0  0  0  0  0  0
   18.5731  -13.1897   15.3214 Cl  0  0  0  0  0  0  0  0  0  0  0  0
   17.2290  -11.0711   14.2517 C   0  0  0  0  0  0  0  0  0  0  0  0
   16.6276   -9.8084   14.2942 C   0  0  0  0  0  0  0  0  0  0  0  0
   16.6378   -9.1005   15.5027 C   0  0  0  0  0  0  0  0  0  0  0  0
   17.2223   -9.6364   16.6077 N   0  0  0  0  0  0  0  0  0  0  0  0
   18.8020  -12.2117   17.7253 H   0  0  0  0  0  0  0  0  0  0  0  0
   15.2403   -9.5143   10.7018 C   0  0  0  0  0  0  0  0  0  0  0  0
   16.1846   -9.6743    9.5619 C   0  0  0  0  0  0  0  0  0  0  0  0
   16.1069  -10.6602    8.6355 N   0  0  0  0  0  0  0  0  0  0  0  0
   17.1345  -10.5484    7.7956 N   0  0  0  0  0  0  0  0  0  0  0  0
   17.8587   -9.4944    8.2068 C   0  0  0  0  0  0  0  0  0  0  0  0
   19.0028   -9.0302    7.6467 N   0  0  0  0  0  0  0  0  0  0  0  0
   19.6179   -7.9475    8.2139 C   0  0  0  0  0  0  0  0  0  0  0  0
   19.0724   -7.3281    9.3635 C   0  0  0  0  0  0  0  0  0  0  0  0
   17.8853   -7.8241    9.9338 C   0  0  0  0  0  0  0  0  0  0  0  0
   17.3054   -8.9227    9.3100 C   0  0  0  0  0  0  0  0  0  0  0  0
   17.3263  -11.1269    7.0223 H   0  0  0  0  0  0  0  0  0  0  0  0
  5  6  1  0  0  0
  6  7  2  0  0  0
  7  8  1  0  0  0
  7  9  1  0  0  0
  9 10  2  0  0  0
 10 11  1  0  0  0
 11 12  2  0  0  0
 10  1  1  0  0  0
  1  2  2  0  0  0
  1  3  1  0  0  0
  3 14  1  0  0  0
 14 15  1  0  0  0
 15 16  2  0  0  0
 16 17  1  0  0  0
 17 18  1  0  0  0
 18 19  2  0  0  0
 19 20  1  0  0  0
 20 21  2  0  0  0
 21 22  1  0  0  0
 22 23  2  0  0  0
 12  6  1  0  0  0
 23 15  1  0  0  0
 23 18  1  0  0  0
  5 13  1  0  0  0
  3  4  1  0  0  0
 17 24  1  0  0  0
M  END
>  <minimizedAffinity>
-4.17398

>  <minimizedRMSD>
2.25799

$$$$
CSSS04944044706 Z8776658982


 30 33  0  0  0  0  0  0  0  0999 V2000
   18.4151   -8.4091    8.3529 C   0  0  0  0  0  0  0  0  0  0  0  0
   17.3167   -8.3534    7.4815 C   0  0  0  0  0  0  0  0  0  0  0  0
   16.0588   -8.8009    7.8958 C   0  0  0  0  0  0  0  0  0  0  0  0
   15.8881   -9.3086    9.1860 C   0  0  0  0  0  0  0  0  0  0  0  0
   14.6678   -9.7437    9.5912 N   0  0  0  0  0  0  0  0  0  0  0  0
   14.4859  -10.2398   10.8428 C   0  0  0  0  0  0  0  0  0  0  0  0
   13.1412  -10.7103   11.2651 C   0  0  0  0  0  0  0  0  0  0  0  0
   15.5304  -10.3069   11.7101 N   0  0  0  0  0  0  0  0  0  0  0  0
   16.7750   -9.8844   11.3550 C   0  0  0  0  0  0  0  0  0  0  0  0
   16.9849   -9.3692   10.0690 C   0  0  0  0  0  0  0  0  0  0  0  0
   18.2425   -8.9187    9.6468 C   0  0  0  0  0  0  0  0  0  0  0  0
   19.7399   -7.9378    7.9177 C   0  0  0  0  0  0  0  0  0  0  0  0
   19.9306   -7.6133    6.7128 O   0  0  0  0  0  0  0  0  0  0  0  0
   20.5863   -8.1238   10.2227 C   0  0  0  0  0  0  0  0  0  0  0  0
   20.7827   -7.8517    8.8434 O   0  0  0  0  0  0  0  0  0  0  0  0
   17.8563   -9.9665   12.2876 N   0  0  0  0  0  0  0  0  0  0  0  0
   18.6605   -9.4202   12.1323 H   0  0  0  0  0  0  0  0  0  0  0  0
   17.8089  -10.8289   13.4574 C   0  0  0  0  0  0  0  0  0  0  0  0
   18.0108  -10.0165   14.6869 C   0  0  0  0  0  0  0  0  0  0  0  0
   19.3051   -9.7157   15.1221 C   0  0  0  0  0  0  0  0  0  0  0  0
   19.4945   -8.9310   16.2628 C   0  0  0  0  0  0  0  0  0  0  0  0
   18.3897   -8.4419   16.9661 C   0  0  0  0  0  0  0  0  0  0  0  0
   17.0886   -8.7325   16.5320 C   0  0  0  0  0  0  0  0  0  0  0  0
   16.9061   -9.5202   15.3867 C   0  0  0  0  0  0  0  0  0  0  0  0
   15.9251   -8.2134   17.2696 C   0  0  0  0  0  0  0  0  0  0  0  0
   14.7851   -7.8191   16.6713 N   0  0  0  0  0  0  0  0  0  0  0  0
   13.9931   -7.4211   17.6836 C   0  0  0  0  0  0  0  0  0  0  0  0
   14.6743   -7.5845   18.8732 C   0  0  0  0  0  0  0  0  0  0  0  0
   15.8949   -8.0853   18.6097 N   0  0  0  0  0  0  0  0  0  0  0  0
   16.6065   -8.3081   19.2525 H   0  0  0  0  0  0  0  0  0  0  0  0
 14 15  1  0  0  0
 15 12  1  0  0  0
 12 13  2  0  0  0
 12  1  1  0  0  0
  1  2  2  0  0  0
  2  3  1  0  0  0
  3  4  2  0  0  0
  4  5  1  0  0  0
  5  6  2  0  0  0
  6  7  1  0  0  0
  6  8  1  0  0  0
  8  9  2  0  0  0
  9 16  1  0  0  0
 16 18  1  0  0  0
 18 19  1  0  0  0
 19 20  2  0  0  0
 20 21  1  0  0  0
 21 22  2  0  0  0
 22 23  1  0  0  0
 23 24  2  0  0  0
 23 25  1  0  0  0
 25 26  2  0  0  0
 26 27  1  0  0  0
 27 28  2  0  0  0
 28 29  1  0  0  0
  9 10  1  0  0  0
 10 11  2  0  0  0
 11  1  1  0  0  0
 10  4  1  0  0  0
 24 19  1  0  0  0
 29 25  1  0  0  0
 16 17  1  0  0  0
 29 30  1  0  0  0
M  END
>  <minimizedAffinity>
-4.17285

>  <minimizedRMSD>
2.05285

$$$$
CSSS00160136932 MCULE-7577437708 MolPort-039-037-388 PubChem-91832203


 27 30  0  0  0  0  0  0  0  0999 V2000
   17.5519   -9.1538   15.5227 N   0  0  0  0  0  0  0  0  0  0  0  0
   16.5779   -8.2573   14.8809 C   0  0  0  0  0  0  0  0  0  0  0  0
   16.9385   -8.0712   13.4103 C   0  0  0  0  0  0  0  0  0  0  0  0
   17.0227   -9.3833   12.7722 N   0  0  0  0  0  0  0  0  0  0  0  0
   17.8714  -10.3776   13.4228 C   0  0  0  0  0  0  0  0  0  0  0  0
   17.4848  -10.4772   14.8965 C   0  0  0  0  0  0  0  0  0  0  0  0
   16.2439   -9.6803   11.5933 C   0  0  0  0  0  0  0  0  0  0  0  0
   14.8669   -9.9543   11.6951 C   0  0  0  0  0  0  0  0  0  0  0  0
   14.1341  -10.2418   10.5284 C   0  0  0  0  0  0  0  0  0  0  0  0
   12.6802  -10.5330   10.6250 C   0  0  0  0  0  0  0  0  0  0  0  0
   14.7487  -10.2542    9.3108 N   0  0  0  0  0  0  0  0  0  0  0  0
   16.0748   -9.9851    9.2491 C   0  0  0  0  0  0  0  0  0  0  0  0
   16.8143   -9.9551    8.1293 N   0  0  0  0  0  0  0  0  0  0  0  0
   18.0415   -9.6388    8.6226 C   0  0  0  0  0  0  0  0  0  0  0  0
   18.0326   -9.4875    9.9705 N   0  0  0  0  0  0  0  0  0  0  0  0
   16.7875   -9.7108   10.3423 N   0  0  0  0  0  0  0  0  0  0  0  0
   17.1364  -10.7649   17.4081 C   0  0  0  0  0  0  0  0  0  0  0  0
   17.2764   -9.3073   16.9613 C   0  0  0  0  0  0  0  0  0  0  0  0
   16.1015   -8.4858   17.4103 C   0  0  0  0  0  0  0  0  0  0  0  0
   15.3098   -7.9900   16.5636 O   0  0  0  0  0  0  0  0  0  0  0  0
   15.9111   -8.2587   18.8124 N   0  0  0  0  0  0  0  0  0  0  0  0
   16.5768   -8.6536   19.4208 H   0  0  0  0  0  0  0  0  0  0  0  0
   14.8467   -7.5130   19.4154 C   0  0  0  0  0  0  0  0  0  0  0  0
   14.8940   -7.0858   20.6922 N   0  0  0  0  0  0  0  0  0  0  0  0
   13.8035   -6.4143   21.0612 N   0  0  0  0  0  0  0  0  0  0  0  0
   12.8662   -6.2926   20.0911 C   0  0  0  0  0  0  0  0  0  0  0  0
   13.4013   -7.0554   18.6854 S   0  0  0  0  0  0  0  0  0  0  0  0
 17 18  1  0  0  0
 18  1  1  0  0  0
  1  2  1  0  0  0
  2  3  1  0  0  0
  3  4  1  0  0  0
  4  5  1  0  0  0
  5  6  1  0  0  0
  4  7  1  0  0  0
  7  8  2  0  0  0
  8  9  1  0  0  0
  9 10  1  0  0  0
  9 11  2  0  0  0
 11 12  1  0  0  0
 12 13  2  0  0  0
 13 14  1  0  0  0
 14 15  2  0  0  0
 15 16  1  0  0  0
 18 19  1  0  0  0
 19 20  2  0  0  0
 19 21  1  0  0  0
 21 23  1  0  0  0
 23 24  2  0  0  0
 24 25  1  0  0  0
 25 26  2  0  0  0
 26 27  1  0  0  0
  6  1  1  0  0  0
 16  7  1  0  0  0
 27 23  1  0  0  0
 16 12  1  0  0  0
 21 22  1  0  0  0
M  END
>  <minimizedAffinity>
-4.14981

>  <minimizedRMSD>
1.96505

$$$$
2100483086 CSSS06359889600 MCULE-3281710123 MolPort-047-956-949 PubChem-157013286


 28 30  0  0  0  0  0  0  0  0999 V2000
   17.8214  -10.0743   12.4087 C   0  0  0  0  0  0  0  0  0  0  0  0
   18.9460   -9.5339   12.5932 O   0  0  0  0  0  0  0  0  0  0  0  0
   17.2255  -10.8540   13.4509 N   0  0  0  0  0  0  0  0  0  0  0  0
   16.3701  -11.3063   13.2694 H   0  0  0  0  0  0  0  0  0  0  0  0
   17.4019   -8.1088    6.5972 C   0  0  0  0  0  0  0  0  0  0  0  0
   17.7474   -8.4637    7.9644 N   0  0  0  0  0  0  0  0  0  0  0  0
   18.8969   -8.2041    8.6350 C   0  0  0  0  0  0  0  0  0  0  0  0
   20.0541   -7.4737    8.0454 C   0  0  0  0  0  0  0  0  0  0  0  0
   18.8982   -8.6764    9.9111 N   0  0  0  0  0  0  0  0  0  0  0  0
   17.6839   -9.2543   10.0215 C   0  0  0  0  0  0  0  0  0  0  0  0
   17.1174   -9.9109   11.1210 C   0  0  0  0  0  0  0  0  0  0  0  0
   15.8134  -10.4209   10.9473 C   0  0  0  0  0  0  0  0  0  0  0  0
   15.1430  -10.2600    9.7135 C   0  0  0  0  0  0  0  0  0  0  0  0
   15.7455   -9.6098    8.6735 N   0  0  0  0  0  0  0  0  0  0  0  0
   16.9986   -9.1239    8.8527 C   0  0  0  0  0  0  0  0  0  0  0  0
   17.8286  -11.0080   14.7680 C   0  0  0  0  0  0  0  0  0  0  0  0
   17.1108  -10.1681   15.7696 C   0  0  0  0  0  0  0  0  0  0  0  0
   16.2874   -9.1212   15.3424 C   0  0  0  0  0  0  0  0  0  0  0  0
   15.6012   -8.3431   16.2792 C   0  0  0  0  0  0  0  0  0  0  0  0
   15.7326   -8.6121   17.6463 C   0  0  0  0  0  0  0  0  0  0  0  0
   16.5576   -9.6588   18.0730 C   0  0  0  0  0  0  0  0  0  0  0  0
   17.2439  -10.4373   17.1364 C   0  0  0  0  0  0  0  0  0  0  0  0
   14.8802   -7.6283   18.8220 S   0  0  0  0  0  0  0  0  0  0  0  0
   16.0182   -6.8902   19.8909 N   0  0  0  0  0  0  0  0  0  0  0  0
   13.9345   -8.4885   19.6121 O   0  0  0  0  0  0  0  0  0  0  0  0
   14.0918   -6.5623   18.1143 O   0  0  0  0  0  0  0  0  0  0  0  0
   16.5529   -7.6142   20.3709 H   0  0  0  0  0  0  0  0  0  0  0  0
   15.5213   -6.3229   20.5777 H   0  0  0  0  0  0  0  0  0  0  0  0
  5  6  1  0  0  0
  6  7  1  0  0  0
  7  8  1  0  0  0
  7  9  2  0  0  0
  9 10  1  0  0  0
 10 11  2  0  0  0
 11 12  1  0  0  0
 12 13  2  0  0  0
 13 14  1  0  0  0
 14 15  2  0  0  0
 11  1  1  0  0  0
  1  2  2  0  0  0
  1  3  1  0  0  0
  3 16  1  0  0  0
 16 17  1  0  0  0
 17 18  2  0  0  0
 18 19  1  0  0  0
 19 20  2  0  0  0
 20 21  1  0  0  0
 21 22  2  0  0  0
 20 23  1  0  0  0
 23 24  1  0  0  0
 23 25  2  0  0  0
 23 26  2  0  0  0
 15  6  1  0  0  0
 22 17  1  0  0  0
 15 10  1  0  0  0
  3  4  1  0  0  0
 24 27  1  0  0  0
 24 28  1  0  0  0
M  END
>  <minimizedAffinity>
-4.13930

>  <minimizedRMSD>
1.87851

$$$$
CSC026681643 11207602 CSSS00026681643 MCULE-3880587115 MolPort-005-733-409 PubChem-17568616 Z192889168 ZINC000011207602 ZINC11207602


 29 31  0  0  0  0  0  0  0  0999 V2000
   16.7014  -10.0855   12.1340 C   0  0  0  0  0  0  0  0  0  0  0  0
   15.4674  -10.2875   12.2946 O   0  0  0  0  0  0  0  0  0  0  0  0
   17.6074  -10.3910   13.1977 N   0  0  0  0  0  0  0  0  0  0  0  0
   18.5697  -10.2320   13.0635 H   0  0  0  0  0  0  0  0  0  0  0  0
   18.9706   -7.9224    7.5471 N   0  0  0  0  0  0  0  0  0  0  0  0
   20.1224   -7.4776    8.0420 N   0  0  0  0  0  0  0  0  0  0  0  0
   20.1715   -7.7608    9.3723 C   0  0  0  0  0  0  0  0  0  0  0  0
   18.9917   -8.4066    9.6913 C   0  0  0  0  0  0  0  0  0  0  0  0
   18.4994   -8.9211   10.8800 C   0  0  0  0  0  0  0  0  0  0  0  0
   17.2267   -9.5353   10.8586 C   0  0  0  0  0  0  0  0  0  0  0  0
   16.5112   -9.5958    9.6146 C   0  0  0  0  0  0  0  0  0  0  0  0
   15.1637  -10.2246    9.5005 C   0  0  0  0  0  0  0  0  0  0  0  0
   17.0587   -9.0665    8.4778 N   0  0  0  0  0  0  0  0  0  0  0  0
   18.2805   -8.4874    8.5432 C   0  0  0  0  0  0  0  0  0  0  0  0
   19.4359   -6.8116    5.4242 C   0  0  0  0  0  0  0  0  0  0  0  0
   18.5531   -7.8048    6.1556 C   0  0  0  0  0  0  0  0  0  0  0  0
   18.6209   -9.1564    5.4703 C   0  0  0  0  0  0  0  0  0  0  0  0
   17.1549  -10.9285   14.4701 C   0  0  0  0  0  0  0  0  0  0  0  0
   16.6303   -9.8255   15.3180 C   0  0  0  0  0  0  0  0  0  0  0  0
   16.4349   -8.5175   14.8946 C   0  0  0  0  0  0  0  0  0  0  0  0
   15.8740   -7.7045   15.8894 C   0  0  0  0  0  0  0  0  0  0  0  0
   15.6298   -8.3955   17.0687 C   0  0  0  0  0  0  0  0  0  0  0  0
   16.0970   -9.9995   16.9012 S   0  0  0  0  0  0  0  0  0  0  0  0
   14.9367   -7.7060   18.5222 S   0  0  0  0  0  0  0  0  0  0  0  0
   16.2025   -7.1843   19.5749 N   0  0  0  0  0  0  0  0  0  0  0  0
   14.0936   -8.7387   19.2150 O   0  0  0  0  0  0  0  0  0  0  0  0
   14.0739   -6.5296   18.1612 O   0  0  0  0  0  0  0  0  0  0  0  0
   16.7897   -7.9810   19.8215 H   0  0  0  0  0  0  0  0  0  0  0  0
   15.7976   -6.7853   20.4218 H   0  0  0  0  0  0  0  0  0  0  0  0
 15 16  1  0  0  0
 16 17  1  0  0  0
 16  5  1  0  0  0
  5  6  1  0  0  0
  6  7  2  0  0  0
  7  8  1  0  0  0
  8  9  2  0  0  0
  9 10  1  0  0  0
 10  1  1  0  0  0
 10 11  2  0  0  0
  1  2  2  0  0  0
  1  3  1  0  0  0
  3 18  1  0  0  0
 18 19  1  0  0  0
 19 20  2  0  0  0
 20 21  1  0  0  0
 21 22  2  0  0  0
 22 23  1  0  0  0
 22 24  1  0  0  0
 23 19  1  0  0  0
 24 25  1  0  0  0
 24 26  2  0  0  0
 24 27  2  0  0  0
 11 12  1  0  0  0
 11 13  1  0  0  0
 13 14  2  0  0  0
 14  5  1  0  0  0
 14  8  1  0  0  0
  3  4  1  0  0  0
 25 28  1  0  0  0
 25 29  1  0  0  0
M  END
>  <minimizedAffinity>
-4.09936

>  <minimizedRMSD>
2.17762

$$$$
CSSS00132316160 MCULE-5536547826 MolPort-002-026-765 PubChem-135425412


 34 37  0  0  0  0  0  0  0  0999 V2000
   16.9364  -10.1759   14.9458 C   0  0  0  0  0  0  0  0  0  0  0  0
   15.7557   -9.8525   14.3793 N   0  0  0  0  0  0  0  0  0  0  0  0
   15.8996  -10.0046   13.0692 N   0  0  0  0  0  0  0  0  0  0  0  0
   17.1663  -10.4117   12.8613 C   0  0  0  0  0  0  0  0  0  0  0  0
   17.8407  -10.5276   14.0170 N   0  0  0  0  0  0  0  0  0  0  0  0
   19.2227  -10.9341   14.2142 C   0  0  0  0  0  0  0  0  0  0  0  0
   17.2188  -10.1092   16.4226 C   0  0  0  0  0  0  0  0  0  0  0  0
   16.0901   -9.5244   17.1363 N   0  0  0  0  0  0  0  0  0  0  0  0
   15.6962   -8.1572   16.9773 C   0  0  0  0  0  0  0  0  0  0  0  0
   16.3538   -7.3964   16.2150 O   0  0  0  0  0  0  0  0  0  0  0  0
   15.5768  -10.0940   17.7539 H   0  0  0  0  0  0  0  0  0  0  0  0
   14.5231   -7.6380   17.7012 C   0  0  0  0  0  0  0  0  0  0  0  0
   13.3058   -7.4430   17.0317 C   0  0  0  0  0  0  0  0  0  0  0  0
   12.1920   -6.9518   17.7185 C   0  0  0  0  0  0  0  0  0  0  0  0
   12.2874   -6.6523   19.0802 C   0  0  0  0  0  0  0  0  0  0  0  0
   13.4966   -6.8421   19.7545 C   0  0  0  0  0  0  0  0  0  0  0  0
   14.6106   -7.3332   19.0675 C   0  0  0  0  0  0  0  0  0  0  0  0
   18.7754  -11.3289   17.9849 C   0  0  0  0  0  0  0  0  0  0  0  0
   17.5973  -11.4624   17.0372 C   0  0  0  0  0  0  0  0  0  0  0  0
   17.8772  -12.5335   15.9948 C   0  0  0  0  0  0  0  0  0  0  0  0
   17.8515  -10.7452   11.2416 S   0  0  0  0  0  0  0  0  0  0  0  0
   17.7128   -9.0014   10.7489 C   0  0  0  0  0  0  0  0  0  0  0  0
   17.9493   -8.8581    9.2868 C   0  0  0  0  0  0  0  0  0  0  0  0
   18.9809   -8.0924    8.8445 N   0  0  0  0  0  0  0  0  0  0  0  0
   19.2110   -7.9335    7.5160 C   0  0  0  0  0  0  0  0  0  0  0  0
   20.2754   -7.1402    7.0783 C   0  0  0  0  0  0  0  0  0  0  0  0
   20.5046   -6.9714    5.7095 C   0  0  0  0  0  0  0  0  0  0  0  0
   19.6716   -7.5955    4.7753 C   0  0  0  0  0  0  0  0  0  0  0  0
   18.6054   -8.3908    5.2058 C   0  0  0  0  0  0  0  0  0  0  0  0
   18.3700   -8.5652    6.5762 C   0  0  0  0  0  0  0  0  0  0  0  0
   17.3117   -9.3472    7.0566 C   0  0  0  0  0  0  0  0  0  0  0  0
   16.5295   -9.9345    6.2615 O   0  0  0  0  0  0  0  0  0  0  0  0
   17.1237   -9.4724    8.3966 N   0  0  0  0  0  0  0  0  0  0  0  0
   16.3753  -10.0183    8.7299 H   0  0  0  0  0  0  0  0  0  0  0  0
 18 19  1  0  0  0
 19 20  1  0  0  0
  7 19  1  0  0  0
  7  8  1  0  0  0
  7  1  1  0  0  0
  8  9  1  0  0  0
  9 10  2  0  0  0
  9 12  1  0  0  0
 12 13  2  0  0  0
 13 14  1  0  0  0
 14 15  2  0  0  0
 15 16  1  0  0  0
 16 17  2  0  0  0
 17 12  1  0  0  0
  1  2  2  0  0  0
  2  3  1  0  0  0
  3  4  2  0  0  0
  4 21  1  0  0  0
  4  5  1  0  0  0
 21 22  1  0  0  0
 22 23  1  0  0  0
 23 24  2  0  0  0
 24 25  1  0  0  0
 25 26  2  0  0  0
 26 27  1  0  0  0
 27 28  2  0  0  0
 28 29  1  0  0  0
 29 30  2  0  0  0
 30 31  1  0  0  0
 30 25  1  0  0  0
 31 32  2  0  0  0
 31 33  1  0  0  0
 33 23  1  0  0  0
  5  6  1  0  0  0
  5  1  1  0  0  0
  8 11  1  0  0  0
 33 34  1  0  0  0
M  END
>  <minimizedAffinity>
-4.08699

>  <minimizedRMSD>
2.39703

$$$$
CSSS06744549680 Z7675068356


 24 26  0  0  0  0  0  0  0  0999 V2000
   15.9414   -9.3042   12.8999 C   0  0  0  0  0  0  0  0  0  0  0  0
   15.8721   -8.6450   16.6281 C   0  0  0  0  0  0  0  0  0  0  0  0
   17.1523   -9.0689   17.0028 C   0  0  0  0  0  0  0  0  0  0  0  0
   18.0335   -9.5737   16.0419 C   0  0  0  0  0  0  0  0  0  0  0  0
   17.6364   -9.6568   14.7042 C   0  0  0  0  0  0  0  0  0  0  0  0
   16.3553   -9.2400   14.3271 C   0  0  0  0  0  0  0  0  0  0  0  0
   15.4770   -8.7280   15.2879 C   0  0  0  0  0  0  0  0  0  0  0  0
   15.6340   -7.8080   19.3802 C   0  0  0  0  0  0  0  0  0  0  0  0
   14.7737   -8.0043   17.8373 S   0  0  0  0  0  0  0  0  0  0  0  0
   13.5767   -8.9783   18.0228 N   0  0  0  0  0  0  0  0  0  0  0  0
   14.2527   -6.6652   17.3959 O   0  0  0  0  0  0  0  0  0  0  0  0
   12.8650   -8.7660   18.6690 H   0  0  0  0  0  0  0  0  0  0  0  0
   17.1144   -9.4745   12.0559 N   0  0  0  0  0  0  0  0  0  0  0  0
   17.9968   -9.5536   12.4853 H   0  0  0  0  0  0  0  0  0  0  0  0
   17.0394   -9.5317   10.6287 C   0  0  0  0  0  0  0  0  0  0  0  0
   16.0545  -10.2866    9.9677 C   0  0  0  0  0  0  0  0  0  0  0  0
   16.0402  -10.2969    8.5591 C   0  0  0  0  0  0  0  0  0  0  0  0
   16.9656   -9.5871    7.8494 N   0  0  0  0  0  0  0  0  0  0  0  0
   17.8956   -8.8742    8.5306 C   0  0  0  0  0  0  0  0  0  0  0  0
   18.9100   -8.0961    8.0400 C   0  0  0  0  0  0  0  0  0  0  0  0
   19.3152   -7.7845    6.3646 Cl  0  0  0  0  0  0  0  0  0  0  0  0
   19.5536   -7.6030    9.1733 C   0  0  0  0  0  0  0  0  0  0  0  0
   18.9257   -8.0849   10.2777 N   0  0  0  0  0  0  0  0  0  0  0  0
   17.9286   -8.8496    9.8644 N   0  0  0  0  0  0  0  0  0  0  0  0
  8  9  1  0  0  0
  9 10  2  0  0  0
  9 11  2  0  0  0
  9  2  1  0  0  0
  2  3  2  0  0  0
  3  4  1  0  0  0
  4  5  2  0  0  0
  5  6  1  0  0  0
  6  1  1  0  0  0
  1 13  1  0  0  0
 13 15  1  0  0  0
 15 16  2  0  0  0
 16 17  1  0  0  0
 17 18  2  0  0  0
 18 19  1  0  0  0
 19 20  2  0  0  0
 20 21  1  0  0  0
 20 22  1  0  0  0
 22 23  2  0  0  0
 23 24  1  0  0  0
  6  7  2  0  0  0
  7  2  1  0  0  0
 24 15  1  0  0  0
 24 19  1  0  0  0
 10 12  1  0  0  0
 13 14  1  0  0  0
M  END
>  <minimizedAffinity>
-4.07268

>  <minimizedRMSD>
1.33551

$$$$
CSC027113934 CSSS00027113934 MCULE-9368186044 MolPort-007-450-318 PubChem-42959486 Z383312282


 28 30  0  0  0  0  0  0  0  0999 V2000
   17.4562   -9.4715   11.8183 N   0  0  0  0  0  0  0  0  0  0  0  0
   17.6452   -8.5909   10.7059 C   0  0  0  0  0  0  0  0  0  0  0  0
   16.8461   -7.6386   10.5024 O   0  0  0  0  0  0  0  0  0  0  0  0
   18.0742  -10.2299   11.9287 H   0  0  0  0  0  0  0  0  0  0  0  0
   15.1395  -10.0123   12.3186 C   0  0  0  0  0  0  0  0  0  0  0  0
   16.3892   -9.2945   12.7945 C   0  0  0  0  0  0  0  0  0  0  0  0
   16.8091   -9.8056   14.1385 C   0  0  0  0  0  0  0  0  0  0  0  0
   17.6439  -10.9259   14.2616 C   0  0  0  0  0  0  0  0  0  0  0  0
   18.0308  -11.3756   15.5262 C   0  0  0  0  0  0  0  0  0  0  0  0
   17.5879  -10.7075   16.6712 C   0  0  0  0  0  0  0  0  0  0  0  0
   16.7571   -9.5873   16.5616 C   0  0  0  0  0  0  0  0  0  0  0  0
   16.3714   -9.1409   15.2885 C   0  0  0  0  0  0  0  0  0  0  0  0
   16.3255   -8.9281   17.7598 N   0  0  0  0  0  0  0  0  0  0  0  0
   15.2937   -7.9394   17.8695 C   0  0  0  0  0  0  0  0  0  0  0  0
   14.9768   -7.3643   19.2022 C   0  0  0  0  0  0  0  0  0  0  0  0
   14.6514   -7.5477   16.8597 O   0  0  0  0  0  0  0  0  0  0  0  0
   16.7853   -9.1807   18.5929 H   0  0  0  0  0  0  0  0  0  0  0  0
   18.7846   -8.8027    9.7628 C   0  0  0  0  0  0  0  0  0  0  0  0
   19.6255   -9.9994   10.1763 C   0  0  0  0  0  0  0  0  0  0  0  0
   18.3099   -8.9469    8.3892 N   0  0  0  0  0  0  0  0  0  0  0  0
   17.2134   -9.6183    7.9516 C   0  0  0  0  0  0  0  0  0  0  0  0
   17.0603   -9.5378    6.6021 N   0  0  0  0  0  0  0  0  0  0  0  0
   18.1058   -8.7862    6.2109 C   0  0  0  0  0  0  0  0  0  0  0  0
   18.4309   -8.3897    4.9162 C   0  0  0  0  0  0  0  0  0  0  0  0
   19.5815   -7.5949    4.7525 C   0  0  0  0  0  0  0  0  0  0  0  0
   20.3638   -7.2229    5.8694 C   0  0  0  0  0  0  0  0  0  0  0  0
   20.0062   -7.6409    7.1648 C   0  0  0  0  0  0  0  0  0  0  0  0
   18.8613   -8.4273    7.2859 C   0  0  0  0  0  0  0  0  0  0  0  0
  6  5  1  0  0  0
  6  1  1  0  0  0
  6  7  1  0  0  0
  1  2  1  0  0  0
  2  3  2  0  0  0
 18  2  1  0  0  0
 18 19  1  0  0  0
 18 20  1  0  0  0
 20 21  1  0  0  0
 21 22  2  0  0  0
 22 23  1  0  0  0
 23 24  2  0  0  0
 24 25  1  0  0  0
 25 26  2  0  0  0
 26 27  1  0  0  0
 27 28  2  0  0  0
 28 20  1  0  0  0
 28 23  1  0  0  0
  7  8  2  0  0  0
  8  9  1  0  0  0
  9 10  2  0  0  0
 10 11  1  0  0  0
 11 13  1  0  0  0
 11 12  2  0  0  0
 13 14  1  0  0  0
 14 15  1  0  0  0
 14 16  2  0  0  0
 12  7  1  0  0  0
  1  4  1  0  0  0
 13 17  1  0  0  0
M  END
>  <minimizedAffinity>
-4.06314

>  <minimizedRMSD>
1.59110

$$$$
14994755 CSSS00159558121 MCULE-2842117036 MolPort-005-149-016 PubChem-26350220 ZINC000014994755 ZINC14994755


 34 37  0  0  0  0  0  0  0  0999 V2000
   17.9307   -9.7544   15.0562 C   0  0  0  0  0  0  0  0  0  0  0  0
   17.1972   -9.5912   16.2397 C   0  0  0  0  0  0  0  0  0  0  0  0
   15.8033   -9.4858   16.2053 C   0  0  0  0  0  0  0  0  0  0  0  0
   15.1377   -9.5426   14.9730 C   0  0  0  0  0  0  0  0  0  0  0  0
   15.8589   -9.7129   13.7887 C   0  0  0  0  0  0  0  0  0  0  0  0
   17.2529   -9.8116   13.8298 C   0  0  0  0  0  0  0  0  0  0  0  0
   19.3980   -9.8607   15.1060 C   0  0  0  0  0  0  0  0  0  0  0  0
   20.0705   -9.0203   15.7658 O   0  0  0  0  0  0  0  0  0  0  0  0
   19.3199  -11.8600   13.6703 C   0  0  0  0  0  0  0  0  0  0  0  0
   20.0406  -10.8951   14.4216 O   0  0  0  0  0  0  0  0  0  0  0  0
   15.0858   -9.3210   17.4313 N   0  0  0  0  0  0  0  0  0  0  0  0
   14.8108  -10.1289   17.9221 H   0  0  0  0  0  0  0  0  0  0  0  0
   14.6743   -7.7757   18.0999 S   0  0  0  0  0  0  0  0  0  0  0  0
   15.1275   -6.6915   17.1623 O   0  0  0  0  0  0  0  0  0  0  0  0
   15.3677   -7.6025   19.4213 O   0  0  0  0  0  0  0  0  0  0  0  0
   12.9415   -7.6755   18.3441 C   0  0  0  0  0  0  0  0  0  0  0  0
   12.0880   -8.7544   18.4805 C   0  0  0  0  0  0  0  0  0  0  0  0
   10.7507   -8.3618   18.6350 C   0  0  0  0  0  0  0  0  0  0  0  0
   10.5486   -6.9834   18.6173 C   0  0  0  0  0  0  0  0  0  0  0  0
   12.0523   -6.2586   18.4067 S   0  0  0  0  0  0  0  0  0  0  0  0
   15.1465   -9.7471   12.4835 C   0  0  0  0  0  0  0  0  0  0  0  0
   16.0170   -9.2331   11.4382 N   0  0  0  0  0  0  0  0  0  0  0  0
   16.1811   -9.9061   10.1890 C   0  0  0  0  0  0  0  0  0  0  0  0
   15.5669  -10.9835    9.9625 O   0  0  0  0  0  0  0  0  0  0  0  0
   16.5086   -8.3949   11.5964 H   0  0  0  0  0  0  0  0  0  0  0  0
   17.0641   -9.3399    9.1636 C   0  0  0  0  0  0  0  0  0  0  0  0
   16.9398   -9.6110    7.8421 N   0  0  0  0  0  0  0  0  0  0  0  0
   17.8949   -8.9294    7.2439 N   0  0  0  0  0  0  0  0  0  0  0  0
   18.1603   -8.8910    5.9167 C   0  0  0  0  0  0  0  0  0  0  0  0
   19.2308   -8.0940    5.4898 C   0  0  0  0  0  0  0  0  0  0  0  0
   19.9702   -7.3799    6.4529 C   0  0  0  0  0  0  0  0  0  0  0  0
   19.6493   -7.4632    7.7773 N   0  0  0  0  0  0  0  0  0  0  0  0
   18.6056   -8.2457    8.1450 C   0  0  0  0  0  0  0  0  0  0  0  0
   18.1249   -8.4618    9.4181 C   0  0  0  0  0  0  0  0  0  0  0  0
  9 10  1  0  0  0
 10  7  1  0  0  0
  7  8  2  0  0  0
  7  1  1  0  0  0
  1  2  2  0  0  0
  2  3  1  0  0  0
  3 11  1  0  0  0
  3  4  2  0  0  0
 11 13  1  0  0  0
 13 14  2  0  0  0
 13 15  2  0  0  0
 13 16  1  0  0  0
 16 17  2  0  0  0
 17 18  1  0  0  0
 18 19  2  0  0  0
 19 20  1  0  0  0
 20 16  1  0  0  0
  4  5  1  0  0  0
  5 21  1  0  0  0
  5  6  2  0  0  0
 21 22  1  0  0  0
 22 23  1  0  0  0
 23 24  2  0  0  0
 23 26  1  0  0  0
 26 27  2  0  0  0
 27 28  1  0  0  0
 28 29  1  0  0  0
 29 30  2  0  0  0
 30 31  1  0  0  0
 31 32  2  0  0  0
 32 33  1  0  0  0
 33 34  2  0  0  0
 33 28  1  0  0  0
 34 26  1  0  0  0
  6  1  1  0  0  0
 11 12  1  0  0  0
 22 25  1  0  0  0
M  END
>  <minimizedAffinity>
-4.05518

>  <minimizedRMSD>
2.21307

$$$$
CSSS09880992052 MCULE-2892626855 MolPort-051-634-420


 34 38  0  0  0  0  0  0  0  0999 V2000
   16.7095   -8.8625   16.8693 C   0  0  0  0  0  0  0  0  0  0  0  0
   17.8180   -9.2967   17.5091 N   0  0  0  0  0  0  0  0  0  0  0  0
   18.5716   -9.9717   16.6488 N   0  0  0  0  0  0  0  0  0  0  0  0
   17.9423   -9.9641   15.4604 C   0  0  0  0  0  0  0  0  0  0  0  0
   18.4258  -10.5972   14.1974 C   0  0  0  0  0  0  0  0  0  0  0  0
   17.6197  -10.1058   13.0738 N   0  0  0  0  0  0  0  0  0  0  0  0
   16.1643   -9.9836   13.2416 C   0  0  0  0  0  0  0  0  0  0  0  0
   15.8182   -9.0517   14.4144 C   0  0  0  0  0  0  0  0  0  0  0  0
   16.7561   -9.2889   15.5584 C   0  0  0  0  0  0  0  0  0  0  0  0
   18.2629   -9.6757   11.8633 C   0  0  0  0  0  0  0  0  0  0  0  0
   19.5169   -9.5462   11.8315 O   0  0  0  0  0  0  0  0  0  0  0  0
   19.4357  -10.4006   16.8457 H   0  0  0  0  0  0  0  0  0  0  0  0
   17.4850   -9.3865   10.6431 C   0  0  0  0  0  0  0  0  0  0  0  0
   16.1265   -9.7500   10.5193 C   0  0  0  0  0  0  0  0  0  0  0  0
   15.2853  -10.4608   11.5096 C   0  0  0  0  0  0  0  0  0  0  0  0
   13.9172  -10.5858   10.8204 C   0  0  0  0  0  0  0  0  0  0  0  0
   14.0307   -9.9791    9.4137 C   0  0  0  0  0  0  0  0  0  0  0  0
   15.4237   -9.4988    9.3523 C   0  0  0  0  0  0  0  0  0  0  0  0
   16.0000   -8.8899    8.2748 N   0  0  0  0  0  0  0  0  0  0  0  0
   17.3062   -8.5329    8.3855 C   0  0  0  0  0  0  0  0  0  0  0  0
   18.0359   -7.9282    7.4838 O   0  0  0  0  0  0  0  0  0  0  0  0
   19.2413   -7.7297    7.9491 N   0  0  0  0  0  0  0  0  0  0  0  0
   19.2846   -8.2338    9.2063 C   0  0  0  0  0  0  0  0  0  0  0  0
   20.4835   -8.1603   10.0853 C   0  0  0  0  0  0  0  0  0  0  0  0
   18.0474   -8.7655    9.5155 C   0  0  0  0  0  0  0  0  0  0  0  0
   15.6518   -8.0689   17.5108 C   0  0  0  0  0  0  0  0  0  0  0  0
   14.7992   -7.4611   16.8080 O   0  0  0  0  0  0  0  0  0  0  0  0
   15.5946   -7.9911   18.9359 N   0  0  0  0  0  0  0  0  0  0  0  0
   16.2700   -8.4708   19.4678 H   0  0  0  0  0  0  0  0  0  0  0  0
   14.5687   -7.2244   19.6245 C   0  0  0  0  0  0  0  0  0  0  0  0
   14.9451   -7.0522   21.0838 C   0  0  0  0  0  0  0  0  0  0  0  0
   14.1867   -5.8764   21.6623 C   0  0  0  0  0  0  0  0  0  0  0  0
   14.6197   -8.2070   21.7962 O   0  0  0  0  0  0  0  0  0  0  0  0
   13.6656   -8.3693   21.7305 H   0  0  0  0  0  0  0  0  0  0  0  0
  1 26  1  0  0  0
 26 27  2  0  0  0
 26 28  1  0  0  0
 28 30  1  0  0  0
 30 31  1  0  0  0
 31 32  1  0  0  0
 31 33  1  0  0  0
  1  2  2  0  0  0
  2  3  1  0  0  0
  3  4  1  0  0  0
  4  5  1  0  0  0
  5  6  1  0  0  0
  6  7  1  0  0  0
  7  8  1  0  0  0
  8  9  1  0  0  0
  6 10  1  0  0  0
 10 11  2  0  0  0
 10 13  1  0  0  0
 13 14  2  0  0  0
 14 15  1  0  0  0
 15 16  1  0  0  0
 16 17  1  0  0  0
 17 18  1  0  0  0
 18 19  2  0  0  0
 19 20  1  0  0  0
 20 21  1  0  0  0
 21 22  1  0  0  0
 22 23  2  0  0  0
 23 24  1  0  0  0
 23 25  1  0  0  0
  9  1  1  0  0  0
 25 13  1  0  0  0
  9  4  2  0  0  0
 18 14  1  0  0  0
 25 20  2  0  0  0
 28 29  1  0  0  0
 33 34  1  0  0  0
  3 12  1  0  0  0
M  END
>  <minimizedAffinity>
-4.03940

>  <minimizedRMSD>
1.33840

$$$$
CSSS20447610946


 34 36  0  0  0  0  0  0  0  0999 V2000
   17.0419   -9.9600   16.9900 C   0  0  0  0  0  0  0  0  0  0  0  0
   16.9455   -9.5621   15.6479 C   0  0  0  0  0  0  0  0  0  0  0  0
   16.1849   -8.4424   15.2981 C   0  0  0  0  0  0  0  0  0  0  0  0
   15.5320   -7.7049   16.2899 C   0  0  0  0  0  0  0  0  0  0  0  0
   15.6277   -8.0940   17.6297 C   0  0  0  0  0  0  0  0  0  0  0  0
   16.3798   -9.2221   17.9766 C   0  0  0  0  0  0  0  0  0  0  0  0
   17.8118  -11.1040   17.3719 N   0  0  0  0  0  0  0  0  0  0  0  0
   18.0494  -11.2094   18.3215 H   0  0  0  0  0  0  0  0  0  0  0  0
   18.2632  -12.1209   16.4321 C   0  0  0  0  0  0  0  0  0  0  0  0
   18.9770  -11.4676   15.2609 C   0  0  0  0  0  0  0  0  0  0  0  0
   17.9854  -13.3718   14.3426 C   0  0  0  0  0  0  0  0  0  0  0  0
   19.0416  -12.3946   14.1447 N   0  0  0  0  0  0  0  0  0  0  0  0
   18.6881  -11.6393   12.9569 C   0  0  0  0  0  0  0  0  0  0  0  0
   16.1054   -8.0122   13.8771 C   0  0  0  0  0  0  0  0  0  0  0  0
   16.7072   -8.9943   13.0468 O   0  0  0  0  0  0  0  0  0  0  0  0
   16.1018   -9.4342   11.8695 C   0  0  0  0  0  0  0  0  0  0  0  0
   16.8199   -9.5071   10.6849 C   0  0  0  0  0  0  0  0  0  0  0  0
   18.1028   -9.2048   10.4475 N   0  0  0  0  0  0  0  0  0  0  0  0
   18.2319   -9.4760    9.1188 C   0  0  0  0  0  0  0  0  0  0  0  0
   17.0892   -9.9296    8.5326 N   0  0  0  0  0  0  0  0  0  0  0  0
   16.2247   -9.9340    9.5539 C   0  0  0  0  0  0  0  0  0  0  0  0
   14.9228  -10.3067    9.5142 N   0  0  0  0  0  0  0  0  0  0  0  0
   14.1986  -10.2413   10.6728 C   0  0  0  0  0  0  0  0  0  0  0  0
   12.8289  -10.6245   10.6731 N   0  0  0  0  0  0  0  0  0  0  0  0
   14.7862   -9.8093   11.8349 N   0  0  0  0  0  0  0  0  0  0  0  0
   16.9377  -10.1886    7.5949 H   0  0  0  0  0  0  0  0  0  0  0  0
   12.4044  -10.9349    9.8408 H   0  0  0  0  0  0  0  0  0  0  0  0
   12.3053  -10.5794   11.5056 H   0  0  0  0  0  0  0  0  0  0  0  0
   14.9147   -7.3172   18.6839 C   0  0  0  0  0  0  0  0  0  0  0  0
   13.6954   -8.0058   19.0865 N   0  0  0  0  0  0  0  0  0  0  0  0
   12.4164   -7.7105   18.5221 C   0  0  0  0  0  0  0  0  0  0  0  0
   11.2263   -8.4878   18.9541 C   0  0  0  0  0  0  0  0  0  0  0  0
   12.2857   -6.7949   17.6671 O   0  0  0  0  0  0  0  0  0  0  0  0
   13.7554   -8.7048   19.7772 H   0  0  0  0  0  0  0  0  0  0  0  0
 11 12  1  0  0  0
 12 13  1  0  0  0
 12 10  1  0  0  0
 10  9  1  0  0  0
  9  7  1  0  0  0
  7  1  1  0  0  0
  1  2  2  0  0  0
  2  3  1  0  0  0
  3 14  1  0  0  0
 14 15  1  0  0  0
 15 16  1  0  0  0
 16 17  2  0  0  0
 17 18  1  0  0  0
 18 19  2  0  0  0
 19 20  1  0  0  0
 20 21  1  0  0  0
 21 22  2  0  0  0
 22 23  1  0  0  0
 23 24  1  0  0  0
 23 25  2  0  0  0
  3  4  2  0  0  0
  4  5  1  0  0  0
  5 29  1  0  0  0
 29 30  1  0  0  0
 30 31  1  0  0  0
 31 32  1  0  0  0
 31 33  2  0  0  0
  5  6  2  0  0  0
  6  1  1  0  0  0
 25 16  1  0  0  0
 21 17  1  0  0  0
  7  8  1  0  0  0
 20 26  1  0  0  0
 24 27  1  0  0  0
 24 28  1  0  0  0
 30 34  1  0  0  0
M  END
>  <minimizedAffinity>
-4.03352

>  <minimizedRMSD>
2.65879

$$$$
71753852 CSSS00159581452 MCULE-4894672152 MolPort-020-215-857 PubChem-56874308 ZINC000071753852 ZINC71753852


 27 30  0  0  0  0  0  0  0  0999 V2000
   17.8054  -10.6941   14.4098 C   0  0  0  0  0  0  0  0  0  0  0  0
   18.7900  -11.5863   14.6355 N   0  0  0  0  0  0  0  0  0  0  0  0
   19.1160  -12.0666   13.4170 C   0  0  0  0  0  0  0  0  0  0  0  0
   18.3262  -11.4557   12.4606 C   0  0  0  0  0  0  0  0  0  0  0  0
   17.5051  -10.6032   13.0960 N   0  0  0  0  0  0  0  0  0  0  0  0
   15.9315   -8.5318   17.6099 C   0  0  0  0  0  0  0  0  0  0  0  0
   15.8211   -8.0632   16.2978 C   0  0  0  0  0  0  0  0  0  0  0  0
   16.4300   -8.7609   15.2516 C   0  0  0  0  0  0  0  0  0  0  0  0
   17.1589   -9.9323   15.5034 C   0  0  0  0  0  0  0  0  0  0  0  0
   17.2554  -10.4010   16.8220 C   0  0  0  0  0  0  0  0  0  0  0  0
   16.6468   -9.7048   17.8699 C   0  0  0  0  0  0  0  0  0  0  0  0
   15.1574   -7.6546   18.9193 S   0  0  0  0  0  0  0  0  0  0  0  0
   14.4886   -8.6210   19.8580 O   0  0  0  0  0  0  0  0  0  0  0  0
   16.2002   -6.8864   19.6809 O   0  0  0  0  0  0  0  0  0  0  0  0
   12.8008   -7.3197   17.9274 C   0  0  0  0  0  0  0  0  0  0  0  0
   13.9820   -6.5524   18.2846 N   0  0  0  0  0  0  0  0  0  0  0  0
   13.7429   -5.8558   18.9903 H   0  0  0  0  0  0  0  0  0  0  0  0
   16.5709   -9.7020   12.4340 C   0  0  0  0  0  0  0  0  0  0  0  0
   17.1380   -9.2379   11.1359 C   0  0  0  0  0  0  0  0  0  0  0  0
   16.6899   -9.6771    9.9348 N   0  0  0  0  0  0  0  0  0  0  0  0
   17.4189   -9.1412    8.9238 C   0  0  0  0  0  0  0  0  0  0  0  0
   17.1971   -9.4005    7.5713 C   0  0  0  0  0  0  0  0  0  0  0  0
   18.0322   -8.7841    6.6243 C   0  0  0  0  0  0  0  0  0  0  0  0
   19.0702   -7.9255    7.0364 C   0  0  0  0  0  0  0  0  0  0  0  0
   19.2861   -7.6726    8.4003 C   0  0  0  0  0  0  0  0  0  0  0  0
   18.4435   -8.2942    9.3175 C   0  0  0  0  0  0  0  0  0  0  0  0
   18.4630   -8.1928   10.9913 S   0  0  0  0  0  0  0  0  0  0  0  0
 15 16  1  0  0  0
 16 12  1  0  0  0
 12 13  2  0  0  0
 12 14  2  0  0  0
 12  6  1  0  0  0
  6  7  2  0  0  0
  7  8  1  0  0  0
  8  9  2  0  0  0
  9 10  1  0  0  0
  9  1  1  0  0  0
 10 11  2  0  0  0
 11  6  1  0  0  0
  1  2  2  0  0  0
  2  3  1  0  0  0
  3  4  2  0  0  0
  4  5  1  0  0  0
  5 18  1  0  0  0
  5  1  1  0  0  0
 18 19  1  0  0  0
 19 20  2  0  0  0
 20 21  1  0  0  0
 21 22  2  0  0  0
 22 23  1  0  0  0
 23 24  2  0  0  0
 24 25  1  0  0  0
 25 26  2  0  0  0
 26 27  1  0  0  0
 26 21  1  0  0  0
 27 19  1  0  0  0
 16 17  1  0  0  0
M  END
>  <minimizedAffinity>
-4.02601

>  <minimizedRMSD>
2.27574

$$$$
CSC028047270 CSSS00028047270 MCULE-7336135149 MolPort-004-268-925 PubChem-3292266 Z46357883


 31 34  0  0  0  0  0  0  0  0999 V2000
   16.1316   -9.7078   14.8200 N   0  0  0  0  0  0  0  0  0  0  0  0
   17.3461   -9.8970   14.0784 C   0  0  0  0  0  0  0  0  0  0  0  0
   18.4631   -9.5627   14.5561 O   0  0  0  0  0  0  0  0  0  0  0  0
   15.3054  -10.0552   14.4127 H   0  0  0  0  0  0  0  0  0  0  0  0
   14.5920   -7.8923   17.6913 C   0  0  0  0  0  0  0  0  0  0  0  0
   15.6725   -7.7994   18.5774 C   0  0  0  0  0  0  0  0  0  0  0  0
   16.9161   -8.3341   18.2267 C   0  0  0  0  0  0  0  0  0  0  0  0
   17.0785   -8.9652   16.9897 C   0  0  0  0  0  0  0  0  0  0  0  0
   16.0009   -9.0635   16.0944 C   0  0  0  0  0  0  0  0  0  0  0  0
   14.7621   -8.5188   16.4513 C   0  0  0  0  0  0  0  0  0  0  0  0
   12.3272   -8.1511   19.4046 N   0  0  0  0  0  0  0  0  0  0  0  0
   13.0275   -7.2241   18.1261 S   0  0  0  0  0  0  0  0  0  0  0  0
   13.1942   -5.7998   18.5754 O   0  0  0  0  0  0  0  0  0  0  0  0
   12.1120   -7.2727   16.9326 O   0  0  0  0  0  0  0  0  0  0  0  0
   11.4193   -7.7577   19.6520 H   0  0  0  0  0  0  0  0  0  0  0  0
   12.9416   -8.1264   20.2185 H   0  0  0  0  0  0  0  0  0  0  0  0
   17.2878  -10.4926   12.7123 C   0  0  0  0  0  0  0  0  0  0  0  0
   16.4289   -9.6916   11.8520 N   0  0  0  0  0  0  0  0  0  0  0  0
   15.0940   -9.7361   12.4299 C   0  0  0  0  0  0  0  0  0  0  0  0
   14.1092   -9.7858   11.2872 C   0  0  0  0  0  0  0  0  0  0  0  0
   14.8669  -10.4361   10.1585 C   0  0  0  0  0  0  0  0  0  0  0  0
   16.3288  -10.3726   10.5625 C   0  0  0  0  0  0  0  0  0  0  0  0
   17.1281   -9.6430    9.5322 C   0  0  0  0  0  0  0  0  0  0  0  0
   16.9933   -9.8360    8.1951 N   0  0  0  0  0  0  0  0  0  0  0  0
   17.8444   -9.0342    7.5045 C   0  0  0  0  0  0  0  0  0  0  0  0
   17.9387   -9.0003    6.1122 C   0  0  0  0  0  0  0  0  0  0  0  0
   18.8607   -8.1170    5.5214 C   0  0  0  0  0  0  0  0  0  0  0  0
   19.6702   -7.2865    6.3220 C   0  0  0  0  0  0  0  0  0  0  0  0
   19.5666   -7.3269    7.7227 C   0  0  0  0  0  0  0  0  0  0  0  0
   18.6428   -8.2084    8.2815 C   0  0  0  0  0  0  0  0  0  0  0  0
   18.2956   -8.4725    9.9017 S   0  0  0  0  0  0  0  0  0  0  0  0
 11 12  1  0  0  0
 12 13  2  0  0  0
 12 14  2  0  0  0
 12  5  1  0  0  0
  5  6  2  0  0  0
  6  7  1  0  0  0
  7  8  2  0  0  0
  8  9  1  0  0  0
  9  1  1  0  0  0
  9 10  2  0  0  0
  1  2  1  0  0  0
  2  3  2  0  0  0
  2 17  1  0  0  0
 17 18  1  0  0  0
 18 19  1  0  0  0
 19 20  1  0  0  0
 20 21  1  0  0  0
 21 22  1  0  0  0
 22 23  1  0  0  0
 22 18  1  0  0  0
 23 24  2  0  0  0
 24 25  1  0  0  0
 25 26  2  0  0  0
 26 27  1  0  0  0
 27 28  2  0  0  0
 28 29  1  0  0  0
 29 30  2  0  0  0
 30 31  1  0  0  0
 30 25  1  0  0  0
 31 23  1  0  0  0
 10  5  1  0  0  0
 11 15  1  0  0  0
 11 16  1  0  0  0
  1  4  1  0  0  0
M  END
>  <minimizedAffinity>
-4.01905

>  <minimizedRMSD>
3.40282

$$$$
CSC025982026 CSSS00025982026 MCULE-4143245709 MolPort-009-337-030 PubChem-45912676 Z595857452


 32 35  0  0  0  0  0  0  0  0999 V2000
   17.1706   -8.9635   13.5971 C   0  0  0  0  0  0  0  0  0  0  0  0
   16.4044   -8.0826   13.1217 O   0  0  0  0  0  0  0  0  0  0  0  0
   17.3195   -9.0970   15.0180 N   0  0  0  0  0  0  0  0  0  0  0  0
   18.3446   -9.9704   15.5859 C   0  0  0  0  0  0  0  0  0  0  0  0
   17.7562  -10.7756   16.7402 C   0  0  0  0  0  0  0  0  0  0  0  0
   17.1061   -9.8391   17.7540 C   0  0  0  0  0  0  0  0  0  0  0  0
   16.0065   -9.0127   17.0809 C   0  0  0  0  0  0  0  0  0  0  0  0
   16.5908   -8.2084   15.9203 C   0  0  0  0  0  0  0  0  0  0  0  0
   15.3063   -8.0976   18.0410 C   0  0  0  0  0  0  0  0  0  0  0  0
   14.5659   -7.1861   17.5832 O   0  0  0  0  0  0  0  0  0  0  0  0
   15.4704   -8.2580   19.4571 N   0  0  0  0  0  0  0  0  0  0  0  0
   16.0543   -8.9875   19.7673 H   0  0  0  0  0  0  0  0  0  0  0  0
   14.8506   -7.4393   20.4531 C   0  0  0  0  0  0  0  0  0  0  0  0
   13.5261   -7.1986   20.5294 N   0  0  0  0  0  0  0  0  0  0  0  0
   13.2017   -6.4033   21.5481 N   0  0  0  0  0  0  0  0  0  0  0  0
   14.2556   -5.9983   22.2971 C   0  0  0  0  0  0  0  0  0  0  0  0
   15.6823   -6.6532   21.6773 S   0  0  0  0  0  0  0  0  0  0  0  0
   17.9043   -9.8726   12.6587 C   0  0  0  0  0  0  0  0  0  0  0  0
   15.6848   -9.9954    9.6801 N   0  0  0  0  0  0  0  0  0  0  0  0
   16.1684  -10.1558   10.9523 C   0  0  0  0  0  0  0  0  0  0  0  0
   15.4557  -10.7280   11.8254 O   0  0  0  0  0  0  0  0  0  0  0  0
   17.4169   -9.6998   11.2854 N   0  0  0  0  0  0  0  0  0  0  0  0
   18.1975   -9.0765   10.3482 C   0  0  0  0  0  0  0  0  0  0  0  0
   19.4879   -8.6114   10.6645 C   0  0  0  0  0  0  0  0  0  0  0  0
   20.2723   -7.9733    9.7013 C   0  0  0  0  0  0  0  0  0  0  0  0
   19.7798   -7.7911    8.4083 C   0  0  0  0  0  0  0  0  0  0  0  0
   18.5031   -8.2483    8.0769 C   0  0  0  0  0  0  0  0  0  0  0  0
   17.7087   -8.8917    9.0386 C   0  0  0  0  0  0  0  0  0  0  0  0
   16.4297   -9.3614    8.7265 C   0  0  0  0  0  0  0  0  0  0  0  0
   15.9680   -9.2026    7.5607 O   0  0  0  0  0  0  0  0  0  0  0  0
   13.3349  -10.0158   10.3802 C   0  0  0  0  0  0  0  0  0  0  0  0
   14.3422  -10.4713    9.3384 C   0  0  0  0  0  0  0  0  0  0  0  0
 31 32  1  0  0  0
 32 19  1  0  0  0
 19 20  1  0  0  0
 20 21  2  0  0  0
 20 22  1  0  0  0
 22 18  1  0  0  0
 22 23  1  0  0  0
 18  1  1  0  0  0
  1  2  2  0  0  0
  1  3  1  0  0  0
  3  4  1  0  0  0
  4  5  1  0  0  0
  5  6  1  0  0  0
  6  7  1  0  0  0
  7  8  1  0  0  0
  7  9  1  0  0  0
  8  3  1  0  0  0
  9 10  2  0  0  0
  9 11  1  0  0  0
 11 13  1  0  0  0
 13 14  2  0  0  0
 14 15  1  0  0  0
 15 16  2  0  0  0
 16 17  1  0  0  0
 17 13  1  0  0  0
 23 24  2  0  0  0
 24 25  1  0  0  0
 25 26  2  0  0  0
 26 27  1  0  0  0
 27 28  2  0  0  0
 28 29  1  0  0  0
 28 23  1  0  0  0
 29 30  2  0  0  0
 29 19  1  0  0  0
 11 12  1  0  0  0
M  END
>  <minimizedAffinity>
-4.00602

>  <minimizedRMSD>
1.62391

$$$$
CSC028133953 22558335 CSSS00028133953 MCULE-5812552327 MolPort-007-227-469 PubChem-30424154 Z82181072 ZINC000022558335 ZINC22558335


 36 39  0  0  0  0  0  0  0  0999 V2000
   16.1455   -9.1826   15.8243 C   0  0  0  0  0  0  0  0  0  0  0  0
   15.0528   -8.3277   15.9878 C   0  0  0  0  0  0  0  0  0  0  0  0
   14.7329   -7.7930   17.2449 C   0  0  0  0  0  0  0  0  0  0  0  0
   15.5149   -8.1290   18.3592 C   0  0  0  0  0  0  0  0  0  0  0  0
   16.5886   -9.0157   18.2029 C   0  0  0  0  0  0  0  0  0  0  0  0
   16.9070   -9.5587   16.9488 C   0  0  0  0  0  0  0  0  0  0  0  0
   17.6829   -9.7320   13.8667 C   0  0  0  0  0  0  0  0  0  0  0  0
   18.6232   -9.0030   14.2799 O   0  0  0  0  0  0  0  0  0  0  0  0
   16.4051   -9.7066   14.5164 N   0  0  0  0  0  0  0  0  0  0  0  0
   15.6409  -10.0812   14.0216 H   0  0  0  0  0  0  0  0  0  0  0  0
   17.9105  -10.5938   12.6634 C   0  0  0  0  0  0  0  0  0  0  0  0
   16.1936   -9.8430   10.9629 C   0  0  0  0  0  0  0  0  0  0  0  0
   16.0969   -9.0927    9.8325 N   0  0  0  0  0  0  0  0  0  0  0  0
   17.3691   -8.7039    9.6218 C   0  0  0  0  0  0  0  0  0  0  0  0
   17.8494   -7.8930    8.5967 C   0  0  0  0  0  0  0  0  0  0  0  0
   19.2271   -7.6035    8.5908 C   0  0  0  0  0  0  0  0  0  0  0  0
   20.0756   -8.1204    9.5961 C   0  0  0  0  0  0  0  0  0  0  0  0
   19.5586   -8.9353   10.6201 C   0  0  0  0  0  0  0  0  0  0  0  0
   18.1911   -9.2042   10.5902 C   0  0  0  0  0  0  0  0  0  0  0  0
   17.4599   -9.9357   11.4409 N   0  0  0  0  0  0  0  0  0  0  0  0
   13.7565  -10.1959   10.8206 C   0  0  0  0  0  0  0  0  0  0  0  0
   15.0157  -10.4919   11.6113 C   0  0  0  0  0  0  0  0  0  0  0  0
   15.1826   -7.5728   19.6407 N   0  0  0  0  0  0  0  0  0  0  0  0
   16.0742   -6.9191   20.5571 C   0  0  0  0  0  0  0  0  0  0  0  0
   17.2905   -6.7576   20.2651 O   0  0  0  0  0  0  0  0  0  0  0  0
   14.2419   -7.6478   19.9213 H   0  0  0  0  0  0  0  0  0  0  0  0
   15.5616   -6.4283   21.8484 C   0  0  0  0  0  0  0  0  0  0  0  0
   16.3350   -6.5499   23.0127 C   0  0  0  0  0  0  0  0  0  0  0  0
   15.8478   -6.0827   24.2370 C   0  0  0  0  0  0  0  0  0  0  0  0
   14.5841   -5.4904   24.3062 C   0  0  0  0  0  0  0  0  0  0  0  0
   13.8071   -5.3653   23.1516 C   0  0  0  0  0  0  0  0  0  0  0  0
   14.2942   -5.8324   21.9272 C   0  0  0  0  0  0  0  0  0  0  0  0
   13.6451   -6.9271   17.4060 O   0  0  0  0  0  0  0  0  0  0  0  0
   12.4028   -7.3454   17.9550 C   0  0  0  0  0  0  0  0  0  0  0  0
   17.9439  -10.4894   16.8166 O   0  0  0  0  0  0  0  0  0  0  0  0
   17.7268  -11.8938   16.8304 C   0  0  0  0  0  0  0  0  0  0  0  0
 21 22  1  0  0  0
 22 12  1  0  0  0
 12 13  2  0  0  0
 13 14  1  0  0  0
 14 15  2  0  0  0
 15 16  1  0  0  0
 16 17  2  0  0  0
 17 18  1  0  0  0
 18 19  2  0  0  0
 19 20  1  0  0  0
 19 14  1  0  0  0
 20 11  1  0  0  0
 20 12  1  0  0  0
 11  7  1  0  0  0
  7  8  2  0  0  0
  7  9  1  0  0  0
  9  1  1  0  0  0
  1  2  2  0  0  0
  2  3  1  0  0  0
  3 33  1  0  0  0
  3  4  2  0  0  0
 33 34  1  0  0  0
  4 23  1  0  0  0
  4  5  1  0  0  0
 23 24  1  0  0  0
 24 25  2  0  0  0
 24 27  1  0  0  0
 27 28  2  0  0  0
 28 29  1  0  0  0
 29 30  2  0  0  0
 30 31  1  0  0  0
 31 32  2  0  0  0
 32 27  1  0  0  0
  5  6  2  0  0  0
  6 35  1  0  0  0
  6  1  1  0  0  0
 35 36  1  0  0  0
  9 10  1  0  0  0
 23 26  1  0  0  0
M  END
>  <minimizedAffinity>
-3.99774

>  <minimizedRMSD>
2.89463

$$$$
CSC026594064 30983933 CSSS00026594064 MCULE-5015685414 MolPort-009-466-604 PubChem-38153745 Z243132142 ZINC000030983933 ZINC30983933


 33 36  0  0  0  0  0  0  0  0999 V2000
   16.2151  -10.3173   13.2569 N   0  0  0  0  0  0  0  0  0  0  0  0
   15.6227   -9.3755   12.3565 C   0  0  0  0  0  0  0  0  0  0  0  0
   15.3918   -8.1903   12.7155 O   0  0  0  0  0  0  0  0  0  0  0  0
   16.3139  -11.2463   12.9463 H   0  0  0  0  0  0  0  0  0  0  0  0
   16.6620   -9.1337   16.6388 C   0  0  0  0  0  0  0  0  0  0  0  0
   17.9325   -9.7166   16.6748 C   0  0  0  0  0  0  0  0  0  0  0  0
   18.1691  -10.4539   15.1774 S   0  0  0  0  0  0  0  0  0  0  0  0
   16.6738  -10.0062   14.5754 C   0  0  0  0  0  0  0  0  0  0  0  0
   15.9696   -9.2936   15.4771 N   0  0  0  0  0  0  0  0  0  0  0  0
   14.7906   -7.2070   19.0494 C   0  0  0  0  0  0  0  0  0  0  0  0
   14.8668   -7.7643   17.7867 C   0  0  0  0  0  0  0  0  0  0  0  0
   16.0982   -8.3876   17.7725 C   0  0  0  0  0  0  0  0  0  0  0  0
   16.7070   -8.1893   18.9962 C   0  0  0  0  0  0  0  0  0  0  0  0
   15.8938   -7.4589   19.7813 N   0  0  0  0  0  0  0  0  0  0  0  0
   16.0696   -7.1672   20.7050 H   0  0  0  0  0  0  0  0  0  0  0  0
   13.1195   -6.6967   20.8454 N   0  0  0  0  0  0  0  0  0  0  0  0
   13.6527   -6.4285   19.5530 C   0  0  0  0  0  0  0  0  0  0  0  0
   13.1418   -5.5196   18.8467 O   0  0  0  0  0  0  0  0  0  0  0  0
   12.3562   -6.1734   21.1813 H   0  0  0  0  0  0  0  0  0  0  0  0
   13.5140   -7.4055   21.4033 H   0  0  0  0  0  0  0  0  0  0  0  0
   15.3079   -9.7914   10.9605 C   0  0  0  0  0  0  0  0  0  0  0  0
   16.4441  -10.6272   10.3807 C   0  0  0  0  0  0  0  0  0  0  0  0
   17.0035   -9.9987    9.1866 N   0  0  0  0  0  0  0  0  0  0  0  0
   16.4447  -10.2767    7.9754 C   0  0  0  0  0  0  0  0  0  0  0  0
   16.9382   -9.7168    6.8409 N   0  0  0  0  0  0  0  0  0  0  0  0
   17.9980   -8.8722    6.8855 C   0  0  0  0  0  0  0  0  0  0  0  0
   18.4903   -8.3021    5.7079 C   0  0  0  0  0  0  0  0  0  0  0  0
   19.5838   -7.4320    5.7562 C   0  0  0  0  0  0  0  0  0  0  0  0
   20.1876   -7.1301    6.9808 C   0  0  0  0  0  0  0  0  0  0  0  0
   19.7001   -7.6971    8.1623 C   0  0  0  0  0  0  0  0  0  0  0  0
   18.6036   -8.5707    8.1215 C   0  0  0  0  0  0  0  0  0  0  0  0
   18.0809   -9.1612    9.2805 C   0  0  0  0  0  0  0  0  0  0  0  0
   18.5999   -8.9154   10.4057 O   0  0  0  0  0  0  0  0  0  0  0  0
 16 17  1  0  0  0
 17 18  2  0  0  0
 17 10  1  0  0  0
 10 11  2  0  0  0
 11 12  1  0  0  0
 12 13  2  0  0  0
 12  5  1  0  0  0
 13 14  1  0  0  0
 14 10  1  0  0  0
  5  6  2  0  0  0
  6  7  1  0  0  0
  7  8  1  0  0  0
  8  1  1  0  0  0
  8  9  2  0  0  0
  1  2  1  0  0  0
  2  3  2  0  0  0
  2 21  1  0  0  0
 21 22  1  0  0  0
 22 23  1  0  0  0
 23 24  1  0  0  0
 24 25  2  0  0  0
 25 26  1  0  0  0
 26 27  2  0  0  0
 27 28  1  0  0  0
 28 29  2  0  0  0
 29 30  1  0  0  0
 30 31  2  0  0  0
 31 32  1  0  0  0
 31 26  1  0  0  0
 32 33  2  0  0  0
 32 23  1  0  0  0
  9  5  1  0  0  0
 16 19  1  0  0  0
 16 20  1  0  0  0
 14 15  1  0  0  0
  1  4  1  0  0  0
M  END
>  <minimizedAffinity>
-3.96398

>  <minimizedRMSD>
3.47330

$$$$
CSC027289051 95461673 CSSS00027289051 MCULE-8472743573 MolPort-028-789-604 PubChem-75443773 Z1591822500 ZINC000095461673 ZINC95461673


 25 25  0  0  0  0  0  0  0  0999 V2000
   16.6809  -10.0595   11.5058 S   0  0  0  0  0  0  0  0  0  0  0  0
   17.3763  -11.0850   12.3571 O   0  0  0  0  0  0  0  0  0  0  0  0
   15.6221  -10.7430   10.6859 O   0  0  0  0  0  0  0  0  0  0  0  0
   19.5838   -8.9974   12.2336 C   0  0  0  0  0  0  0  0  0  0  0  0
   19.0844   -8.7858   10.8459 C   0  0  0  0  0  0  0  0  0  0  0  0
   19.9458   -8.1409    9.9621 C   0  0  0  0  0  0  0  0  0  0  0  0
   19.5720   -7.9210    8.6426 C   0  0  0  0  0  0  0  0  0  0  0  0
   18.3276   -8.3468    8.1670 C   0  0  0  0  0  0  0  0  0  0  0  0
   17.4483   -9.0249    9.0481 C   0  0  0  0  0  0  0  0  0  0  0  0
   16.1620   -9.5907    8.5300 C   0  0  0  0  0  0  0  0  0  0  0  0
   17.8129   -9.2281   10.4055 C   0  0  0  0  0  0  0  0  0  0  0  0
   17.9910   -8.0874    6.7898 N   0  0  0  0  0  0  0  0  0  0  0  0
   17.0861   -7.1080    6.4505 O   0  0  0  0  0  0  0  0  0  0  0  0
   18.6291   -8.6509    5.8762 O   0  0  0  0  0  0  0  0  0  0  0  0
   15.9504   -8.8900   12.5549 N   0  0  0  0  0  0  0  0  0  0  0  0
   14.9507   -8.8276   12.3625 H   0  0  0  0  0  0  0  0  0  0  0  0
   16.1640   -9.3274   13.9236 C   0  0  0  0  0  0  0  0  0  0  0  0
   16.6721   -8.1657   14.7495 C   0  0  0  0  0  0  0  0  0  0  0  0
   17.1414   -8.6736   16.0996 C   0  0  0  0  0  0  0  0  0  0  0  0
   15.9594   -9.1443   16.9324 C   0  0  0  0  0  0  0  0  0  0  0  0
   15.3725   -8.0225   17.7232 C   0  0  0  0  0  0  0  0  0  0  0  0
   15.8790   -7.7337   19.0205 N   0  0  0  0  0  0  0  0  0  0  0  0
   14.4190   -7.3444   17.2584 O   0  0  0  0  0  0  0  0  0  0  0  0
   16.6245   -8.2621   19.3868 H   0  0  0  0  0  0  0  0  0  0  0  0
   15.4840   -7.0053   19.5522 H   0  0  0  0  0  0  0  0  0  0  0  0
  4  5  1  0  0  0
  5  6  2  0  0  0
  6  7  1  0  0  0
  7  8  2  0  0  0
  8  9  1  0  0  0
  8 12  1  0  0  0
  9 10  1  0  0  0
  9 11  2  0  0  0
 11  1  1  0  0  0
 11  5  1  0  0  0
  1  2  2  0  0  0
  1  3  2  0  0  0
  1 15  1  0  0  0
 15 17  1  0  0  0
 17 18  1  0  0  0
 18 19  1  0  0  0
 19 20  1  0  0  0
 20 21  1  0  0  0
 21 22  1  0  0  0
 21 23  2  0  0  0
 12 13  1  0  0  0
 12 14  2  0  0  0
 15 16  1  0  0  0
 22 24  1  0  0  0
 22 25  1  0  0  0
M  CHG 1  12   1
M  CHG 1  13  -1
M  END
>  <minimizedAffinity>
-3.94909

>  <minimizedRMSD>
2.32018

$$$$
1875301436 CSSS00160458962 MCULE-5016235391 MolPort-046-817-596 PubChem-145899770 Z3709602961


 33 36  0  0  0  0  0  0  0  0999 V2000
   15.2775  -10.9821    7.9151 C   0  0  0  0  0  0  0  0  0  0  0  0
   16.3644  -10.1655    8.5146 C   0  0  0  0  0  0  0  0  0  0  0  0
   17.2453   -9.5065    7.7027 N   0  0  0  0  0  0  0  0  0  0  0  0
   18.2243   -8.7710    8.2855 C   0  0  0  0  0  0  0  0  0  0  0  0
   18.3527   -8.6718    9.6305 C   0  0  0  0  0  0  0  0  0  0  0  0
   19.4417   -7.8544    9.8603 C   0  0  0  0  0  0  0  0  0  0  0  0
   19.9266   -7.4935    8.6420 N   0  0  0  0  0  0  0  0  0  0  0  0
   19.1868   -8.0503    7.6856 N   0  0  0  0  0  0  0  0  0  0  0  0
   17.4653   -9.3354   10.4651 C   0  0  0  0  0  0  0  0  0  0  0  0
   16.4774  -10.0778    9.8790 N   0  0  0  0  0  0  0  0  0  0  0  0
   19.4281   -7.8725    6.2783 C   0  0  0  0  0  0  0  0  0  0  0  0
   18.5592   -8.4155    5.3183 C   0  0  0  0  0  0  0  0  0  0  0  0
   18.8057   -8.2349    3.9545 C   0  0  0  0  0  0  0  0  0  0  0  0
   17.9602   -8.7636    3.0380 F   0  0  0  0  0  0  0  0  0  0  0  0
   19.9239   -7.5093    3.5368 C   0  0  0  0  0  0  0  0  0  0  0  0
   20.7955   -6.9643    4.4831 C   0  0  0  0  0  0  0  0  0  0  0  0
   20.5483   -7.1453    5.8470 C   0  0  0  0  0  0  0  0  0  0  0  0
   17.5828   -9.2445   11.8852 N   0  0  0  0  0  0  0  0  0  0  0  0
   18.2653   -8.6489   12.2706 H   0  0  0  0  0  0  0  0  0  0  0  0
   16.7248  -10.0050   12.7792 C   0  0  0  0  0  0  0  0  0  0  0  0
   17.0958   -9.7206   14.1941 C   0  0  0  0  0  0  0  0  0  0  0  0
   18.4063   -9.9329   14.6488 C   0  0  0  0  0  0  0  0  0  0  0  0
   19.3562  -10.4245   13.8147 F   0  0  0  0  0  0  0  0  0  0  0  0
   18.7412   -9.6354   15.9733 C   0  0  0  0  0  0  0  0  0  0  0  0
   17.7746   -9.1233   16.8432 C   0  0  0  0  0  0  0  0  0  0  0  0
   16.4684   -8.9070   16.3920 C   0  0  0  0  0  0  0  0  0  0  0  0
   16.1332   -9.2006   15.0660 C   0  0  0  0  0  0  0  0  0  0  0  0
   15.2596   -8.2489   17.4788 S   0  0  0  0  0  0  0  0  0  0  0  0
   16.0228   -7.6593   18.9124 N   0  0  0  0  0  0  0  0  0  0  0  0
   14.5315   -7.1238   16.7997 O   0  0  0  0  0  0  0  0  0  0  0  0
   14.2808   -9.3245   17.8581 O   0  0  0  0  0  0  0  0  0  0  0  0
   16.6899   -6.9280   18.6663 H   0  0  0  0  0  0  0  0  0  0  0  0
   16.5127   -8.4244   19.3761 H   0  0  0  0  0  0  0  0  0  0  0  0
  1  2  1  0  0  0
  2  3  2  0  0  0
  3  4  1  0  0  0
  4  5  2  0  0  0
  5  6  1  0  0  0
  6  7  2  0  0  0
  7  8  1  0  0  0
  8 11  1  0  0  0
 11 12  2  0  0  0
 12 13  1  0  0  0
 13 14  1  0  0  0
 13 15  2  0  0  0
 15 16  1  0  0  0
 16 17  2  0  0  0
  5  9  1  0  0  0
  9 18  1  0  0  0
 18 20  1  0  0  0
 20 21  1  0  0  0
 21 22  2  0  0  0
 22 23  1  0  0  0
 22 24  1  0  0  0
 24 25  2  0  0  0
 25 26  1  0  0  0
 26 28  1  0  0  0
 28 29  1  0  0  0
 28 30  2  0  0  0
 28 31  2  0  0  0
 26 27  2  0  0  0
  9 10  2  0  0  0
 10  2  1  0  0  0
  8  4  1  0  0  0
 17 11  1  0  0  0
 27 21  1  0  0  0
 18 19  1  0  0  0
 29 32  1  0  0  0
 29 33  1  0  0  0
M  END
>  <minimizedAffinity>
-3.94069

>  <minimizedRMSD>
1.16197

$$$$
CSC027412394 24926691 CSSS00027412394 MCULE-6746776702 MolPort-005-744-298 PubChem-32235331 Z284001284 ZINC000024926691 ZINC24926691


 33 35  0  0  0  0  0  0  0  0999 V2000
   16.5405   -9.5777   11.8086 C   0  0  0  0  0  0  0  0  0  0  0  0
   15.4964  -10.2765   11.9226 O   0  0  0  0  0  0  0  0  0  0  0  0
   17.2038   -9.0773   12.9770 N   0  0  0  0  0  0  0  0  0  0  0  0
   17.8670   -8.3613   12.8477 H   0  0  0  0  0  0  0  0  0  0  0  0
   18.4426   -8.2873    6.6652 N   0  0  0  0  0  0  0  0  0  0  0  0
   19.6983   -7.7633    6.5021 C   0  0  0  0  0  0  0  0  0  0  0  0
   20.1220   -7.4566    5.3549 O   0  0  0  0  0  0  0  0  0  0  0  0
   20.5031   -7.5637    7.5787 N   0  0  0  0  0  0  0  0  0  0  0  0
   20.0953   -7.8646    8.8365 C   0  0  0  0  0  0  0  0  0  0  0  0
   20.8742   -7.6654    9.8072 O   0  0  0  0  0  0  0  0  0  0  0  0
   18.8159   -8.3886    9.0388 C   0  0  0  0  0  0  0  0  0  0  0  0
   18.3389   -8.7119   10.3133 C   0  0  0  0  0  0  0  0  0  0  0  0
   17.0506   -9.2324   10.4709 C   0  0  0  0  0  0  0  0  0  0  0  0
   16.2574   -9.4216    9.3327 C   0  0  0  0  0  0  0  0  0  0  0  0
   16.7343   -9.1035    8.0995 N   0  0  0  0  0  0  0  0  0  0  0  0
   17.9863   -8.5936    7.9186 C   0  0  0  0  0  0  0  0  0  0  0  0
   21.4043   -7.1916    7.4421 H   0  0  0  0  0  0  0  0  0  0  0  0
   17.5704   -8.4891    5.5070 C   0  0  0  0  0  0  0  0  0  0  0  0
   18.2729   -8.1368    3.1597 C   0  0  0  0  0  0  0  0  0  0  0  0
   18.3559   -9.0733    4.3459 C   0  0  0  0  0  0  0  0  0  0  0  0
   16.9815   -9.5330   14.3176 C   0  0  0  0  0  0  0  0  0  0  0  0
   16.5387   -8.6053   15.2659 C   0  0  0  0  0  0  0  0  0  0  0  0
   16.3139   -8.9842   16.5962 C   0  0  0  0  0  0  0  0  0  0  0  0
   16.5496  -10.3063   16.9778 C   0  0  0  0  0  0  0  0  0  0  0  0
   17.0201  -11.2356   16.0486 C   0  0  0  0  0  0  0  0  0  0  0  0
   17.2543  -10.8590   14.7161 C   0  0  0  0  0  0  0  0  0  0  0  0
   15.8459   -8.0538   17.5822 N   0  0  0  0  0  0  0  0  0  0  0  0
   14.4817   -7.7142   17.8606 C   0  0  0  0  0  0  0  0  0  0  0  0
   14.1823   -6.7224   18.9256 C   0  0  0  0  0  0  0  0  0  0  0  0
   13.5321   -8.2390   17.2214 O   0  0  0  0  0  0  0  0  0  0  0  0
   16.5326   -7.6017   18.1237 H   0  0  0  0  0  0  0  0  0  0  0  0
   17.7828  -11.7738   13.7980 O   0  0  0  0  0  0  0  0  0  0  0  0
   18.3867  -12.9994   14.1893 C   0  0  0  0  0  0  0  0  0  0  0  0
 19 20  1  0  0  0
 20 18  1  0  0  0
 18  5  1  0  0  0
  5  6  1  0  0  0
  6  7  2  0  0  0
  6  8  1  0  0  0
  8  9  1  0  0  0
  9 10  2  0  0  0
  9 11  1  0  0  0
 11 12  2  0  0  0
 12 13  1  0  0  0
 13 14  2  0  0  0
 13  1  1  0  0  0
 14 15  1  0  0  0
 15 16  2  0  0  0
 16  5  1  0  0  0
 16 11  1  0  0  0
  1  2  2  0  0  0
  1  3  1  0  0  0
  3 21  1  0  0  0
 21 22  2  0  0  0
 22 23  1  0  0  0
 23 27  1  0  0  0
 23 24  2  0  0  0
 27 28  1  0  0  0
 28 29  1  0  0  0
 28 30  2  0  0  0
 24 25  1  0  0  0
 25 26  2  0  0  0
 26 32  1  0  0  0
 26 21  1  0  0  0
 32 33  1  0  0  0
  8 17  1  0  0  0
  3  4  1  0  0  0
 27 31  1  0  0  0
M  END
>  <minimizedAffinity>
-3.93923

>  <minimizedRMSD>
1.27323

$$$$
CSC028131571 48253249 CSSS00028131571 MCULE-9976631647 MolPort-009-093-996 PubChem-47068412 Z780082184 ZINC000048253249 ZINC48253249


 30 32  0  0  0  0  0  0  0  0999 V2000
   16.5346  -10.3364   13.9953 N   0  0  0  0  0  0  0  0  0  0  0  0
   15.8441   -9.7368   12.8915 C   0  0  0  0  0  0  0  0  0  0  0  0
   15.5132   -8.5218   12.9079 O   0  0  0  0  0  0  0  0  0  0  0  0
   16.7593  -11.2909   13.9074 H   0  0  0  0  0  0  0  0  0  0  0  0
   16.3879   -8.5484   17.2945 C   0  0  0  0  0  0  0  0  0  0  0  0
   17.7482   -8.4364   17.5921 C   0  0  0  0  0  0  0  0  0  0  0  0
   18.7015   -8.9509   16.7107 C   0  0  0  0  0  0  0  0  0  0  0  0
   18.3013   -9.5782   15.5267 C   0  0  0  0  0  0  0  0  0  0  0  0
   19.3467  -10.1138   14.6090 C   0  0  0  0  0  0  0  0  0  0  0  0
   16.9338   -9.6929   15.2161 C   0  0  0  0  0  0  0  0  0  0  0  0
   15.9855   -9.1714   16.1096 C   0  0  0  0  0  0  0  0  0  0  0  0
   15.1903   -7.8928   18.3948 S   0  0  0  0  0  0  0  0  0  0  0  0
   14.3023   -6.9364   17.6486 O   0  0  0  0  0  0  0  0  0  0  0  0
   14.3616   -9.0141   18.9586 O   0  0  0  0  0  0  0  0  0  0  0  0
   15.2417   -7.3222   20.9079 C   0  0  0  0  0  0  0  0  0  0  0  0
   15.9923   -7.0683   19.6900 N   0  0  0  0  0  0  0  0  0  0  0  0
   16.9445   -7.4205   19.7891 H   0  0  0  0  0  0  0  0  0  0  0  0
   15.5457  -10.5590   11.6839 C   0  0  0  0  0  0  0  0  0  0  0  0
   16.1691   -9.9703   10.5039 N   0  0  0  0  0  0  0  0  0  0  0  0
   15.4319   -9.8770    9.3629 C   0  0  0  0  0  0  0  0  0  0  0  0
   15.9604   -9.3233    8.2411 N   0  0  0  0  0  0  0  0  0  0  0  0
   17.2309   -8.8492    8.2310 C   0  0  0  0  0  0  0  0  0  0  0  0
   17.7579   -8.2811    7.0677 C   0  0  0  0  0  0  0  0  0  0  0  0
   19.0680   -7.7926    7.0596 C   0  0  0  0  0  0  0  0  0  0  0  0
   19.8540   -7.8705    8.2138 C   0  0  0  0  0  0  0  0  0  0  0  0
   21.1223   -7.3957    8.2016 F   0  0  0  0  0  0  0  0  0  0  0  0
   19.3325   -8.4376    9.3806 C   0  0  0  0  0  0  0  0  0  0  0  0
   18.0195   -8.9300    9.3960 C   0  0  0  0  0  0  0  0  0  0  0  0
   17.4556   -9.5065   10.5428 C   0  0  0  0  0  0  0  0  0  0  0  0
   18.1336   -9.5973   11.6048 O   0  0  0  0  0  0  0  0  0  0  0  0
 15 16  1  0  0  0
 16 12  1  0  0  0
 12 13  2  0  0  0
 12 14  2  0  0  0
 12  5  1  0  0  0
  5  6  2  0  0  0
  6  7  1  0  0  0
  7  8  2  0  0  0
  8  9  1  0  0  0
  8 10  1  0  0  0
 10  1  1  0  0  0
 10 11  2  0  0  0
  1  2  1  0  0  0
  2  3  2  0  0  0
  2 18  1  0  0  0
 18 19  1  0  0  0
 19 20  1  0  0  0
 20 21  2  0  0  0
 21 22  1  0  0  0
 22 23  2  0  0  0
 23 24  1  0  0  0
 24 25  2  0  0  0
 25 26  1  0  0  0
 25 27  1  0  0  0
 27 28  2  0  0  0
 28 29  1  0  0  0
 28 22  1  0  0  0
 29 30  2  0  0  0
 29 19  1  0  0  0
 11  5  1  0  0  0
 16 17  1  0  0  0
  1  4  1  0  0  0
M  END
>  <minimizedAffinity>
-3.93912

>  <minimizedRMSD>
1.57016

$$$$
CSSS06741664648 PubChem-166431505 Z6563307695


 39 43  0  0  0  0  0  0  0  0999 V2000
   16.4864   -8.7917   17.5513 C   0  0  0  0  0  0  0  0  0  0  0  0
   17.2533   -8.1529   16.5709 C   0  0  0  0  0  0  0  0  0  0  0  0
   18.0872   -8.9015   15.7355 C   0  0  0  0  0  0  0  0  0  0  0  0
   18.1581  -10.2916   15.8798 C   0  0  0  0  0  0  0  0  0  0  0  0
   17.3886  -10.9310   16.8574 C   0  0  0  0  0  0  0  0  0  0  0  0
   16.5548  -10.1822   17.6927 C   0  0  0  0  0  0  0  0  0  0  0  0
   15.4493   -7.8451   18.6030 S   0  0  0  0  0  0  0  0  0  0  0  0
   14.3008   -7.3015   17.8016 O   0  0  0  0  0  0  0  0  0  0  0  0
   14.9102   -8.7011   19.7150 O   0  0  0  0  0  0  0  0  0  0  0  0
   16.3477   -6.5287   19.2835 N   0  0  0  0  0  0  0  0  0  0  0  0
   16.4857   -5.7243   18.7330 H   0  0  0  0  0  0  0  0  0  0  0  0
   18.5030   -6.6021   24.6257 C   0  0  0  0  0  0  0  0  0  0  0  0
   17.9403   -6.5852   23.2469 C   0  0  0  0  0  0  0  0  0  0  0  0
   16.5623   -6.6379   22.9957 C   0  0  0  0  0  0  0  0  0  0  0  0
   15.4663   -6.7100   23.8281 C   0  0  0  0  0  0  0  0  0  0  0  0
   14.3446   -6.7332   23.0112 C   0  0  0  0  0  0  0  0  0  0  0  0
   14.7161   -6.6779   21.7085 N   0  0  0  0  0  0  0  0  0  0  0  0
   16.0617   -6.6209   21.7184 C   0  0  0  0  0  0  0  0  0  0  0  0
   16.8996   -6.5497   20.6037 C   0  0  0  0  0  0  0  0  0  0  0  0
   18.2895   -6.4964   20.8300 C   0  0  0  0  0  0  0  0  0  0  0  0
   18.8045   -6.5139   22.1416 C   0  0  0  0  0  0  0  0  0  0  0  0
   14.1259   -6.6792   20.9204 H   0  0  0  0  0  0  0  0  0  0  0  0
   15.4533   -6.7534   25.2656 C   0  0  0  0  0  0  0  0  0  0  0  0
   15.4424   -6.7883   26.4223 N   0  0  0  0  0  0  0  0  0  0  0  0
   19.0350  -11.0937   14.9793 C   0  0  0  0  0  0  0  0  0  0  0  0
   18.9924  -10.5621   13.6237 N   0  0  0  0  0  0  0  0  0  0  0  0
   17.7813  -10.4550   12.8681 C   0  0  0  0  0  0  0  0  0  0  0  0
   16.6970  -10.8842   13.3491 O   0  0  0  0  0  0  0  0  0  0  0  0
   19.8337  -10.2633   13.2088 H   0  0  0  0  0  0  0  0  0  0  0  0
   17.8018   -9.8483   11.5271 C   0  0  0  0  0  0  0  0  0  0  0  0
   18.8965   -9.0748   11.1038 C   0  0  0  0  0  0  0  0  0  0  0  0
   18.8520   -8.5434    9.8596 N   0  0  0  0  0  0  0  0  0  0  0  0
   17.8205   -8.7259    9.0346 C   0  0  0  0  0  0  0  0  0  0  0  0
   18.0668   -8.0692    7.8583 C   0  0  0  0  0  0  0  0  0  0  0  0
   19.3174   -7.4812    8.0368 C   0  0  0  0  0  0  0  0  0  0  0  0
   19.7724   -7.7928    9.2792 N   0  0  0  0  0  0  0  0  0  0  0  0
   17.1984   -7.9946    6.6529 C   0  0  0  0  0  0  0  0  0  0  0  0
   16.7401   -9.4616    9.3915 N   0  0  0  0  0  0  0  0  0  0  0  0
   16.7206  -10.0265   10.6342 C   0  0  0  0  0  0  0  0  0  0  0  0
 12 13  1  0  0  0
 13 14  2  0  0  0
 14 15  1  0  0  0
 15 16  2  0  0  0
 16 17  1  0  0  0
 17 18  1  0  0  0
 18 19  2  0  0  0
 19 20  1  0  0  0
 20 21  2  0  0  0
 19 10  1  0  0  0
 10  7  1  0  0  0
  7  8  2  0  0  0
  7  9  2  0  0  0
  7  1  1  0  0  0
  1  2  2  0  0  0
  2  3  1  0  0  0
  3  4  2  0  0  0
  4  5  1  0  0  0
  5  6  2  0  0  0
  4 25  1  0  0  0
 25 26  1  0  0  0
 26 27  1  0  0  0
 27 28  2  0  0  0
 27 30  1  0  0  0
 30 31  2  0  0  0
 31 32  1  0  0  0
 32 33  1  0  0  0
 33 34  2  0  0  0
 34 35  1  0  0  0
 35 36  2  0  0  0
 34 37  1  0  0  0
 33 38  1  0  0  0
 38 39  2  0  0  0
 15 23  1  0  0  0
 23 24  3  0  0  0
 21 13  1  0  0  0
 18 14  1  0  0  0
  6  1  1  0  0  0
 39 30  1  0  0  0
 36 32  1  0  0  0
 17 22  1  0  0  0
 10 11  1  0  0  0
 26 29  1  0  0  0
M  END
>  <minimizedAffinity>
-3.92965

>  <minimizedRMSD>
3.10736

$$$$
CSC027248404 24826830 CSSS00027248404 MCULE-6616703666 MolPort-004-525-324 PubChem-24572748 Z203025438 ZINC000024826830 ZINC24826830


 33 35  0  0  0  0  0  0  0  0999 V2000
   19.6880   -7.6598    5.4298 C   0  0  0  0  0  0  0  0  0  0  0  0
   19.5727   -7.8900    6.8100 C   0  0  0  0  0  0  0  0  0  0  0  0
   18.5147   -8.6202    7.2384 N   0  0  0  0  0  0  0  0  0  0  0  0
   18.1276   -9.0055    8.4621 C   0  0  0  0  0  0  0  0  0  0  0  0
   16.9888   -9.7310    8.3975 N   0  0  0  0  0  0  0  0  0  0  0  0
   16.6413   -9.8107    7.1149 N   0  0  0  0  0  0  0  0  0  0  0  0
   17.5792   -9.1309    6.4298 C   0  0  0  0  0  0  0  0  0  0  0  0
   17.6354   -8.9410    5.0524 C   0  0  0  0  0  0  0  0  0  0  0  0
   18.7151   -8.1905    4.5555 C   0  0  0  0  0  0  0  0  0  0  0  0
   21.0408   -6.7309    4.7970 S   0  0  0  0  0  0  0  0  0  0  0  0
   20.6520   -5.2805    4.7213 O   0  0  0  0  0  0  0  0  0  0  0  0
   22.2080   -6.8578    5.7363 O   0  0  0  0  0  0  0  0  0  0  0  0
   21.5027   -7.2897    3.2154 N   0  0  0  0  0  0  0  0  0  0  0  0
   21.5616   -9.4508    2.1047 C   0  0  0  0  0  0  0  0  0  0  0  0
   20.7234   -8.4801    2.9129 C   0  0  0  0  0  0  0  0  0  0  0  0
   21.1100   -6.2765    2.2485 C   0  0  0  0  0  0  0  0  0  0  0  0
   22.3442   -5.6112    1.6722 C   0  0  0  0  0  0  0  0  0  0  0  0
   18.9934   -8.6230    9.9808 S   0  0  0  0  0  0  0  0  0  0  0  0
   17.5603   -9.0871   10.9959 C   0  0  0  0  0  0  0  0  0  0  0  0
   18.0092   -9.8235   12.2122 C   0  0  0  0  0  0  0  0  0  0  0  0
   18.8970  -10.7116   12.1070 O   0  0  0  0  0  0  0  0  0  0  0  0
   17.4343   -9.5113   13.5277 C   0  0  0  0  0  0  0  0  0  0  0  0
   18.0528   -9.7534   14.7503 C   0  0  0  0  0  0  0  0  0  0  0  0
   17.2758   -9.3544   15.8468 C   0  0  0  0  0  0  0  0  0  0  0  0
   16.0538   -8.8136   15.4708 C   0  0  0  0  0  0  0  0  0  0  0  0
   15.9298   -8.8049   13.7964 S   0  0  0  0  0  0  0  0  0  0  0  0
   15.0393   -8.2531   16.4086 C   0  0  0  0  0  0  0  0  0  0  0  0
   15.6287   -8.0868   17.8001 C   0  0  0  0  0  0  0  0  0  0  0  0
   14.8242   -7.1562   18.5770 N   0  0  0  0  0  0  0  0  0  0  0  0
   14.6082   -7.3332   19.9768 C   0  0  0  0  0  0  0  0  0  0  0  0
   13.7787   -6.3517   20.7222 C   0  0  0  0  0  0  0  0  0  0  0  0
   15.1087   -8.3163   20.5850 O   0  0  0  0  0  0  0  0  0  0  0  0
   14.4171   -6.3825   18.1244 H   0  0  0  0  0  0  0  0  0  0  0  0
 14 15  1  0  0  0
 15 13  1  0  0  0
 13 16  1  0  0  0
 13 10  1  0  0  0
 16 17  1  0  0  0
 10 11  2  0  0  0
 10 12  2  0  0  0
 10  1  1  0  0  0
  1  2  2  0  0  0
  2  3  1  0  0  0
  3  4  1  0  0  0
  4 18  1  0  0  0
  4  5  2  0  0  0
 18 19  1  0  0  0
 19 20  1  0  0  0
 20 21  2  0  0  0
 20 22  1  0  0  0
 22 23  2  0  0  0
 23 24  1  0  0  0
 24 25  2  0  0  0
 25 27  1  0  0  0
 25 26  1  0  0  0
 27 28  1  0  0  0
 28 29  1  0  0  0
 29 30  1  0  0  0
 30 31  1  0  0  0
 30 32  2  0  0  0
 26 22  1  0  0  0
  5  6  1  0  0  0
  6  7  2  0  0  0
  7  8  1  0  0  0
  7  3  1  0  0  0
  8  9  2  0  0  0
  9  1  1  0  0  0
 29 33  1  0  0  0
M  END
>  <minimizedAffinity>
-3.92347

>  <minimizedRMSD>
2.42581

$$$$
CSSS06741667332 PubChem-166398937 Z6924093918


 26 29  0  0  0  0  0  0  0  0999 V2000
   17.6917  -11.3406   12.9499 C   0  0  0  0  0  0  0  0  0  0  0  0
   18.0254  -11.3803   14.3131 C   0  0  0  0  0  0  0  0  0  0  0  0
   17.5379  -10.3728   15.1471 C   0  0  0  0  0  0  0  0  0  0  0  0
   16.7467   -9.3570   14.6432 C   0  0  0  0  0  0  0  0  0  0  0  0
   16.4040   -9.2973   13.2940 C   0  0  0  0  0  0  0  0  0  0  0  0
   16.8794  -10.3079   12.4425 C   0  0  0  0  0  0  0  0  0  0  0  0
   16.2970   -8.2494   15.9023 S   0  0  0  0  0  0  0  0  0  0  0  0
   14.8145   -8.2309   16.1454 O   0  0  0  0  0  0  0  0  0  0  0  0
   16.8568   -6.8731   15.6804 O   0  0  0  0  0  0  0  0  0  0  0  0
   17.1351   -9.0775   17.1659 N   0  0  0  0  0  0  0  0  0  0  0  0
   17.7660  -10.2229   16.5882 C   0  0  0  0  0  0  0  0  0  0  0  0
   18.4556  -11.0248   17.2710 O   0  0  0  0  0  0  0  0  0  0  0  0
   17.1716   -8.8091   18.1124 H   0  0  0  0  0  0  0  0  0  0  0  0
   16.5558  -10.2656   10.9913 C   0  0  0  0  0  0  0  0  0  0  0  0
   17.3072   -9.1974   10.3523 N   0  0  0  0  0  0  0  0  0  0  0  0
   17.7082   -8.4946   10.9132 H   0  0  0  0  0  0  0  0  0  0  0  0
   17.4817   -9.1361    8.9362 C   0  0  0  0  0  0  0  0  0  0  0  0
   16.6591   -9.8261    8.0901 N   0  0  0  0  0  0  0  0  0  0  0  0
   16.8267   -9.7671    6.7314 C   0  0  0  0  0  0  0  0  0  0  0  0
   17.8275   -9.0110    6.1891 N   0  0  0  0  0  0  0  0  0  0  0  0
   18.6440   -8.3262    7.0265 C   0  0  0  0  0  0  0  0  0  0  0  0
   18.4959   -8.3707    8.3739 C   0  0  0  0  0  0  0  0  0  0  0  0
   19.4682   -7.5780    8.9370 C   0  0  0  0  0  0  0  0  0  0  0  0
   20.1724   -7.0845    7.8334 C   0  0  0  0  0  0  0  0  0  0  0  0
   19.6667   -7.5435    6.6600 N   0  0  0  0  0  0  0  0  0  0  0  0
   19.9803   -7.3460    5.7479 H   0  0  0  0  0  0  0  0  0  0  0  0
  1  2  2  0  0  0
  2  3  1  0  0  0
  3  4  2  0  0  0
  4  5  1  0  0  0
  5  6  2  0  0  0
  6 14  1  0  0  0
 14 15  1  0  0  0
 15 17  1  0  0  0
 17 18  2  0  0  0
 18 19  1  0  0  0
 19 20  2  0  0  0
 20 21  1  0  0  0
 21 22  2  0  0  0
 22 23  1  0  0  0
 23 24  2  0  0  0
 24 25  1  0  0  0
  4  7  1  0  0  0
  7  8  2  0  0  0
  7  9  2  0  0  0
  7 10  1  0  0  0
 10 11  1  0  0  0
 11 12  2  0  0  0
  6  1  1  0  0  0
 11  3  1  0  0  0
 22 17  1  0  0  0
 25 21  1  0  0  0
 15 16  1  0  0  0
 25 26  1  0  0  0
 10 13  1  0  0  0
M  END
>  <minimizedAffinity>
-3.92250

>  <minimizedRMSD>
1.62604

$$$$
72430559 CSSS00160042911 MCULE-3738632906 MolPort-021-760-517 PubChem-56898518 ZINC000072430559


 28 30  0  0  0  0  0  0  0  0999 V2000
   18.4510   -9.8930   12.2872 N   0  0  0  0  0  0  0  0  0  0  0  0
   19.3255   -9.4567   12.1684 H   0  0  0  0  0  0  0  0  0  0  0  0
   17.7905   -9.1727   10.0741 N   0  0  0  0  0  0  0  0  0  0  0  0
   17.4662   -9.7430   11.2612 C   0  0  0  0  0  0  0  0  0  0  0  0
   16.1392  -10.1712   11.4399 C   0  0  0  0  0  0  0  0  0  0  0  0
   15.2191   -9.9906   10.3888 C   0  0  0  0  0  0  0  0  0  0  0  0
   15.6100   -9.4088    9.2172 N   0  0  0  0  0  0  0  0  0  0  0  0
   16.8994   -9.0105    9.0883 C   0  0  0  0  0  0  0  0  0  0  0  0
   17.5075   -8.4085    8.0156 C   0  0  0  0  0  0  0  0  0  0  0  0
   18.8189   -8.2300    8.4449 C   0  0  0  0  0  0  0  0  0  0  0  0
   19.9196   -7.6106    7.6574 C   0  0  0  0  0  0  0  0  0  0  0  0
   18.9722   -8.7032    9.7056 N   0  0  0  0  0  0  0  0  0  0  0  0
   16.9028   -8.0357    6.7063 C   0  0  0  0  0  0  0  0  0  0  0  0
   13.8118  -10.4366   10.5577 C   0  0  0  0  0  0  0  0  0  0  0  0
   18.2160  -10.6632   13.4997 C   0  0  0  0  0  0  0  0  0  0  0  0
   18.7958   -9.9319   14.7008 C   0  0  0  0  0  0  0  0  0  0  0  0
   17.7165   -9.4302   15.6024 C   0  0  0  0  0  0  0  0  0  0  0  0
   17.5850   -9.9321   16.9035 C   0  0  0  0  0  0  0  0  0  0  0  0
   16.5755   -9.4499   17.7415 C   0  0  0  0  0  0  0  0  0  0  0  0
   15.6975   -8.4607   17.2849 C   0  0  0  0  0  0  0  0  0  0  0  0
   15.8314   -7.9570   15.9862 C   0  0  0  0  0  0  0  0  0  0  0  0
   16.8407   -8.4390   15.1476 C   0  0  0  0  0  0  0  0  0  0  0  0
   14.4229   -7.8647   18.3317 S   0  0  0  0  0  0  0  0  0  0  0  0
   14.9474   -7.9159   19.9773 N   0  0  0  0  0  0  0  0  0  0  0  0
   14.0954   -6.4428   17.9717 O   0  0  0  0  0  0  0  0  0  0  0  0
   13.1978   -8.7190   18.1695 O   0  0  0  0  0  0  0  0  0  0  0  0
   15.7791   -7.3358   20.0873 H   0  0  0  0  0  0  0  0  0  0  0  0
   15.1676   -8.8782   20.2342 H   0  0  0  0  0  0  0  0  0  0  0  0
  3  4  1  0  0  0
  4  1  1  0  0  0
  1 15  1  0  0  0
 15 16  1  0  0  0
 16 17  1  0  0  0
 17 18  2  0  0  0
 18 19  1  0  0  0
 19 20  2  0  0  0
 20 21  1  0  0  0
 21 22  2  0  0  0
 20 23  1  0  0  0
 23 24  1  0  0  0
 23 25  2  0  0  0
 23 26  2  0  0  0
  4  5  2  0  0  0
  5  6  1  0  0  0
  6  7  2  0  0  0
  7  8  1  0  0  0
  8  9  2  0  0  0
  9 10  1  0  0  0
 10 11  1  0  0  0
 10 12  2  0  0  0
  9 13  1  0  0  0
  6 14  1  0  0  0
  8  3  1  0  0  0
 12  3  1  0  0  0
 22 17  1  0  0  0
  1  2  1  0  0  0
 24 27  1  0  0  0
 24 28  1  0  0  0
M  END
>  <minimizedAffinity>
-3.91626

>  <minimizedRMSD>
2.22420

$$$$
CSC026941821 CSSS00026941821 MCULE-2395171025 MolPort-005-786-872 PubChem-17551452 Z90778293


 32 35  0  0  0  0  0  0  0  0999 V2000
   14.5681  -10.1457   12.4540 O   0  0  0  0  0  0  0  0  0  0  0  0
   15.2876  -10.4281   11.4589 C   0  0  0  0  0  0  0  0  0  0  0  0
   16.6823  -10.7276   11.6086 N   0  0  0  0  0  0  0  0  0  0  0  0
   17.1575  -11.0423   10.8059 H   0  0  0  0  0  0  0  0  0  0  0  0
   17.4525  -10.6137   12.8130 C   0  0  0  0  0  0  0  0  0  0  0  0
   18.5216  -11.4927   13.0175 C   0  0  0  0  0  0  0  0  0  0  0  0
   19.3024  -11.3994   14.1736 C   0  0  0  0  0  0  0  0  0  0  0  0
   19.0202  -10.4212   15.1309 C   0  0  0  0  0  0  0  0  0  0  0  0
   17.9593   -9.5326   14.9317 C   0  0  0  0  0  0  0  0  0  0  0  0
   17.1784   -9.6312   13.7759 C   0  0  0  0  0  0  0  0  0  0  0  0
   17.5973   -8.3128   16.1392 S   0  0  0  0  0  0  0  0  0  0  0  0
   16.9911   -7.0988   15.4898 O   0  0  0  0  0  0  0  0  0  0  0  0
   18.8708   -7.9059   16.8266 O   0  0  0  0  0  0  0  0  0  0  0  0
   16.4930   -8.9541   17.3095 N   0  0  0  0  0  0  0  0  0  0  0  0
   16.5969   -9.8909   17.5939 H   0  0  0  0  0  0  0  0  0  0  0  0
   15.4372   -8.1776   17.8784 C   0  0  0  0  0  0  0  0  0  0  0  0
   14.4572   -7.7222   17.1803 N   0  0  0  0  0  0  0  0  0  0  0  0
   13.5277   -6.9781   18.0082 C   0  0  0  0  0  0  0  0  0  0  0  0
   14.1125   -7.0068   19.4190 C   0  0  0  0  0  0  0  0  0  0  0  0
   15.3809   -7.8432   19.3170 C   0  0  0  0  0  0  0  0  0  0  0  0
   14.6813  -10.4248   10.0989 C   0  0  0  0  0  0  0  0  0  0  0  0
   15.6814  -10.2623    9.1386 O   0  0  0  0  0  0  0  0  0  0  0  0
   15.6600   -8.9029    8.8223 C   0  0  0  0  0  0  0  0  0  0  0  0
   16.9273   -8.5275    8.1367 C   0  0  0  0  0  0  0  0  0  0  0  0
   17.1324   -8.7147    6.8103 N   0  0  0  0  0  0  0  0  0  0  0  0
   18.3686   -8.2872    6.4491 C   0  0  0  0  0  0  0  0  0  0  0  0
   18.8749   -8.3529    5.1503 C   0  0  0  0  0  0  0  0  0  0  0  0
   20.1757   -7.8773    4.9120 C   0  0  0  0  0  0  0  0  0  0  0  0
   20.9476   -7.3472    5.9647 C   0  0  0  0  0  0  0  0  0  0  0  0
   20.4289   -7.2861    7.2684 C   0  0  0  0  0  0  0  0  0  0  0  0
   19.1379   -7.7640    7.4774 C   0  0  0  0  0  0  0  0  0  0  0  0
   18.2636   -7.8256    8.9077 S   0  0  0  0  0  0  0  0  0  0  0  0
  1  2  2  0  0  0
  2 21  1  0  0  0
  2  3  1  0  0  0
 21 22  1  0  0  0
 22 23  1  0  0  0
 23 24  1  0  0  0
 24 25  2  0  0  0
 25 26  1  0  0  0
 26 27  2  0  0  0
 27 28  1  0  0  0
 28 29  2  0  0  0
 29 30  1  0  0  0
 30 31  2  0  0  0
 31 32  1  0  0  0
 31 26  1  0  0  0
 32 24  1  0  0  0
  3  5  1  0  0  0
  5  6  2  0  0  0
  6  7  1  0  0  0
  7  8  2  0  0  0
  8  9  1  0  0  0
  9 10  2  0  0  0
  9 11  1  0  0  0
 10  5  1  0  0  0
 11 12  2  0  0  0
 11 13  2  0  0  0
 11 14  1  0  0  0
 14 16  1  0  0  0
 16 17  2  0  0  0
 17 18  1  0  0  0
 18 19  1  0  0  0
 19 20  1  0  0  0
 20 16  1  0  0  0
  3  4  1  0  0  0
 14 15  1  0  0  0
M  END
>  <minimizedAffinity>
-3.89420

>  <minimizedRMSD>
2.29534

$$$$
CSSS06744545202 Z7151895446


 34 37  0  0  0  0  0  0  0  0999 V2000
   17.2193  -10.6988   17.1270 C   0  0  0  0  0  0  0  0  0  0  0  0
   16.7598  -10.0518   15.8649 C   0  0  0  0  0  0  0  0  0  0  0  0
   17.1722  -10.5983   14.6484 C   0  0  0  0  0  0  0  0  0  0  0  0
   16.7595  -10.0113   13.4515 C   0  0  0  0  0  0  0  0  0  0  0  0
   15.9581   -8.9110   13.4777 N   0  0  0  0  0  0  0  0  0  0  0  0
   15.5418   -8.3590   14.6479 C   0  0  0  0  0  0  0  0  0  0  0  0
   15.9308   -8.9147   15.8708 C   0  0  0  0  0  0  0  0  0  0  0  0
   15.3677   -8.1759   17.3703 S   0  0  0  0  0  0  0  0  0  0  0  0
   15.4740   -6.6790   17.2707 O   0  0  0  0  0  0  0  0  0  0  0  0
   16.2470   -8.6420   18.4958 O   0  0  0  0  0  0  0  0  0  0  0  0
   13.7206   -8.6566   17.6988 N   0  0  0  0  0  0  0  0  0  0  0  0
   13.7411   -9.4868   18.2911 H   0  0  0  0  0  0  0  0  0  0  0  0
   12.9186   -7.6260   18.3753 C   0  0  0  0  0  0  0  0  0  0  0  0
   12.2428   -6.6835   17.3921 C   0  0  0  0  0  0  0  0  0  0  0  0
   11.8478   -8.3114   19.1958 C   0  0  0  0  0  0  0  0  0  0  0  0
   12.4563   -8.5628   20.5602 C   0  0  0  0  0  0  0  0  0  0  0  0
   13.5729   -7.5506   20.7247 C   0  0  0  0  0  0  0  0  0  0  0  0
   14.7428   -8.1966   21.0763 F   0  0  0  0  0  0  0  0  0  0  0  0
   13.2360   -6.6269   21.6955 F   0  0  0  0  0  0  0  0  0  0  0  0
   13.7474   -6.8537   19.3883 C   0  0  0  0  0  0  0  0  0  0  0  0
   17.1906  -10.5713   12.2094 N   0  0  0  0  0  0  0  0  0  0  0  0
   17.7672  -11.3690   12.2297 H   0  0  0  0  0  0  0  0  0  0  0  0
   16.8173  -10.0174   10.9140 C   0  0  0  0  0  0  0  0  0  0  0  0
   17.4556   -8.6494   10.7105 C   0  0  0  0  0  0  0  0  0  0  0  0
   17.9151   -8.4984    9.3374 N   0  0  0  0  0  0  0  0  0  0  0  0
   17.2501   -8.9202    8.2658 N   0  0  0  0  0  0  0  0  0  0  0  0
   18.0247   -8.5757    7.2141 C   0  0  0  0  0  0  0  0  0  0  0  0
   17.7536   -8.8083    5.8691 C   0  0  0  0  0  0  0  0  0  0  0  0
   18.7078   -8.3613    4.9380 C   0  0  0  0  0  0  0  0  0  0  0  0
   19.8823   -7.7077    5.3656 C   0  0  0  0  0  0  0  0  0  0  0  0
   20.1001   -7.5017    6.7364 C   0  0  0  0  0  0  0  0  0  0  0  0
   19.1520   -7.9499    7.5949 N   0  0  0  0  0  0  0  0  0  0  0  0
   19.0586   -7.9129    8.9299 C   0  0  0  0  0  0  0  0  0  0  0  0
   19.9210   -7.4062    9.6971 O   0  0  0  0  0  0  0  0  0  0  0  0
  1  2  1  0  0  0
  2  3  2  0  0  0
  3  4  1  0  0  0
  4 21  1  0  0  0
 21 23  1  0  0  0
 23 24  1  0  0  0
 24 25  1  0  0  0
 25 26  1  0  0  0
 26 27  2  0  0  0
 27 28  1  0  0  0
 28 29  2  0  0  0
 29 30  1  0  0  0
 30 31  2  0  0  0
 31 32  1  0  0  0
 32 33  1  0  0  0
 33 34  2  0  0  0
  4  5  2  0  0  0
  5  6  1  0  0  0
  6  7  2  0  0  0
  7  8  1  0  0  0
  8  9  2  0  0  0
  8 10  2  0  0  0
  8 11  1  0  0  0
 11 13  1  0  0  0
 13 14  1  0  0  0
 13 15  1  0  0  0
 15 16  1  0  0  0
 16 17  1  0  0  0
 17 18  1  0  0  0
 17 19  1  0  0  0
 17 20  1  0  0  0
  7  2  1  0  0  0
 20 13  1  0  0  0
 33 25  1  0  0  0
 32 27  1  0  0  0
 21 22  1  0  0  0
 11 12  1  0  0  0
M  END
>  <minimizedAffinity>
-3.87600

>  <minimizedRMSD>
2.30614

$$$$
CSC079708115 CSSS00079708115 MCULE-5257175835 MolPort-046-501-060 PubChem-138033793 Z2615241757


 28 30  0  0  0  0  0  0  0  0999 V2000
   18.0874   -8.4921    8.2092 N   0  0  0  0  0  0  0  0  0  0  0  0
   17.4626   -8.9460    7.1238 N   0  0  0  0  0  0  0  0  0  0  0  0
   16.4677   -9.7966    7.4948 C   0  0  0  0  0  0  0  0  0  0  0  0
   16.4910   -9.8612    8.8746 C   0  0  0  0  0  0  0  0  0  0  0  0
   17.4959   -9.0495    9.2782 C   0  0  0  0  0  0  0  0  0  0  0  0
   17.8066   -8.8705   10.5854 N   0  0  0  0  0  0  0  0  0  0  0  0
   17.0678   -9.5425   11.5233 C   0  0  0  0  0  0  0  0  0  0  0  0
   16.0448  -10.3702   11.1331 N   0  0  0  0  0  0  0  0  0  0  0  0
   15.7361  -10.5468    9.8146 C   0  0  0  0  0  0  0  0  0  0  0  0
   14.7949  -11.3092    9.4715 O   0  0  0  0  0  0  0  0  0  0  0  0
   15.5225  -10.8468   11.8182 H   0  0  0  0  0  0  0  0  0  0  0  0
   19.9202   -7.5489    6.8547 C   0  0  0  0  0  0  0  0  0  0  0  0
   19.2172   -7.5516    8.2028 C   0  0  0  0  0  0  0  0  0  0  0  0
   18.7230   -6.1438    8.4842 C   0  0  0  0  0  0  0  0  0  0  0  0
   20.2276   -7.9457    9.2652 C   0  0  0  0  0  0  0  0  0  0  0  0
   17.3537   -9.3896   12.9131 N   0  0  0  0  0  0  0  0  0  0  0  0
   17.2679   -8.4983   13.3222 H   0  0  0  0  0  0  0  0  0  0  0  0
   17.7676  -10.5086   13.7435 C   0  0  0  0  0  0  0  0  0  0  0  0
   17.4112  -10.2364   15.1610 C   0  0  0  0  0  0  0  0  0  0  0  0
   16.6448   -9.2004   15.5531 N   0  0  0  0  0  0  0  0  0  0  0  0
   16.4272   -9.2139   16.8978 C   0  0  0  0  0  0  0  0  0  0  0  0
   17.0089  -10.2740   17.5980 C   0  0  0  0  0  0  0  0  0  0  0  0
   17.8213  -11.2121   16.4584 S   0  0  0  0  0  0  0  0  0  0  0  0
   15.6231   -8.1763   17.5570 C   0  0  0  0  0  0  0  0  0  0  0  0
   15.7722   -7.9238   18.9509 N   0  0  0  0  0  0  0  0  0  0  0  0
   14.7945   -7.5019   16.8908 O   0  0  0  0  0  0  0  0  0  0  0  0
   16.4177   -8.4464   19.4795 H   0  0  0  0  0  0  0  0  0  0  0  0
   15.2297   -7.2268   19.3857 H   0  0  0  0  0  0  0  0  0  0  0  0
 12 13  1  0  0  0
 13 14  1  0  0  0
 13 15  1  0  0  0
 13  1  1  0  0  0
  1  2  1  0  0  0
  2  3  2  0  0  0
  3  4  1  0  0  0
  4  5  2  0  0  0
  5  6  1  0  0  0
  6  7  2  0  0  0
  7 16  1  0  0  0
 16 18  1  0  0  0
 18 19  1  0  0  0
 19 20  2  0  0  0
 20 21  1  0  0  0
 21 22  2  0  0  0
 22 23  1  0  0  0
 21 24  1  0  0  0
 24 25  1  0  0  0
 24 26  2  0  0  0
  7  8  1  0  0  0
  8  9  1  0  0  0
  9 10  2  0  0  0
  5  1  1  0  0  0
 23 19  1  0  0  0
  9  4  1  0  0  0
 16 17  1  0  0  0
 25 27  1  0  0  0
 25 28  1  0  0  0
  8 11  1  0  0  0
M  END
>  <minimizedAffinity>
-3.87241

>  <minimizedRMSD>
1.53695

$$$$
CSC026886811 8394765 CHEMBL1524386 CSSS00026886811 MCULE-6950484730 MolPort-004-166-844 PubChem-9508589 Z86251340 ZINC000008394765


 30 32  0  0  0  0  0  0  0  0999 V2000
   18.3972   -9.8382   12.1099 N   0  0  0  0  0  0  0  0  0  0  0  0
   19.2019   -9.2715   12.1353 H   0  0  0  0  0  0  0  0  0  0  0  0
   17.4477   -9.6419   11.0586 C   0  0  0  0  0  0  0  0  0  0  0  0
   17.8421   -9.0630    9.8457 C   0  0  0  0  0  0  0  0  0  0  0  0
   16.8664   -8.8801    8.8444 C   0  0  0  0  0  0  0  0  0  0  0  0
   17.2196   -8.2992    7.6231 C   0  0  0  0  0  0  0  0  0  0  0  0
   18.5404   -7.9010    7.3943 C   0  0  0  0  0  0  0  0  0  0  0  0
   19.5106   -8.0817    8.3854 C   0  0  0  0  0  0  0  0  0  0  0  0
   19.1639   -8.6610    9.6097 C   0  0  0  0  0  0  0  0  0  0  0  0
   15.5849   -9.2658    9.0697 N   0  0  0  0  0  0  0  0  0  0  0  0
   15.2233   -9.8410   10.2484 C   0  0  0  0  0  0  0  0  0  0  0  0
   16.1487  -10.0096   11.2320 N   0  0  0  0  0  0  0  0  0  0  0  0
   13.7952  -10.2150   10.4921 C   0  0  0  0  0  0  0  0  0  0  0  0
   13.3367  -11.0318    9.4741 F   0  0  0  0  0  0  0  0  0  0  0  0
   13.6784  -10.8902   11.6939 F   0  0  0  0  0  0  0  0  0  0  0  0
   13.0239   -9.0692   10.5378 F   0  0  0  0  0  0  0  0  0  0  0  0
   18.2155  -10.8460   13.1430 C   0  0  0  0  0  0  0  0  0  0  0  0
   18.8801  -10.3950   14.4343 C   0  0  0  0  0  0  0  0  0  0  0  0
   15.9882   -8.6299   17.0698 C   0  0  0  0  0  0  0  0  0  0  0  0
   16.7983   -9.6789   17.5191 C   0  0  0  0  0  0  0  0  0  0  0  0
   17.7441  -10.2508   16.6632 C   0  0  0  0  0  0  0  0  0  0  0  0
   17.8867   -9.7714   15.3562 C   0  0  0  0  0  0  0  0  0  0  0  0
   17.0767   -8.7227   14.9062 C   0  0  0  0  0  0  0  0  0  0  0  0
   16.1311   -8.1515   15.7625 C   0  0  0  0  0  0  0  0  0  0  0  0
   15.6152   -7.2413   19.5229 N   0  0  0  0  0  0  0  0  0  0  0  0
   14.8090   -7.9050   18.1473 S   0  0  0  0  0  0  0  0  0  0  0  0
   13.8251   -8.9481   18.5973 O   0  0  0  0  0  0  0  0  0  0  0  0
   14.0667   -6.8154   17.4262 O   0  0  0  0  0  0  0  0  0  0  0  0
   16.1188   -7.9815   20.0117 H   0  0  0  0  0  0  0  0  0  0  0  0
   14.9283   -6.8250   20.1515 H   0  0  0  0  0  0  0  0  0  0  0  0
 25 26  1  0  0  0
 26 19  1  0  0  0
 19 20  2  0  0  0
 20 21  1  0  0  0
 21 22  2  0  0  0
 22 18  1  0  0  0
 18 17  1  0  0  0
 17  1  1  0  0  0
  1  3  1  0  0  0
  3  4  1  0  0  0
  4  5  1  0  0  0
  5  6  2  0  0  0
  6  7  1  0  0  0
  7  8  2  0  0  0
  8  9  1  0  0  0
  5 10  1  0  0  0
 10 11  2  0  0  0
 11 13  1  0  0  0
 13 14  1  0  0  0
 13 15  1  0  0  0
 13 16  1  0  0  0
 11 12  1  0  0  0
 22 23  1  0  0  0
 23 24  2  0  0  0
 26 27  2  0  0  0
 26 28  2  0  0  0
 24 19  1  0  0  0
 12  3  2  0  0  0
  9  4  2  0  0  0
 25 29  1  0  0  0
 25 30  1  0  0  0
  1  2  1  0  0  0
M  END
>  <minimizedAffinity>
-3.86182

>  <minimizedRMSD>
2.35674

$$$$
77387438 CSSS00160062716 MCULE-2145314952 MolPort-023-257-617 PubChem-70736047 ZINC000077387438 ZINC77387438


 31 33  0  0  0  0  0  0  0  0999 V2000
   17.7326  -10.4024   13.3524 C   0  0  0  0  0  0  0  0  0  0  0  0
   17.6389  -11.6418   13.5680 O   0  0  0  0  0  0  0  0  0  0  0  0
   17.8187   -9.4890   14.4513 N   0  0  0  0  0  0  0  0  0  0  0  0
   17.9389   -8.5311   14.2585 H   0  0  0  0  0  0  0  0  0  0  0  0
   17.9590   -8.4295    8.1816 N   0  0  0  0  0  0  0  0  0  0  0  0
   19.1646   -7.8218    8.3039 C   0  0  0  0  0  0  0  0  0  0  0  0
   19.7815   -7.0919    7.2480 N   0  0  0  0  0  0  0  0  0  0  0  0
   19.7365   -7.9651    9.5305 N   0  0  0  0  0  0  0  0  0  0  0  0
   18.8204   -8.6993   10.1915 C   0  0  0  0  0  0  0  0  0  0  0  0
   18.8612   -9.1471   11.5060 C   0  0  0  0  0  0  0  0  0  0  0  0
   17.7583   -9.8959   11.9699 C   0  0  0  0  0  0  0  0  0  0  0  0
   16.6728  -10.1513   11.0919 C   0  0  0  0  0  0  0  0  0  0  0  0
   16.6845   -9.6847    9.8067 N   0  0  0  0  0  0  0  0  0  0  0  0
   17.7594   -8.9729    9.3878 C   0  0  0  0  0  0  0  0  0  0  0  0
   19.3319   -7.0134    6.3756 H   0  0  0  0  0  0  0  0  0  0  0  0
   20.6575   -6.6658    7.3904 H   0  0  0  0  0  0  0  0  0  0  0  0
   17.8700   -8.6860    5.7563 C   0  0  0  0  0  0  0  0  0  0  0  0
   17.0743   -8.4380    7.0243 C   0  0  0  0  0  0  0  0  0  0  0  0
   17.7363   -9.9142   15.8422 C   0  0  0  0  0  0  0  0  0  0  0  0
   16.6675   -9.1567   16.5547 C   0  0  0  0  0  0  0  0  0  0  0  0
   16.7147   -9.0231   17.9463 C   0  0  0  0  0  0  0  0  0  0  0  0
   15.7055   -8.3265   18.6174 C   0  0  0  0  0  0  0  0  0  0  0  0
   14.6461   -7.7610   17.8992 C   0  0  0  0  0  0  0  0  0  0  0  0
   14.5960   -7.9007   16.5076 C   0  0  0  0  0  0  0  0  0  0  0  0
   15.6050   -8.5974   15.8361 C   0  0  0  0  0  0  0  0  0  0  0  0
   13.3739   -6.8972   18.7425 S   0  0  0  0  0  0  0  0  0  0  0  0
   12.3154   -8.0244   19.5135 N   0  0  0  0  0  0  0  0  0  0  0  0
   13.9768   -6.0041   19.7901 O   0  0  0  0  0  0  0  0  0  0  0  0
   12.5942   -6.0671   17.7627 O   0  0  0  0  0  0  0  0  0  0  0  0
   12.8449   -8.5879   20.1787 H   0  0  0  0  0  0  0  0  0  0  0  0
   11.8962   -8.6329   18.8104 H   0  0  0  0  0  0  0  0  0  0  0  0
 17 18  1  0  0  0
 18  5  1  0  0  0
  5  6  1  0  0  0
  6  7  1  0  0  0
  6  8  2  0  0  0
  8  9  1  0  0  0
  9 10  2  0  0  0
 10 11  1  0  0  0
 11 12  2  0  0  0
 11  1  1  0  0  0
 12 13  1  0  0  0
 13 14  2  0  0  0
 14  5  1  0  0  0
 14  9  1  0  0  0
  1  2  2  0  0  0
  1  3  1  0  0  0
  3 19  1  0  0  0
 19 20  1  0  0  0
 20 21  2  0  0  0
 21 22  1  0  0  0
 22 23  2  0  0  0
 23 24  1  0  0  0
 23 26  1  0  0  0
 24 25  2  0  0  0
 25 20  1  0  0  0
 26 27  1  0  0  0
 26 28  2  0  0  0
 26 29  2  0  0  0
  7 15  1  0  0  0
  7 16  1  0  0  0
  3  4  1  0  0  0
 27 30  1  0  0  0
 27 31  1  0  0  0
M  END
>  <minimizedAffinity>
-3.85731

>  <minimizedRMSD>
2.70501

$$$$
CSSS00161207181 MCULE-6919367189 MolPort-047-377-920 PubChem-146042327


 29 32  0  0  0  0  0  0  0  0999 V2000
   16.2640   -8.3026   15.6581 C   0  0  0  0  0  0  0  0  0  0  0  0
   16.8989   -9.4841   15.7912 N   0  0  0  0  0  0  0  0  0  0  0  0
   16.7194  -10.1078   14.6402 N   0  0  0  0  0  0  0  0  0  0  0  0
   15.9825   -9.3136   13.8447 C   0  0  0  0  0  0  0  0  0  0  0  0
   15.6722   -8.1518   14.4520 N   0  0  0  0  0  0  0  0  0  0  0  0
   17.2515  -11.4257   14.3076 C   0  0  0  0  0  0  0  0  0  0  0  0
   17.6894  -12.1400   15.5528 C   0  0  0  0  0  0  0  0  0  0  0  0
   19.1544  -12.4144   15.3122 C   0  0  0  0  0  0  0  0  0  0  0  0
   19.6178  -11.5172   14.3392 O   0  0  0  0  0  0  0  0  0  0  0  0
   18.5210  -11.2914   13.4942 C   0  0  0  0  0  0  0  0  0  0  0  0
   16.1796   -7.2891   16.7466 C   0  0  0  0  0  0  0  0  0  0  0  0
   15.6328   -8.0405   19.0917 N   0  0  0  0  0  0  0  0  0  0  0  0
   15.1942   -7.7213   17.7764 C   0  0  0  0  0  0  0  0  0  0  0  0
   13.9777   -7.8350   17.4753 O   0  0  0  0  0  0  0  0  0  0  0  0
   14.9812   -8.3261   19.7721 H   0  0  0  0  0  0  0  0  0  0  0  0
   16.5879   -7.9757   19.3214 H   0  0  0  0  0  0  0  0  0  0  0  0
   15.6038   -9.6351   12.4391 C   0  0  0  0  0  0  0  0  0  0  0  0
   16.8321   -9.5624   11.5499 C   0  0  0  0  0  0  0  0  0  0  0  0
   16.6720  -10.4737   10.3416 C   0  0  0  0  0  0  0  0  0  0  0  0
   16.0566   -9.7319    9.1607 C   0  0  0  0  0  0  0  0  0  0  0  0
   17.1116   -9.1298    8.2951 C   0  0  0  0  0  0  0  0  0  0  0  0
   17.1691   -9.3096    6.9524 N   0  0  0  0  0  0  0  0  0  0  0  0
   18.2301   -8.6493    6.4242 C   0  0  0  0  0  0  0  0  0  0  0  0
   18.5571   -8.6439    5.0682 C   0  0  0  0  0  0  0  0  0  0  0  0
   19.6860   -7.9172    4.6533 C   0  0  0  0  0  0  0  0  0  0  0  0
   20.4668   -7.2113    5.5895 C   0  0  0  0  0  0  0  0  0  0  0  0
   20.1288   -7.2232    6.9520 C   0  0  0  0  0  0  0  0  0  0  0  0
   19.0060   -7.9508    7.3365 C   0  0  0  0  0  0  0  0  0  0  0  0
   18.3639   -8.1482    8.8735 S   0  0  0  0  0  0  0  0  0  0  0  0
 12 13  1  0  0  0
 13 14  2  0  0  0
 13 11  1  0  0  0
 11  1  1  0  0  0
  1  2  2  0  0  0
  2  3  1  0  0  0
  3  6  1  0  0  0
  6  7  1  0  0  0
  7  8  1  0  0  0
  8  9  1  0  0  0
  9 10  1  0  0  0
  3  4  1  0  0  0
  4 17  1  0  0  0
 17 18  1  0  0  0
 18 19  1  0  0  0
 19 20  1  0  0  0
 20 21  1  0  0  0
 21 22  2  0  0  0
 22 23  1  0  0  0
 23 24  2  0  0  0
 24 25  1  0  0  0
 25 26  2  0  0  0
 26 27  1  0  0  0
 27 28  2  0  0  0
 28 29  1  0  0  0
  4  5  2  0  0  0
  5  1  1  0  0  0
 10  6  1  0  0  0
 29 21  1  0  0  0
 28 23  1  0  0  0
 12 15  1  0  0  0
 12 16  1  0  0  0
M  END
>  <minimizedAffinity>
-3.81847

>  <minimizedRMSD>
2.14197

$$$$
1857715906 CSSS03436526576 MCULE-2937379055 MCULE-4281514553 MolPort-047-725-350 PubChem-155500345 PubChem-155939329


 26 28  0  0  0  0  0  0  0  0999 V2000
   16.6999   -9.5398   12.5717 C   0  0  0  0  0  0  0  0  0  0  0  0
   17.6994  -10.5756   12.7808 N   0  0  0  0  0  0  0  0  0  0  0  0
   17.8401  -11.2139   14.0609 C   0  0  0  0  0  0  0  0  0  0  0  0
   18.6049  -12.2095   14.1901 O   0  0  0  0  0  0  0  0  0  0  0  0
   17.0904  -10.7025   15.2529 C   0  0  0  0  0  0  0  0  0  0  0  0
   17.9463  -10.8093   16.5135 C   0  0  0  0  0  0  0  0  0  0  0  0
   17.1631  -10.3041   17.7207 C   0  0  0  0  0  0  0  0  0  0  0  0
   16.7253   -8.8574   17.5047 C   0  0  0  0  0  0  0  0  0  0  0  0
   15.9884   -8.4332   18.6107 O   0  0  0  0  0  0  0  0  0  0  0  0
   15.8757   -8.7409   16.2361 C   0  0  0  0  0  0  0  0  0  0  0  0
   15.5109   -7.3532   16.0103 N   0  0  0  0  0  0  0  0  0  0  0  0
   16.6505   -9.2574   15.0265 C   0  0  0  0  0  0  0  0  0  0  0  0
   15.2042   -8.9951   18.7116 H   0  0  0  0  0  0  0  0  0  0  0  0
   16.3558   -6.7953   15.8868 H   0  0  0  0  0  0  0  0  0  0  0  0
   14.9873   -7.0043   16.8131 H   0  0  0  0  0  0  0  0  0  0  0  0
   18.4793  -11.0127   11.6295 C   0  0  0  0  0  0  0  0  0  0  0  0
   18.0776  -10.2549   10.4090 C   0  0  0  0  0  0  0  0  0  0  0  0
   18.8837   -9.2759    9.9176 N   0  0  0  0  0  0  0  0  0  0  0  0
   18.5235   -8.5579    8.8223 C   0  0  0  0  0  0  0  0  0  0  0  0
   19.3584   -7.5551    8.3229 C   0  0  0  0  0  0  0  0  0  0  0  0
   18.9700   -6.8252    7.1943 C   0  0  0  0  0  0  0  0  0  0  0  0
   17.7491   -7.0968    6.5659 C   0  0  0  0  0  0  0  0  0  0  0  0
   16.9094   -8.0996    7.0626 C   0  0  0  0  0  0  0  0  0  0  0  0
   17.2928   -8.8313    8.1896 C   0  0  0  0  0  0  0  0  0  0  0  0
   16.4892   -9.8068    8.6875 N   0  0  0  0  0  0  0  0  0  0  0  0
   16.8547  -10.5222    9.7845 C   0  0  0  0  0  0  0  0  0  0  0  0
  1  2  1  0  0  0
  2 16  1  0  0  0
 16 17  1  0  0  0
 17 18  2  0  0  0
 18 19  1  0  0  0
 19 20  2  0  0  0
 20 21  1  0  0  0
 21 22  2  0  0  0
 22 23  1  0  0  0
 23 24  2  0  0  0
 24 25  1  0  0  0
 25 26  2  0  0  0
  2  3  1  0  0  0
  3  4  2  0  0  0
  5  3  1  0  0  0
  5  6  1  0  0  0
  6  7  1  0  0  0
  7  8  1  0  0  0
  8  9  1  0  0  0
  8 10  1  0  0  0
 10 11  1  0  0  0
 10 12  1  0  0  0
 26 17  1  0  0  0
 12  5  1  0  0  0
 24 19  1  0  0  0
  9 13  1  0  0  0
 11 14  1  0  0  0
 11 15  1  0  0  0
M  END
>  <minimizedAffinity>
-3.81672

>  <minimizedRMSD>
1.20164

$$$$
CSC027636901 72310299 CSSS00027636901 MCULE-4591244101 MolPort-023-179-334 PubChem-72109729 Z1326622809 ZINC000072310299 ZINC72310299


 28 31  0  0  0  0  0  0  0  0999 V2000
   18.1637   -9.9881   12.1326 C   0  0  0  0  0  0  0  0  0  0  0  0
   19.0783   -9.1801   12.4433 O   0  0  0  0  0  0  0  0  0  0  0  0
   17.9725  -11.1737   12.9081 N   0  0  0  0  0  0  0  0  0  0  0  0
   17.2712  -11.8105   12.6400 H   0  0  0  0  0  0  0  0  0  0  0  0
   20.1711   -8.2436   10.0985 C   0  0  0  0  0  0  0  0  0  0  0  0
   18.9245   -8.5028    9.3292 C   0  0  0  0  0  0  0  0  0  0  0  0
   18.7407   -8.0595    8.0627 N   0  0  0  0  0  0  0  0  0  0  0  0
   17.5269   -8.3786    7.7054 O   0  0  0  0  0  0  0  0  0  0  0  0
   16.9250   -8.9996    8.6857 C   0  0  0  0  0  0  0  0  0  0  0  0
   15.6465   -9.4460    8.6922 N   0  0  0  0  0  0  0  0  0  0  0  0
   15.1557  -10.0385    9.8220 C   0  0  0  0  0  0  0  0  0  0  0  0
   15.9887  -10.2101   10.9515 C   0  0  0  0  0  0  0  0  0  0  0  0
   17.3230   -9.7556   10.9412 C   0  0  0  0  0  0  0  0  0  0  0  0
   17.7624   -9.1297    9.7594 C   0  0  0  0  0  0  0  0  0  0  0  0
   13.7570  -10.5706    9.8410 C   0  0  0  0  0  0  0  0  0  0  0  0
   12.8002   -9.5178   10.3736 C   0  0  0  0  0  0  0  0  0  0  0  0
   13.2469  -10.6494   11.2697 C   0  0  0  0  0  0  0  0  0  0  0  0
   18.7804  -11.4691   14.0799 C   0  0  0  0  0  0  0  0  0  0  0  0
   18.1076  -10.9371   15.2949 C   0  0  0  0  0  0  0  0  0  0  0  0
   18.1030  -11.5505   16.5324 C   0  0  0  0  0  0  0  0  0  0  0  0
   17.3454  -10.7215   17.3453 C   0  0  0  0  0  0  0  0  0  0  0  0
   16.9484   -9.6739   16.5328 C   0  0  0  0  0  0  0  0  0  0  0  0
   17.4135   -9.8283   15.3186 O   0  0  0  0  0  0  0  0  0  0  0  0
   16.1200   -8.5385   16.9511 C   0  0  0  0  0  0  0  0  0  0  0  0
   15.9237   -8.2594   18.3336 N   0  0  0  0  0  0  0  0  0  0  0  0
   15.5770   -7.8038   16.0852 O   0  0  0  0  0  0  0  0  0  0  0  0
   16.3456   -8.8303   19.0157 H   0  0  0  0  0  0  0  0  0  0  0  0
   15.3660   -7.4956   18.6072 H   0  0  0  0  0  0  0  0  0  0  0  0
  5  6  1  0  0  0
  6  7  2  0  0  0
  7  8  1  0  0  0
  8  9  1  0  0  0
  9 10  2  0  0  0
 10 11  1  0  0  0
 11 12  2  0  0  0
 11 15  1  0  0  0
 12 13  1  0  0  0
 13  1  1  0  0  0
 13 14  2  0  0  0
  1  2  2  0  0  0
  1  3  1  0  0  0
  3 18  1  0  0  0
 18 19  1  0  0  0
 19 20  2  0  0  0
 20 21  1  0  0  0
 21 22  2  0  0  0
 22 23  1  0  0  0
 22 24  1  0  0  0
 23 19  1  0  0  0
 24 25  1  0  0  0
 24 26  2  0  0  0
 14  6  1  0  0  0
 14  9  1  0  0  0
 15 16  1  0  0  0
 16 17  1  0  0  0
 17 15  1  0  0  0
  3  4  1  0  0  0
 25 27  1  0  0  0
 25 28  1  0  0  0
M  END
>  <minimizedAffinity>
-3.81415

>  <minimizedRMSD>
1.32320

$$$$
CSSS00105576986 MCULE-7975721203 MolPort-044-809-220 PubChem-126843662


 29 32  0  0  0  0  0  0  0  0999 V2000
   16.1097  -10.0297   11.7074 N   0  0  0  0  0  0  0  0  0  0  0  0
   17.2647  -10.4885   12.4179 C   0  0  0  0  0  0  0  0  0  0  0  0
   18.0643  -11.2951   11.8688 O   0  0  0  0  0  0  0  0  0  0  0  0
   15.4803   -9.4306   12.1701 H   0  0  0  0  0  0  0  0  0  0  0  0
   17.5178  -10.0207   13.7907 C   0  0  0  0  0  0  0  0  0  0  0  0
   16.4812   -9.4521   14.5537 C   0  0  0  0  0  0  0  0  0  0  0  0
   16.7767   -9.0389   15.8098 N   0  0  0  0  0  0  0  0  0  0  0  0
   17.9883   -9.1367   16.3689 C   0  0  0  0  0  0  0  0  0  0  0  0
   18.0038   -8.6500   17.6256 N   0  0  0  0  0  0  0  0  0  0  0  0
   16.7661   -8.2282   17.8787 N   0  0  0  0  0  0  0  0  0  0  0  0
   16.0359   -8.4709   16.7693 C   0  0  0  0  0  0  0  0  0  0  0  0
   14.8122   -8.1956   16.6563 O   0  0  0  0  0  0  0  0  0  0  0  0
   19.0588   -9.6877   15.6727 C   0  0  0  0  0  0  0  0  0  0  0  0
   18.8066  -10.1329   14.3634 C   0  0  0  0  0  0  0  0  0  0  0  0
   16.4453   -7.8181   18.7143 H   0  0  0  0  0  0  0  0  0  0  0  0
   15.8236  -10.4100   10.3290 C   0  0  0  0  0  0  0  0  0  0  0  0
   16.7362   -9.6881    9.3782 C   0  0  0  0  0  0  0  0  0  0  0  0
   16.7363   -9.9429    8.0437 N   0  0  0  0  0  0  0  0  0  0  0  0
   17.6880   -9.1147    7.5919 C   0  0  0  0  0  0  0  0  0  0  0  0
   18.1190   -8.9515    6.2778 C   0  0  0  0  0  0  0  0  0  0  0  0
   19.1439   -8.0153    6.0453 C   0  0  0  0  0  0  0  0  0  0  0  0
   19.7011   -7.2803    7.1158 C   0  0  0  0  0  0  0  0  0  0  0  0
   19.2401   -7.4728    8.4316 C   0  0  0  0  0  0  0  0  0  0  0  0
   18.2250   -8.4066    8.6232 C   0  0  0  0  0  0  0  0  0  0  0  0
   17.6390   -8.7523    9.7775 N   0  0  0  0  0  0  0  0  0  0  0  0
   17.8169   -8.4145   10.6850 H   0  0  0  0  0  0  0  0  0  0  0  0
   13.4263  -10.5823   11.1792 C   0  0  0  0  0  0  0  0  0  0  0  0
   14.3355  -10.2064   10.0191 C   0  0  0  0  0  0  0  0  0  0  0  0
   14.0540   -8.7840    9.5705 C   0  0  0  0  0  0  0  0  0  0  0  0
 27 28  1  0  0  0
 28 29  1  0  0  0
 28 16  1  0  0  0
 16 17  1  0  0  0
 17 18  2  0  0  0
 18 19  1  0  0  0
 19 20  2  0  0  0
 20 21  1  0  0  0
 21 22  2  0  0  0
 22 23  1  0  0  0
 23 24  2  0  0  0
 24 25  1  0  0  0
 16  1  1  0  0  0
  1  2  1  0  0  0
  2  3  2  0  0  0
  2  5  1  0  0  0
  5  6  2  0  0  0
  6  7  1  0  0  0
  7  8  1  0  0  0
  8  9  2  0  0  0
  9 10  1  0  0  0
 10 11  1  0  0  0
 11 12  2  0  0  0
  8 13  1  0  0  0
 13 14  2  0  0  0
 25 17  1  0  0  0
 24 19  1  0  0  0
 14  5  1  0  0  0
 11  7  1  0  0  0
 25 26  1  0  0  0
  1  4  1  0  0  0
 10 15  1  0  0  0
M  END
>  <minimizedAffinity>
-3.78746

>  <minimizedRMSD>
1.29065

$$$$
CSSS14880516900 Z6366842282


 27 30  0  0  0  0  0  0  0  0999 V2000
   19.1079  -11.6322   13.5462 C   0  0  0  0  0  0  0  0  0  0  0  0
   18.3211  -10.9330   14.6021 C   0  0  0  0  0  0  0  0  0  0  0  0
   18.1820  -11.5192   15.8752 C   0  0  0  0  0  0  0  0  0  0  0  0
   17.4297  -10.8828   16.8750 C   0  0  0  0  0  0  0  0  0  0  0  0
   16.8243   -9.6613   16.5762 C   0  0  0  0  0  0  0  0  0  0  0  0
   15.9991   -8.8364   17.4650 C   0  0  0  0  0  0  0  0  0  0  0  0
   15.7321   -9.1478   18.6551 O   0  0  0  0  0  0  0  0  0  0  0  0
   15.5138   -7.6329   16.8651 N   0  0  0  0  0  0  0  0  0  0  0  0
   16.1006   -7.5848   15.2409 S   0  0  0  0  0  0  0  0  0  0  0  0
   17.0158   -6.4139   15.0208 O   0  0  0  0  0  0  0  0  0  0  0  0
   14.9744   -7.6242   14.2473 O   0  0  0  0  0  0  0  0  0  0  0  0
   16.9612   -9.0902   15.3246 C   0  0  0  0  0  0  0  0  0  0  0  0
   17.7025   -9.7042   14.3174 C   0  0  0  0  0  0  0  0  0  0  0  0
   14.9477   -6.9543   17.2991 H   0  0  0  0  0  0  0  0  0  0  0  0
   16.5018  -10.7944   12.7245 O   0  0  0  0  0  0  0  0  0  0  0  0
   17.4409  -10.6755   11.8921 C   0  0  0  0  0  0  0  0  0  0  0  0
   18.7591  -11.1155   12.2298 N   0  0  0  0  0  0  0  0  0  0  0  0
   19.4619  -11.0670   11.5421 H   0  0  0  0  0  0  0  0  0  0  0  0
   17.1694  -10.0859   10.5716 C   0  0  0  0  0  0  0  0  0  0  0  0
   15.8153  -10.3488    9.6260 S   0  0  0  0  0  0  0  0  0  0  0  0
   16.1447   -9.3924    8.3037 N   0  0  0  0  0  0  0  0  0  0  0  0
   17.3495   -8.8377    8.5897 C   0  0  0  0  0  0  0  0  0  0  0  0
   17.9978   -7.9529    7.7280 C   0  0  0  0  0  0  0  0  0  0  0  0
   19.2402   -7.4241    8.1035 C   0  0  0  0  0  0  0  0  0  0  0  0
   19.8260   -7.7783    9.3297 C   0  0  0  0  0  0  0  0  0  0  0  0
   19.1780   -8.6668   10.1980 C   0  0  0  0  0  0  0  0  0  0  0  0
   17.9396   -9.1964    9.8262 C   0  0  0  0  0  0  0  0  0  0  0  0
 15 16  2  0  0  0
 16 17  1  0  0  0
 17  1  1  0  0  0
  1  2  1  0  0  0
  2  3  2  0  0  0
  3  4  1  0  0  0
  4  5  2  0  0  0
  5  6  1  0  0  0
  6  7  2  0  0  0
  6  8  1  0  0  0
  8  9  1  0  0  0
  9 10  2  0  0  0
  9 11  2  0  0  0
  9 12  1  0  0  0
 12 13  2  0  0  0
 16 19  1  0  0  0
 19 20  1  0  0  0
 20 21  1  0  0  0
 21 22  2  0  0  0
 22 23  1  0  0  0
 23 24  2  0  0  0
 24 25  1  0  0  0
 25 26  2  0  0  0
 26 27  1  0  0  0
 13  2  1  0  0  0
 27 19  2  0  0  0
 12  5  1  0  0  0
 27 22  1  0  0  0
 17 18  1  0  0  0
  8 14  1  0  0  0
M  END
>  <minimizedAffinity>
-3.77894

>  <minimizedRMSD>
1.30791

$$$$
CSSS14948277424


 28 31  0  0  0  0  0  0  0  0999 V2000
   16.7116   -9.7722   15.9759 C   0  0  0  0  0  0  0  0  0  0  0  0
   17.2483  -10.0096   14.7348 C   0  0  0  0  0  0  0  0  0  0  0  0
   17.2442   -9.1226   13.5316 C   0  0  0  0  0  0  0  0  0  0  0  0
   17.7413   -9.8710   12.3760 N   0  0  0  0  0  0  0  0  0  0  0  0
   18.8444  -10.8200   12.5471 C   0  0  0  0  0  0  0  0  0  0  0  0
   18.4851  -11.8538   13.6187 C   0  0  0  0  0  0  0  0  0  0  0  0
   17.8648  -11.1993   14.7665 N   0  0  0  0  0  0  0  0  0  0  0  0
   17.7192  -11.7486   15.9613 N   0  0  0  0  0  0  0  0  0  0  0  0
   17.0180  -10.8893   16.7380 C   0  0  0  0  0  0  0  0  0  0  0  0
   17.2315   -9.5779   11.0654 C   0  0  0  0  0  0  0  0  0  0  0  0
   18.0602   -9.0077   10.0766 C   0  0  0  0  0  0  0  0  0  0  0  0
   19.3992   -8.6853   10.3413 C   0  0  0  0  0  0  0  0  0  0  0  0
   20.1989   -8.1137    9.3499 C   0  0  0  0  0  0  0  0  0  0  0  0
   19.6679   -7.8547    8.0850 C   0  0  0  0  0  0  0  0  0  0  0  0
   18.3344   -8.1620    7.8027 C   0  0  0  0  0  0  0  0  0  0  0  0
   17.7063   -7.8133    6.2000 Cl  0  0  0  0  0  0  0  0  0  0  0  0
   17.5221   -8.7352    8.7955 C   0  0  0  0  0  0  0  0  0  0  0  0
   16.2191   -9.0236    8.5346 N   0  0  0  0  0  0  0  0  0  0  0  0
   15.4042   -9.5699    9.4731 C   0  0  0  0  0  0  0  0  0  0  0  0
   15.8862   -9.8544   10.7509 C   0  0  0  0  0  0  0  0  0  0  0  0
   14.9948  -10.4566   11.7087 C   0  0  0  0  0  0  0  0  0  0  0  0
   14.2799  -10.9403   12.4796 N   0  0  0  0  0  0  0  0  0  0  0  0
   16.0687   -8.0947   18.1809 N   0  0  0  0  0  0  0  0  0  0  0  0
   15.8105   -8.3598   16.4934 S   0  0  0  0  0  0  0  0  0  0  0  0
   14.3449   -8.5807   16.2478 O   0  0  0  0  0  0  0  0  0  0  0  0
   16.2780   -7.1553   15.7268 O   0  0  0  0  0  0  0  0  0  0  0  0
   15.5439   -7.2729   18.4802 H   0  0  0  0  0  0  0  0  0  0  0  0
   17.0628   -7.9448   18.3533 H   0  0  0  0  0  0  0  0  0  0  0  0
 23 24  1  0  0  0
 24 25  2  0  0  0
 24 26  2  0  0  0
 24  1  1  0  0  0
  1  2  2  0  0  0
  2  3  1  0  0  0
  3  4  1  0  0  0
  4  5  1  0  0  0
  5  6  1  0  0  0
  6  7  1  0  0  0
  7  8  1  0  0  0
  8  9  2  0  0  0
  4 10  1  0  0  0
 10 11  1  0  0  0
 11 12  2  0  0  0
 12 13  1  0  0  0
 13 14  2  0  0  0
 14 15  1  0  0  0
 15 16  1  0  0  0
 15 17  2  0  0  0
 17 18  1  0  0  0
 18 19  2  0  0  0
 19 20  1  0  0  0
 20 21  1  0  0  0
 21 22  3  0  0  0
  9  1  1  0  0  0
 20 10  2  0  0  0
  7  2  1  0  0  0
 17 11  1  0  0  0
 23 27  1  0  0  0
 23 28  1  0  0  0
M  END
>  <minimizedAffinity>
-3.77644

>  <minimizedRMSD>
0.82490

$$$$
1889258102 CSSS03437201405 MCULE-5265852573 MolPort-047-144-760 PubChem-146075271


 29 31  0  0  0  0  0  0  0  0999 V2000
   17.1151   -9.7365   13.0988 C   0  0  0  0  0  0  0  0  0  0  0  0
   18.3341  -10.0558   13.1446 O   0  0  0  0  0  0  0  0  0  0  0  0
   16.4527   -9.3153   14.2970 N   0  0  0  0  0  0  0  0  0  0  0  0
   15.4890   -9.1179   14.2566 H   0  0  0  0  0  0  0  0  0  0  0  0
   18.6794   -8.4992    9.1745 C   0  0  0  0  0  0  0  0  0  0  0  0
   18.1865   -8.8920   10.4284 C   0  0  0  0  0  0  0  0  0  0  0  0
   16.8833   -9.3938   10.5694 C   0  0  0  0  0  0  0  0  0  0  0  0
   16.3553   -9.7979   11.8221 C   0  0  0  0  0  0  0  0  0  0  0  0
   15.0405  -10.2818   11.8664 C   0  0  0  0  0  0  0  0  0  0  0  0
   14.2762  -10.3636   10.7036 C   0  0  0  0  0  0  0  0  0  0  0  0
   14.7995   -9.9735    9.5138 N   0  0  0  0  0  0  0  0  0  0  0  0
   16.0669   -9.4961    9.4154 C   0  0  0  0  0  0  0  0  0  0  0  0
   16.5596   -9.1050    8.1678 C   0  0  0  0  0  0  0  0  0  0  0  0
   17.8593   -8.6094    8.0490 C   0  0  0  0  0  0  0  0  0  0  0  0
   20.9664   -8.1125   10.0331 C   0  0  0  0  0  0  0  0  0  0  0  0
   19.9750   -7.9984    9.0212 O   0  0  0  0  0  0  0  0  0  0  0  0
   17.1402   -9.1658   15.5728 C   0  0  0  0  0  0  0  0  0  0  0  0
   16.2155   -8.6033   16.5985 C   0  0  0  0  0  0  0  0  0  0  0  0
   16.5893   -8.5938   17.9464 C   0  0  0  0  0  0  0  0  0  0  0  0
   15.7308   -8.0520   18.9073 C   0  0  0  0  0  0  0  0  0  0  0  0
   14.4955   -7.5180   18.5235 C   0  0  0  0  0  0  0  0  0  0  0  0
   14.1249   -7.5218   17.1741 C   0  0  0  0  0  0  0  0  0  0  0  0
   14.9832   -8.0635   16.2128 C   0  0  0  0  0  0  0  0  0  0  0  0
   13.4239   -6.8273   19.7278 S   0  0  0  0  0  0  0  0  0  0  0  0
   12.3103   -8.0293   20.2762 N   0  0  0  0  0  0  0  0  0  0  0  0
   14.2276   -6.3403   20.9007 O   0  0  0  0  0  0  0  0  0  0  0  0
   12.6652   -5.6784   19.1268 O   0  0  0  0  0  0  0  0  0  0  0  0
   12.8256   -8.8093   20.6842 H   0  0  0  0  0  0  0  0  0  0  0  0
   11.7554   -8.3634   19.4882 H   0  0  0  0  0  0  0  0  0  0  0  0
 15 16  1  0  0  0
 16  5  1  0  0  0
  5  6  2  0  0  0
  6  7  1  0  0  0
  7  8  2  0  0  0
  8  9  1  0  0  0
  9 10  2  0  0  0
 10 11  1  0  0  0
 11 12  2  0  0  0
 12 13  1  0  0  0
 13 14  2  0  0  0
  8  1  1  0  0  0
  1  2  2  0  0  0
  1  3  1  0  0  0
  3 17  1  0  0  0
 17 18  1  0  0  0
 18 19  2  0  0  0
 19 20  1  0  0  0
 20 21  2  0  0  0
 21 22  1  0  0  0
 22 23  2  0  0  0
 21 24  1  0  0  0
 24 25  1  0  0  0
 24 26  2  0  0  0
 24 27  2  0  0  0
 14  5  1  0  0  0
 23 18  1  0  0  0
 12  7  1  0  0  0
  3  4  1  0  0  0
 25 28  1  0  0  0
 25 29  1  0  0  0
M  END
>  <minimizedAffinity>
-3.77554

>  <minimizedRMSD>
3.04047

$$$$
91707788 CSSS00159835099 MCULE-3383649286 MolPort-027-823-379 ZINC000091707788 ZINC91707788


 27 30  0  0  0  0  0  0  0  0999 V2000
   17.6386   -9.9440    9.2964 C   0  0  0  0  0  0  0  0  0  0  0  0
   16.1477   -9.6457    9.4732 C   0  0  0  0  0  0  0  0  0  0  0  0
   15.5958  -10.4087   10.6737 C   0  0  0  0  0  0  0  0  0  0  0  0
   16.4147  -10.1208   11.8470 N   0  0  0  0  0  0  0  0  0  0  0  0
   17.8487  -10.3810   11.7560 C   0  0  0  0  0  0  0  0  0  0  0  0
   18.4263   -9.6183   10.5681 C   0  0  0  0  0  0  0  0  0  0  0  0
   15.8345   -9.5269   13.0177 C   0  0  0  0  0  0  0  0  0  0  0  0
   14.5893   -9.3447   13.0832 O   0  0  0  0  0  0  0  0  0  0  0  0
   19.6756   -7.5890    9.4132 C   0  0  0  0  0  0  0  0  0  0  0  0
   19.0819   -8.1667    8.2162 N   0  0  0  0  0  0  0  0  0  0  0  0
   18.1924   -9.1913    8.1269 C   0  0  0  0  0  0  0  0  0  0  0  0
   17.8412   -9.4858    6.8470 N   0  0  0  0  0  0  0  0  0  0  0  0
   18.5530   -8.5983    6.1263 C   0  0  0  0  0  0  0  0  0  0  0  0
   18.5736   -8.4536    4.7412 C   0  0  0  0  0  0  0  0  0  0  0  0
   19.4036   -7.4497    4.2069 C   0  0  0  0  0  0  0  0  0  0  0  0
   20.1783   -6.6285    5.0575 C   0  0  0  0  0  0  0  0  0  0  0  0
   20.1336   -6.7991    6.4540 C   0  0  0  0  0  0  0  0  0  0  0  0
   19.3007   -7.8033    6.9463 C   0  0  0  0  0  0  0  0  0  0  0  0
   16.6886   -9.0835   14.1611 C   0  0  0  0  0  0  0  0  0  0  0  0
   16.2476   -7.3902   14.6630 S   0  0  0  0  0  0  0  0  0  0  0  0
   15.9097   -7.8679   16.3535 C   0  0  0  0  0  0  0  0  0  0  0  0
   14.8753   -7.3873   17.0705 N   0  0  0  0  0  0  0  0  0  0  0  0
   15.0524   -8.0194   18.2461 C   0  0  0  0  0  0  0  0  0  0  0  0
   14.1560   -7.8400   19.4189 C   0  0  0  0  0  0  0  0  0  0  0  0
   16.1265   -8.8290   18.2480 N   0  0  0  0  0  0  0  0  0  0  0  0
   16.6707   -8.7327   17.0476 N   0  0  0  0  0  0  0  0  0  0  0  0
   17.4742   -9.2014   16.7252 H   0  0  0  0  0  0  0  0  0  0  0  0
  9 10  1  0  0  0
 10 11  1  0  0  0
 11 12  2  0  0  0
 11  1  1  0  0  0
 12 13  1  0  0  0
 13 14  2  0  0  0
 14 15  1  0  0  0
 15 16  2  0  0  0
 16 17  1  0  0  0
 17 18  2  0  0  0
 18 10  1  0  0  0
 18 13  1  0  0  0
  1  2  1  0  0  0
  2  3  1  0  0  0
  3  4  1  0  0  0
  4  5  1  0  0  0
  4  7  1  0  0  0
  5  6  1  0  0  0
  6  1  1  0  0  0
  7  8  2  0  0  0
  7 19  1  0  0  0
 19 20  1  0  0  0
 20 21  1  0  0  0
 21 22  2  0  0  0
 22 23  1  0  0  0
 23 24  1  0  0  0
 23 25  2  0  0  0
 25 26  1  0  0  0
 26 21  1  0  0  0
 26 27  1  0  0  0
M  END
>  <minimizedAffinity>
-3.75121

>  <minimizedRMSD>
2.43613

$$$$
CSC027593698 95944330 CSSS00027593698 MCULE-4130704575 MolPort-028-804-967 PubChem-75458455 Z1696200639 ZINC000095944330


 26 28  0  0  0  0  0  0  0  0999 V2000
   13.4101  -10.3142   10.5374 C   0  0  0  0  0  0  0  0  0  0  0  0
   14.8575   -9.9554   10.4874 C   0  0  0  0  0  0  0  0  0  0  0  0
   15.6966  -10.1439   11.5992 C   0  0  0  0  0  0  0  0  0  0  0  0
   15.1459  -10.7151   12.8698 C   0  0  0  0  0  0  0  0  0  0  0  0
   17.0586   -9.7938   11.5168 C   0  0  0  0  0  0  0  0  0  0  0  0
   17.5534   -9.2550   10.3012 C   0  0  0  0  0  0  0  0  0  0  0  0
   18.8949   -8.8797   10.1304 C   0  0  0  0  0  0  0  0  0  0  0  0
   19.3442   -8.3525    8.9173 C   0  0  0  0  0  0  0  0  0  0  0  0
   20.6431   -7.9968    8.7739 F   0  0  0  0  0  0  0  0  0  0  0  0
   18.4556   -8.1923    7.8534 C   0  0  0  0  0  0  0  0  0  0  0  0
   17.1170   -8.5592    8.0016 C   0  0  0  0  0  0  0  0  0  0  0  0
   16.6621   -9.0873    9.2136 C   0  0  0  0  0  0  0  0  0  0  0  0
   15.3583   -9.4379    9.3379 N   0  0  0  0  0  0  0  0  0  0  0  0
   17.8796  -10.0051   12.6826 N   0  0  0  0  0  0  0  0  0  0  0  0
   18.1880  -10.9267   12.8403 H   0  0  0  0  0  0  0  0  0  0  0  0
   18.3026   -9.0059   13.6516 C   0  0  0  0  0  0  0  0  0  0  0  0
   17.5632   -9.2046   14.9262 C   0  0  0  0  0  0  0  0  0  0  0  0
   17.5162  -10.3856   15.6405 C   0  0  0  0  0  0  0  0  0  0  0  0
   16.7038  -10.1177   16.7314 C   0  0  0  0  0  0  0  0  0  0  0  0
   16.3206   -8.7958   16.5877 C   0  0  0  0  0  0  0  0  0  0  0  0
   16.8437   -8.2776   15.5049 O   0  0  0  0  0  0  0  0  0  0  0  0
   15.4489   -8.0574   17.5069 C   0  0  0  0  0  0  0  0  0  0  0  0
   15.7554   -7.9933   18.8960 N   0  0  0  0  0  0  0  0  0  0  0  0
   14.4224   -7.4752   17.0690 O   0  0  0  0  0  0  0  0  0  0  0  0
   16.5568   -8.4465   19.2448 H   0  0  0  0  0  0  0  0  0  0  0  0
   15.1658   -7.4958   19.5077 H   0  0  0  0  0  0  0  0  0  0  0  0
  1  2  1  0  0  0
  2  3  2  0  0  0
  3  4  1  0  0  0
  3  5  1  0  0  0
  5 14  1  0  0  0
  5  6  2  0  0  0
 14 16  1  0  0  0
 16 17  1  0  0  0
 17 18  2  0  0  0
 18 19  1  0  0  0
 19 20  2  0  0  0
 20 21  1  0  0  0
 20 22  1  0  0  0
 21 17  1  0  0  0
 22 23  1  0  0  0
 22 24  2  0  0  0
  6  7  1  0  0  0
  7  8  2  0  0  0
  8  9  1  0  0  0
  8 10  1  0  0  0
 10 11  2  0  0  0
 11 12  1  0  0  0
 12 13  2  0  0  0
 12  6  1  0  0  0
 13  2  1  0  0  0
 14 15  1  0  0  0
 23 25  1  0  0  0
 23 26  1  0  0  0
M  END
>  <minimizedAffinity>
-3.73393

>  <minimizedRMSD>
1.46518

$$$$
CSC071993307 680371211 CSSS00071993307 MCULE-5895747660 MolPort-046-809-315 PubChem-145891513 Z1665667527


 25 28  0  0  0  0  0  0  0  0999 V2000
   16.4368   -8.7096   11.5259 C   0  0  0  0  0  0  0  0  0  0  0  0
   15.2314   -7.7530   16.5081 O   0  0  0  0  0  0  0  0  0  0  0  0
   16.1023   -8.6628   16.5187 C   0  0  0  0  0  0  0  0  0  0  0  0
   16.6314   -9.1320   17.7612 N   0  0  0  0  0  0  0  0  0  0  0  0
   17.8020  -10.0058   17.7745 C   0  0  0  0  0  0  0  0  0  0  0  0
   17.6963  -11.0585   16.6687 C   0  0  0  0  0  0  0  0  0  0  0  0
   17.3988  -10.4179   15.3411 C   0  0  0  0  0  0  0  0  0  0  0  0
   17.8938  -10.9954   14.1681 C   0  0  0  0  0  0  0  0  0  0  0  0
   17.5771  -10.4395   12.9250 C   0  0  0  0  0  0  0  0  0  0  0  0
   16.7537   -9.3111   12.8489 C   0  0  0  0  0  0  0  0  0  0  0  0
   16.2615   -8.7241   14.0192 C   0  0  0  0  0  0  0  0  0  0  0  0
   16.5803   -9.2737   15.2673 C   0  0  0  0  0  0  0  0  0  0  0  0
   16.2065   -8.8660   18.6085 H   0  0  0  0  0  0  0  0  0  0  0  0
   17.5648   -8.8843   10.6250 N   0  0  0  0  0  0  0  0  0  0  0  0
   18.4766   -8.7573   10.9740 H   0  0  0  0  0  0  0  0  0  0  0  0
   17.3940   -9.2341    9.2496 C   0  0  0  0  0  0  0  0  0  0  0  0
   18.1734   -8.6206    8.2649 C   0  0  0  0  0  0  0  0  0  0  0  0
   19.1096   -7.6824    8.5700 N   0  0  0  0  0  0  0  0  0  0  0  0
   19.8562   -7.0990    7.5944 C   0  0  0  0  0  0  0  0  0  0  0  0
   19.6595   -7.4678    6.2599 C   0  0  0  0  0  0  0  0  0  0  0  0
   18.7238   -8.4059    5.9523 N   0  0  0  0  0  0  0  0  0  0  0  0
   17.9759   -8.9911    6.9239 C   0  0  0  0  0  0  0  0  0  0  0  0
   17.0441   -9.9264    6.6085 N   0  0  0  0  0  0  0  0  0  0  0  0
   16.2952  -10.5125    7.5800 C   0  0  0  0  0  0  0  0  0  0  0  0
   16.4717  -10.1671    8.8838 N   0  0  0  0  0  0  0  0  0  0  0  0
  2  3  2  0  0  0
  3  4  1  0  0  0
  4  5  1  0  0  0
  5  6  1  0  0  0
  6  7  1  0  0  0
  7  8  2  0  0  0
  8  9  1  0  0  0
  9 10  2  0  0  0
 10  1  1  0  0  0
  1 14  1  0  0  0
 14 16  1  0  0  0
 16 17  1  0  0  0
 17 18  2  0  0  0
 18 19  1  0  0  0
 19 20  2  0  0  0
 20 21  1  0  0  0
 21 22  2  0  0  0
 22 23  1  0  0  0
 23 24  2  0  0  0
 24 25  1  0  0  0
 10 11  1  0  0  0
 11 12  2  0  0  0
 12  3  1  0  0  0
 12  7  1  0  0  0
 25 16  2  0  0  0
 22 17  1  0  0  0
  4 13  1  0  0  0
 14 15  1  0  0  0
M  END
>  <minimizedAffinity>
-3.72356

>  <minimizedRMSD>
1.40413

$$$$
CSSS00159810208 MCULE-1307476295 MolPort-016-630-313 PubChem-50985199


 25 26  0  0  0  0  0  0  0  0999 V2000
   16.1580   -9.3227   12.2351 C   0  0  0  0  0  0  0  0  0  0  0  0
   16.9328   -9.2373   11.0550 C   0  0  0  0  0  0  0  0  0  0  0  0
   18.2472   -8.7454   11.0672 C   0  0  0  0  0  0  0  0  0  0  0  0
   18.9939   -8.6818    9.8899 C   0  0  0  0  0  0  0  0  0  0  0  0
   20.3827   -8.1547    9.9200 C   0  0  0  0  0  0  0  0  0  0  0  0
   18.4379   -9.1132    8.6848 C   0  0  0  0  0  0  0  0  0  0  0  0
   17.1340   -9.6132    8.6472 C   0  0  0  0  0  0  0  0  0  0  0  0
   16.5771  -10.0686    7.3412 C   0  0  0  0  0  0  0  0  0  0  0  0
   16.3750   -9.6824    9.8294 C   0  0  0  0  0  0  0  0  0  0  0  0
   15.1081  -10.1796    9.8045 N   0  0  0  0  0  0  0  0  0  0  0  0
   14.3497  -10.2663   10.9270 C   0  0  0  0  0  0  0  0  0  0  0  0
   12.9712  -10.8151   10.8499 C   0  0  0  0  0  0  0  0  0  0  0  0
   14.8593   -9.8385   12.1514 C   0  0  0  0  0  0  0  0  0  0  0  0
   17.3637   -9.7098   14.4545 N   0  0  0  0  0  0  0  0  0  0  0  0
   18.0311  -10.9144   13.9690 C   0  0  0  0  0  0  0  0  0  0  0  0
   16.6518   -8.8430   13.5520 C   0  0  0  0  0  0  0  0  0  0  0  0
   16.4179   -7.6523   13.8980 O   0  0  0  0  0  0  0  0  0  0  0  0
   17.4964   -9.3269   15.8591 C   0  0  0  0  0  0  0  0  0  0  0  0
   18.7272   -9.9730   16.4786 C   0  0  0  0  0  0  0  0  0  0  0  0
   16.2363   -9.6910   16.6348 C   0  0  0  0  0  0  0  0  0  0  0  0
   15.1658   -7.1864   19.3880 C   0  0  0  0  0  0  0  0  0  0  0  0
   15.7090   -8.3476   18.7042 N   0  0  0  0  0  0  0  0  0  0  0  0
   15.6475   -8.4858   17.2847 C   0  0  0  0  0  0  0  0  0  0  0  0
   15.1212   -7.5878   16.5744 O   0  0  0  0  0  0  0  0  0  0  0  0
   16.1321   -9.0603   19.2356 H   0  0  0  0  0  0  0  0  0  0  0  0
 21 22  1  0  0  0
 22 23  1  0  0  0
 23 24  2  0  0  0
 23 20  1  0  0  0
 18 20  1  0  0  0
 18 19  1  0  0  0
 18 14  1  0  0  0
 14 15  1  0  0  0
 14 16  1  0  0  0
 16 17  2  0  0  0
 16  1  1  0  0  0
  1  2  2  0  0  0
  2  3  1  0  0  0
  3  4  2  0  0  0
  4  5  1  0  0  0
  4  6  1  0  0  0
  6  7  2  0  0  0
  7  8  1  0  0  0
  7  9  1  0  0  0
  9 10  2  0  0  0
  9  2  1  0  0  0
 10 11  1  0  0  0
 11 12  1  0  0  0
 11 13  2  0  0  0
 13  1  1  0  0  0
 22 25  1  0  0  0
M  END
>  <minimizedAffinity>
-3.71901

>  <minimizedRMSD>
1.73413

$$$$
CSSS00106413056 JPOOBDKNOYWVDF-UHFFFAOYSA-N MCULE-5381244145 PubChem-9508761 Z30932670


 30 33  0  0  0  0  0  0  0  0999 V2000
   17.6898   -9.8104   12.6879 C   0  0  0  0  0  0  0  0  0  0  0  0
   18.6888  -10.5616   12.8564 O   0  0  0  0  0  0  0  0  0  0  0  0
   17.0871   -9.1712   13.8175 N   0  0  0  0  0  0  0  0  0  0  0  0
   16.2598   -8.6555   13.6801 H   0  0  0  0  0  0  0  0  0  0  0  0
   13.5151  -10.5965   11.0784 C   0  0  0  0  0  0  0  0  0  0  0  0
   14.7732  -10.4689   11.9482 C   0  0  0  0  0  0  0  0  0  0  0  0
   15.8040   -9.9236   11.0303 C   0  0  0  0  0  0  0  0  0  0  0  0
   17.1397   -9.5904   11.3244 C   0  0  0  0  0  0  0  0  0  0  0  0
   17.9178   -9.0350   10.2726 C   0  0  0  0  0  0  0  0  0  0  0  0
   19.2680   -8.6904   10.4471 C   0  0  0  0  0  0  0  0  0  0  0  0
   20.0096   -8.1543    9.3915 C   0  0  0  0  0  0  0  0  0  0  0  0
   19.4138   -7.9587    8.1439 C   0  0  0  0  0  0  0  0  0  0  0  0
   18.0749   -8.3013    7.9451 C   0  0  0  0  0  0  0  0  0  0  0  0
   17.3234   -8.8397    8.9933 C   0  0  0  0  0  0  0  0  0  0  0  0
   16.0232   -9.1786    8.7799 N   0  0  0  0  0  0  0  0  0  0  0  0
   15.2835   -9.7114    9.7821 C   0  0  0  0  0  0  0  0  0  0  0  0
   13.8624  -10.0923    9.6731 C   0  0  0  0  0  0  0  0  0  0  0  0
   17.6430   -9.2495   15.1613 C   0  0  0  0  0  0  0  0  0  0  0  0
   16.6488   -8.7618   16.1596 C   0  0  0  0  0  0  0  0  0  0  0  0
   15.4845   -8.1141   15.7317 C   0  0  0  0  0  0  0  0  0  0  0  0
   14.5633   -7.6387   16.6694 C   0  0  0  0  0  0  0  0  0  0  0  0
   14.8034   -7.8086   18.0375 C   0  0  0  0  0  0  0  0  0  0  0  0
   15.9718   -8.4498   18.4646 C   0  0  0  0  0  0  0  0  0  0  0  0
   16.8932   -8.9253   17.5271 C   0  0  0  0  0  0  0  0  0  0  0  0
   13.6536   -7.2012   19.2142 S   0  0  0  0  0  0  0  0  0  0  0  0
   14.2929   -7.1626   20.5737 O   0  0  0  0  0  0  0  0  0  0  0  0
   13.2181   -5.8172   18.8243 O   0  0  0  0  0  0  0  0  0  0  0  0
   12.2762   -8.2427   19.2757 N   0  0  0  0  0  0  0  0  0  0  0  0
   12.5720   -9.1823   19.5404 H   0  0  0  0  0  0  0  0  0  0  0  0
   11.8310   -8.2722   18.3584 H   0  0  0  0  0  0  0  0  0  0  0  0
  5  6  1  0  0  0
  6  7  1  0  0  0
  7  8  2  0  0  0
  8  9  1  0  0  0
  9 10  2  0  0  0
 10 11  1  0  0  0
 11 12  2  0  0  0
 12 13  1  0  0  0
 13 14  2  0  0  0
 14 15  1  0  0  0
 15 16  2  0  0  0
 16 17  1  0  0  0
  8  1  1  0  0  0
  1  2  2  0  0  0
  1  3  1  0  0  0
  3 18  1  0  0  0
 18 19  1  0  0  0
 19 20  2  0  0  0
 20 21  1  0  0  0
 21 22  2  0  0  0
 22 23  1  0  0  0
 23 24  2  0  0  0
 22 25  1  0  0  0
 25 26  2  0  0  0
 25 27  2  0  0  0
 25 28  1  0  0  0
 17  5  1  0  0  0
 16  7  1  0  0  0
 14  9  1  0  0  0
 24 19  1  0  0  0
  3  4  1  0  0  0
 28 29  1  0  0  0
 28 30  1  0  0  0
M  END
>  <minimizedAffinity>
-3.68415

>  <minimizedRMSD>
2.42288

$$$$
CSSS20521990283


 33 35  0  0  0  0  0  0  0  0999 V2000
   16.1153   -9.9945   14.9146 C   0  0  0  0  0  0  0  0  0  0  0  0
   17.2295  -10.7237   14.3207 N   0  0  0  0  0  0  0  0  0  0  0  0
   18.2282  -11.2852   15.2160 C   0  0  0  0  0  0  0  0  0  0  0  0
   17.3014  -10.9784   12.9077 C   0  0  0  0  0  0  0  0  0  0  0  0
   18.2786  -11.6139   12.4288 O   0  0  0  0  0  0  0  0  0  0  0  0
   16.2139  -10.5258   11.9829 C   0  0  0  0  0  0  0  0  0  0  0  0
   16.7830   -9.9431   10.7732 N   0  0  0  0  0  0  0  0  0  0  0  0
   16.1830  -10.2209    9.5682 C   0  0  0  0  0  0  0  0  0  0  0  0
   16.6785   -9.7081    8.4019 N   0  0  0  0  0  0  0  0  0  0  0  0
   17.7778   -8.9209    8.4736 C   0  0  0  0  0  0  0  0  0  0  0  0
   18.3916   -8.6278    9.6424 C   0  0  0  0  0  0  0  0  0  0  0  0
   19.4607   -7.8076    9.3255 C   0  0  0  0  0  0  0  0  0  0  0  0
   19.4447   -7.6408    7.9745 N   0  0  0  0  0  0  0  0  0  0  0  0
   18.4213   -8.3195    7.4688 N   0  0  0  0  0  0  0  0  0  0  0  0
   18.0868   -8.3732    6.0567 C   0  0  0  0  0  0  0  0  0  0  0  0
   17.8970   -9.1406   10.8328 C   0  0  0  0  0  0  0  0  0  0  0  0
   18.4548   -8.8718   11.9317 O   0  0  0  0  0  0  0  0  0  0  0  0
   16.3945   -8.4978   14.9480 C   0  0  0  0  0  0  0  0  0  0  0  0
   15.7539   -7.8990   16.1115 N   0  0  0  0  0  0  0  0  0  0  0  0
   15.8976   -8.4318   17.4299 C   0  0  0  0  0  0  0  0  0  0  0  0
   16.6723   -9.4045   17.6366 O   0  0  0  0  0  0  0  0  0  0  0  0
   15.1998   -7.0952   15.9844 H   0  0  0  0  0  0  0  0  0  0  0  0
   15.1525   -7.8494   18.5567 C   0  0  0  0  0  0  0  0  0  0  0  0
   13.8957   -7.2717   18.5290 C   0  0  0  0  0  0  0  0  0  0  0  0
   12.8064   -7.0625   17.1661 Cl  0  0  0  0  0  0  0  0  0  0  0  0
   13.6668   -6.8984   19.8350 C   0  0  0  0  0  0  0  0  0  0  0  0
   14.7202   -7.2446   20.5976 N   0  0  0  0  0  0  0  0  0  0  0  0
   15.6256   -7.8193   19.8191 N   0  0  0  0  0  0  0  0  0  0  0  0
   16.4985   -8.1666   20.1135 H   0  0  0  0  0  0  0  0  0  0  0  0
   12.4275   -6.2654   20.3675 C   0  0  0  0  0  0  0  0  0  0  0  0
   11.2277   -6.7174   19.5590 C   0  0  0  0  0  0  0  0  0  0  0  0
   15.9351   -6.3598   13.7590 C   0  0  0  0  0  0  0  0  0  0  0  0
   15.8392   -7.8714   13.6828 C   0  0  0  0  0  0  0  0  0  0  0  0
 32 33  1  0  0  0
 33 18  1  0  0  0
 18  1  1  0  0  0
  1  2  1  0  0  0
  2  3  1  0  0  0
  2  4  1  0  0  0
  4  5  2  0  0  0
  4  6  1  0  0  0
  6  7  1  0  0  0
  7  8  1  0  0  0
  8  9  2  0  0  0
  9 10  1  0  0  0
 10 11  2  0  0  0
 11 12  1  0  0  0
 12 13  2  0  0  0
 13 14  1  0  0  0
 14 15  1  0  0  0
 11 16  1  0  0  0
 16 17  2  0  0  0
 18 19  1  0  0  0
 19 20  1  0  0  0
 20 21  2  0  0  0
 20 23  1  0  0  0
 23 24  2  0  0  0
 24 25  1  0  0  0
 24 26  1  0  0  0
 26 30  1  0  0  0
 30 31  1  0  0  0
 26 27  2  0  0  0
 27 28  1  0  0  0
 16  7  1  0  0  0
 28 23  1  0  0  0
 14 10  1  0  0  0
 19 22  1  0  0  0
 28 29  1  0  0  0
M  END
>  <minimizedAffinity>
-3.63011

>  <minimizedRMSD>
2.68011

$$$$
CSSS04318711945 Z6739588439


 26 28  0  0  0  0  0  0  0  0999 V2000
   18.0160   -9.8399   11.8655 N   0  0  0  0  0  0  0  0  0  0  0  0
   18.8475   -9.3129   11.8699 H   0  0  0  0  0  0  0  0  0  0  0  0
   19.9613   -7.4204    7.2466 C   0  0  0  0  0  0  0  0  0  0  0  0
   18.7878   -8.0357    7.9265 C   0  0  0  0  0  0  0  0  0  0  0  0
   17.2597   -8.1988    7.2211 S   0  0  0  0  0  0  0  0  0  0  0  0
   16.5799   -8.9367    8.5648 C   0  0  0  0  0  0  0  0  0  0  0  0
   15.3011   -9.3620    8.6937 N   0  0  0  0  0  0  0  0  0  0  0  0
   14.9172   -9.9434    9.8640 C   0  0  0  0  0  0  0  0  0  0  0  0
   13.5189  -10.4180   10.0298 C   0  0  0  0  0  0  0  0  0  0  0  0
   15.8106  -10.0923   10.8860 N   0  0  0  0  0  0  0  0  0  0  0  0
   17.1052   -9.6713   10.7752 C   0  0  0  0  0  0  0  0  0  0  0  0
   17.5125   -9.0704    9.5767 C   0  0  0  0  0  0  0  0  0  0  0  0
   18.7750   -8.5596    9.2223 C   0  0  0  0  0  0  0  0  0  0  0  0
   19.9761   -8.5656   10.1094 C   0  0  0  0  0  0  0  0  0  0  0  0
   17.7672  -10.7558   12.9678 C   0  0  0  0  0  0  0  0  0  0  0  0
   18.8289  -11.8548   12.9832 C   0  0  0  0  0  0  0  0  0  0  0  0
   18.6544  -12.7400   14.2128 C   0  0  0  0  0  0  0  0  0  0  0  0
   18.6561  -11.8719   15.4686 C   0  0  0  0  0  0  0  0  0  0  0  0
   17.5659  -10.8973   15.4047 N   0  0  0  0  0  0  0  0  0  0  0  0
   17.8169   -9.9878   14.2859 C   0  0  0  0  0  0  0  0  0  0  0  0
   17.6153   -9.9608   16.8636 S   0  0  0  0  0  0  0  0  0  0  0  0
   18.7299   -8.9529   16.7976 O   0  0  0  0  0  0  0  0  0  0  0  0
   16.3073   -9.2432   17.0446 O   0  0  0  0  0  0  0  0  0  0  0  0
   17.8738  -11.0082   18.2133 N   0  0  0  0  0  0  0  0  0  0  0  0
   18.7603  -11.4992   18.0977 H   0  0  0  0  0  0  0  0  0  0  0  0
   17.1140  -11.6866   18.2676 H   0  0  0  0  0  0  0  0  0  0  0  0
  3  4  1  0  0  0
  4  5  1  0  0  0
  5  6  1  0  0  0
  6  7  2  0  0  0
  7  8  1  0  0  0
  8  9  1  0  0  0
  8 10  2  0  0  0
 10 11  1  0  0  0
 11  1  1  0  0  0
 15  1  1  0  0  0
 15 16  1  0  0  0
 16 17  1  0  0  0
 17 18  1  0  0  0
 18 19  1  0  0  0
 19 20  1  0  0  0
 19 21  1  0  0  0
 21 22  2  0  0  0
 21 23  2  0  0  0
 21 24  1  0  0  0
 11 12  2  0  0  0
 12 13  1  0  0  0
 13 14  1  0  0  0
 13  4  2  0  0  0
 12  6  1  0  0  0
 20 15  1  0  0  0
  1  2  1  0  0  0
 24 25  1  0  0  0
 24 26  1  0  0  0
M  END
>  <minimizedAffinity>
-3.61057

>  <minimizedRMSD>
1.89901

$$$$
CSC028118422 9614012 CSSS00028118422 MCULE-8051889559 MolPort-004-210-711 PubChem-16363345 Z62869356 ZINC000009614012


 31 34  0  0  0  0  0  0  0  0999 V2000
   17.5433  -10.7850   12.8533 C   0  0  0  0  0  0  0  0  0  0  0  0
   17.2659   -9.7599   13.7687 C   0  0  0  0  0  0  0  0  0  0  0  0
   18.0136   -9.6376   14.9447 C   0  0  0  0  0  0  0  0  0  0  0  0
   19.0468  -10.5421   15.2092 C   0  0  0  0  0  0  0  0  0  0  0  0
   19.3298  -11.5666   14.3027 C   0  0  0  0  0  0  0  0  0  0  0  0
   18.5810  -11.6876   13.1286 C   0  0  0  0  0  0  0  0  0  0  0  0
   16.5147  -12.0480   11.1307 O   0  0  0  0  0  0  0  0  0  0  0  0
   16.7560  -10.9081   11.6146 C   0  0  0  0  0  0  0  0  0  0  0  0
   16.2632   -9.7342   10.9602 N   0  0  0  0  0  0  0  0  0  0  0  0
   16.4177   -8.8590   11.3838 H   0  0  0  0  0  0  0  0  0  0  0  0
   15.5435   -9.7783    9.6954 C   0  0  0  0  0  0  0  0  0  0  0  0
   16.4727   -9.4821    8.5647 C   0  0  0  0  0  0  0  0  0  0  0  0
   17.5984   -8.7591    8.6601 N   0  0  0  0  0  0  0  0  0  0  0  0
   18.1170   -8.8080    7.4275 C   0  0  0  0  0  0  0  0  0  0  0  0
   19.3146   -8.1675    7.1233 C   0  0  0  0  0  0  0  0  0  0  0  0
   19.9496   -7.4716    8.1670 C   0  0  0  0  0  0  0  0  0  0  0  0
   19.3831   -7.4372    9.4580 C   0  0  0  0  0  0  0  0  0  0  0  0
   18.1726   -8.1047    9.6997 C   0  0  0  0  0  0  0  0  0  0  0  0
   17.3548   -9.5357    6.5909 N   0  0  0  0  0  0  0  0  0  0  0  0
   16.3199   -9.9633    7.3106 N   0  0  0  0  0  0  0  0  0  0  0  0
   17.6607   -8.3536   16.0889 S   0  0  0  0  0  0  0  0  0  0  0  0
   18.9170   -7.9930   16.8294 O   0  0  0  0  0  0  0  0  0  0  0  0
   17.1546   -7.1406   15.3576 O   0  0  0  0  0  0  0  0  0  0  0  0
   16.4605   -8.8837   17.2184 N   0  0  0  0  0  0  0  0  0  0  0  0
   16.7650   -8.6798   18.1703 H   0  0  0  0  0  0  0  0  0  0  0  0
   15.2311   -8.1637   16.9265 C   0  0  0  0  0  0  0  0  0  0  0  0
   14.6080   -7.6940   18.1930 C   0  0  0  0  0  0  0  0  0  0  0  0
   13.0760   -7.0343   18.3224 S   0  0  0  0  0  0  0  0  0  0  0  0
   13.1159   -6.7658   19.9830 C   0  0  0  0  0  0  0  0  0  0  0  0
   14.3571   -7.2013   20.4434 C   0  0  0  0  0  0  0  0  0  0  0  0
   15.1958   -7.7201   19.4462 C   0  0  0  0  0  0  0  0  0  0  0  0
  7  8  2  0  0  0
  8  1  1  0  0  0
  1  2  2  0  0  0
  2  3  1  0  0  0
  3 21  1  0  0  0
 21 24  1  0  0  0
 24 26  1  0  0  0
 26 27  1  0  0  0
 27 28  1  0  0  0
 28 29  1  0  0  0
 29 30  2  0  0  0
 30 31  1  0  0  0
 21 22  2  0  0  0
 21 23  2  0  0  0
  3  4  2  0  0  0
  4  5  1  0  0  0
  5  6  2  0  0  0
  8  9  1  0  0  0
  9 11  1  0  0  0
 11 12  1  0  0  0
 12 13  1  0  0  0
 13 14  1  0  0  0
 14 15  1  0  0  0
 15 16  2  0  0  0
 16 17  1  0  0  0
 17 18  2  0  0  0
 14 19  2  0  0  0
 19 20  1  0  0  0
  6  1  1  0  0  0
 20 12  2  0  0  0
 31 27  2  0  0  0
 18 13  1  0  0  0
 24 25  1  0  0  0
  9 10  1  0  0  0
M  END
>  <minimizedAffinity>
-3.60927

>  <minimizedRMSD>
1.91767

$$$$
CSC026927903 CSSS00026927903 MCULE-6042793176 MolPort-005-638-388 PubChem-17510224 Z89553443


 28 31  0  0  0  0  0  0  0  0999 V2000
   17.1464   -9.9180   13.3249 N   0  0  0  0  0  0  0  0  0  0  0  0
   16.2942   -8.8186   12.8812 C   0  0  0  0  0  0  0  0  0  0  0  0
   17.0230  -10.4627   14.6514 C   0  0  0  0  0  0  0  0  0  0  0  0
   17.2998  -11.6790   14.8428 O   0  0  0  0  0  0  0  0  0  0  0  0
   16.5981   -9.6387   15.8072 C   0  0  0  0  0  0  0  0  0  0  0  0
   15.6775   -8.5921   15.6551 C   0  0  0  0  0  0  0  0  0  0  0  0
   15.3088   -7.8062   16.7498 C   0  0  0  0  0  0  0  0  0  0  0  0
   15.8608   -8.0505   18.0154 C   0  0  0  0  0  0  0  0  0  0  0  0
   16.7894   -9.0843   18.1671 C   0  0  0  0  0  0  0  0  0  0  0  0
   17.1583   -9.8705   17.0720 C   0  0  0  0  0  0  0  0  0  0  0  0
   15.5103   -7.2638   19.1621 N   0  0  0  0  0  0  0  0  0  0  0  0
   14.2616   -7.2842   19.8689 C   0  0  0  0  0  0  0  0  0  0  0  0
   13.3439   -8.0846   19.5430 O   0  0  0  0  0  0  0  0  0  0  0  0
   16.1980   -6.6454   19.4995 H   0  0  0  0  0  0  0  0  0  0  0  0
   14.0663   -6.3801   21.0422 C   0  0  0  0  0  0  0  0  0  0  0  0
   12.8094   -6.7745   21.7968 C   0  0  0  0  0  0  0  0  0  0  0  0
   12.7880   -5.5795   20.8716 C   0  0  0  0  0  0  0  0  0  0  0  0
   17.6584  -12.0024   12.1070 C   0  0  0  0  0  0  0  0  0  0  0  0
   18.0572  -10.5597   12.3770 C   0  0  0  0  0  0  0  0  0  0  0  0
   18.1643   -9.7735   11.1107 C   0  0  0  0  0  0  0  0  0  0  0  0
   17.2526   -9.8304   10.1073 N   0  0  0  0  0  0  0  0  0  0  0  0
   17.5967   -8.9950    9.0954 C   0  0  0  0  0  0  0  0  0  0  0  0
   16.8575   -8.8331    7.9237 C   0  0  0  0  0  0  0  0  0  0  0  0
   17.3266   -7.9311    6.9536 C   0  0  0  0  0  0  0  0  0  0  0  0
   18.5168   -7.2076    7.1653 C   0  0  0  0  0  0  0  0  0  0  0  0
   19.2526   -7.3771    8.3488 C   0  0  0  0  0  0  0  0  0  0  0  0
   18.7666   -8.2777    9.2926 C   0  0  0  0  0  0  0  0  0  0  0  0
   19.4185   -8.6846   10.7834 S   0  0  0  0  0  0  0  0  0  0  0  0
 19 18  1  0  0  0
 19  1  1  0  0  0
 19 20  1  0  0  0
  1  2  1  0  0  0
  1  3  1  0  0  0
  3  4  2  0  0  0
  3  5  1  0  0  0
  5  6  2  0  0  0
  6  7  1  0  0  0
  7  8  2  0  0  0
  8 11  1  0  0  0
  8  9  1  0  0  0
 11 12  1  0  0  0
 12 13  2  0  0  0
 12 15  1  0  0  0
 15 16  1  0  0  0
 16 17  1  0  0  0
 17 15  1  0  0  0
  9 10  2  0  0  0
 10  5  1  0  0  0
 20 21  2  0  0  0
 21 22  1  0  0  0
 22 23  2  0  0  0
 23 24  1  0  0  0
 24 25  2  0  0  0
 25 26  1  0  0  0
 26 27  2  0  0  0
 27 28  1  0  0  0
 27 22  1  0  0  0
 28 20  1  0  0  0
 11 14  1  0  0  0
M  END
>  <minimizedAffinity>
-3.60814

>  <minimizedRMSD>
2.49731

$$$$
96180130 CSSS00159647075 MCULE-9896533273 MolPort-029-905-900 PubChem-72937945 ZINC000096180130


 28 31  0  0  0  0  0  0  0  0999 V2000
   17.1634  -10.1031   12.4982 N   0  0  0  0  0  0  0  0  0  0  0  0
   18.1337  -11.1238   12.8874 C   0  0  0  0  0  0  0  0  0  0  0  0
   19.2617  -10.4866   13.6970 C   0  0  0  0  0  0  0  0  0  0  0  0
   18.7187   -9.6457   14.8578 C   0  0  0  0  0  0  0  0  0  0  0  0
   17.6720   -8.6310   14.3845 C   0  0  0  0  0  0  0  0  0  0  0  0
   16.5704   -9.2987   13.5630 C   0  0  0  0  0  0  0  0  0  0  0  0
   17.3609   -9.3581   10.1251 C   0  0  0  0  0  0  0  0  0  0  0  0
   16.8273   -9.2851    8.8829 C   0  0  0  0  0  0  0  0  0  0  0  0
   15.6195   -9.8096    8.5715 N   0  0  0  0  0  0  0  0  0  0  0  0
   14.9197  -10.4339    9.5648 C   0  0  0  0  0  0  0  0  0  0  0  0
   15.4358  -10.5210   10.8324 N   0  0  0  0  0  0  0  0  0  0  0  0
   16.6598   -9.9967   11.1531 C   0  0  0  0  0  0  0  0  0  0  0  0
   17.6446   -8.6491    8.0913 O   0  0  0  0  0  0  0  0  0  0  0  0
   18.6779   -8.3278    8.8538 C   0  0  0  0  0  0  0  0  0  0  0  0
   18.5594   -8.7480   10.1427 N   0  0  0  0  0  0  0  0  0  0  0  0
   19.8711   -7.5982    8.3455 C   0  0  0  0  0  0  0  0  0  0  0  0
   19.7642   -7.4244    6.8441 C   0  0  0  0  0  0  0  0  0  0  0  0
   18.2223  -10.4919   15.9954 C   0  0  0  0  0  0  0  0  0  0  0  0
   18.2516  -11.8384   16.0014 N   0  0  0  0  0  0  0  0  0  0  0  0
   17.7100  -12.1874   17.1890 C   0  0  0  0  0  0  0  0  0  0  0  0
   17.3584  -11.0443   17.8874 C   0  0  0  0  0  0  0  0  0  0  0  0
   17.6937   -9.9917   17.1246 N   0  0  0  0  0  0  0  0  0  0  0  0
   17.4674   -8.5913   17.4525 C   0  0  0  0  0  0  0  0  0  0  0  0
   16.0108   -8.3340   17.6348 C   0  0  0  0  0  0  0  0  0  0  0  0
   15.5093   -7.9551   18.9109 N   0  0  0  0  0  0  0  0  0  0  0  0
   15.2192   -8.4860   16.6688 O   0  0  0  0  0  0  0  0  0  0  0  0
   16.1280   -7.8359   19.6674 H   0  0  0  0  0  0  0  0  0  0  0  0
   14.5435   -7.8121   19.0376 H   0  0  0  0  0  0  0  0  0  0  0  0
  7  8  1  0  0  0
  8  9  2  0  0  0
  9 10  1  0  0  0
 10 11  2  0  0  0
 11 12  1  0  0  0
 12  1  1  0  0  0
  1  2  1  0  0  0
  2  3  1  0  0  0
  3  4  1  0  0  0
  4  5  1  0  0  0
  5  6  1  0  0  0
  4 18  1  0  0  0
 18 19  2  0  0  0
 19 20  1  0  0  0
 20 21  2  0  0  0
 21 22  1  0  0  0
 22 23  1  0  0  0
 23 24  1  0  0  0
 24 25  1  0  0  0
 24 26  2  0  0  0
  8 13  1  0  0  0
 13 14  1  0  0  0
 14 16  1  0  0  0
 16 17  1  0  0  0
 14 15  2  0  0  0
 12  7  2  0  0  0
  6  1  1  0  0  0
 22 18  1  0  0  0
 15  7  1  0  0  0
 25 27  1  0  0  0
 25 28  1  0  0  0
M  END
>  <minimizedAffinity>
-3.59627

>  <minimizedRMSD>
1.63619

$$$$
CSSS02287702748 Z4458323339


 32 35  0  0  0  0  0  0  0  0999 V2000
   18.5473   -8.8512    9.5188 C   0  0  0  0  0  0  0  0  0  0  0  0
   19.6590   -8.1833    9.9530 N   0  0  0  0  0  0  0  0  0  0  0  0
   20.4766   -7.5159    9.0772 C   0  0  0  0  0  0  0  0  0  0  0  0
   20.1971   -7.5029    7.7388 N   0  0  0  0  0  0  0  0  0  0  0  0
   19.0943   -8.1656    7.3094 C   0  0  0  0  0  0  0  0  0  0  0  0
   18.6355   -8.2821    6.0501 N   0  0  0  0  0  0  0  0  0  0  0  0
   17.5274   -9.0187    6.0994 N   0  0  0  0  0  0  0  0  0  0  0  0
   17.2707   -9.3772    7.3854 C   0  0  0  0  0  0  0  0  0  0  0  0
   18.2742   -8.8307    8.1587 C   0  0  0  0  0  0  0  0  0  0  0  0
   19.1988   -7.7327    4.8389 C   0  0  0  0  0  0  0  0  0  0  0  0
   20.2580   -6.8118    4.9055 C   0  0  0  0  0  0  0  0  0  0  0  0
   20.8138   -6.2714    3.7441 C   0  0  0  0  0  0  0  0  0  0  0  0
   20.3171   -6.6450    2.4955 C   0  0  0  0  0  0  0  0  0  0  0  0
   21.0121   -5.9689    1.0385 Cl  0  0  0  0  0  0  0  0  0  0  0  0
   19.2655   -7.5582    2.4087 C   0  0  0  0  0  0  0  0  0  0  0  0
   18.7049   -8.1028    3.5684 C   0  0  0  0  0  0  0  0  0  0  0  0
   17.6848   -8.9864    3.4385 F   0  0  0  0  0  0  0  0  0  0  0  0
   17.6951   -9.5462   10.4299 N   0  0  0  0  0  0  0  0  0  0  0  0
   16.7724   -9.7537   10.1565 H   0  0  0  0  0  0  0  0  0  0  0  0
   18.1484   -9.9567   11.7489 C   0  0  0  0  0  0  0  0  0  0  0  0
   16.2612   -9.3508   14.9812 C   0  0  0  0  0  0  0  0  0  0  0  0
   14.9379   -9.5281   14.5514 C   0  0  0  0  0  0  0  0  0  0  0  0
   14.6640   -9.8472   13.2183 C   0  0  0  0  0  0  0  0  0  0  0  0
   15.7116   -9.9933   12.3052 C   0  0  0  0  0  0  0  0  0  0  0  0
   17.0344   -9.8259   12.7258 C   0  0  0  0  0  0  0  0  0  0  0  0
   17.3070   -9.4991   14.0582 C   0  0  0  0  0  0  0  0  0  0  0  0
   15.5963   -8.2658   17.1523 N   0  0  0  0  0  0  0  0  0  0  0  0
   16.5489   -9.0109   16.3856 C   0  0  0  0  0  0  0  0  0  0  0  0
   17.6376   -9.3719   16.9116 O   0  0  0  0  0  0  0  0  0  0  0  0
   14.7675   -7.9692   16.7115 H   0  0  0  0  0  0  0  0  0  0  0  0
   14.4915   -7.4672   19.1753 C   0  0  0  0  0  0  0  0  0  0  0  0
   15.7971   -7.9269   18.5540 C   0  0  0  0  0  0  0  0  0  0  0  0
 31 32  1  0  0  0
 32 27  1  0  0  0
 27 28  1  0  0  0
 28 29  2  0  0  0
 28 21  1  0  0  0
 21 22  2  0  0  0
 22 23  1  0  0  0
 23 24  2  0  0  0
 24 25  1  0  0  0
 25 20  1  0  0  0
 20 18  1  0  0  0
 18  1  1  0  0  0
  1  2  2  0  0  0
  2  3  1  0  0  0
  3  4  2  0  0  0
  4  5  1  0  0  0
  5  6  1  0  0  0
  6  7  1  0  0  0
  7  8  2  0  0  0
  8  9  1  0  0  0
  6 10  1  0  0  0
 10 11  2  0  0  0
 11 12  1  0  0  0
 12 13  2  0  0  0
 13 14  1  0  0  0
 13 15  1  0  0  0
 15 16  2  0  0  0
 16 17  1  0  0  0
 25 26  2  0  0  0
 26 21  1  0  0  0
  9  1  1  0  0  0
 16 10  1  0  0  0
  9  5  2  0  0  0
 27 30  1  0  0  0
 18 19  1  0  0  0
M  END
>  <minimizedAffinity>
-3.58781

>  <minimizedRMSD>
2.74543

$$$$
CSC028037104 40156719 CSSS00028037104 MCULE-1491285394 MolPort-009-342-776 PubChem-45916236 Z736034082 ZINC000040156719 ZINC40156719


 32 36  0  0  0  0  0  0  0  0999 V2000
   17.0378  -10.9715   11.7004 C   0  0  0  0  0  0  0  0  0  0  0  0
   16.5862  -12.1497   11.7085 O   0  0  0  0  0  0  0  0  0  0  0  0
   17.5744  -10.4095   12.9169 N   0  0  0  0  0  0  0  0  0  0  0  0
   17.5820   -9.1608    8.6010 N   0  0  0  0  0  0  0  0  0  0  0  0
   18.0853   -9.7862    9.6821 C   0  0  0  0  0  0  0  0  0  0  0  0
   17.0079  -10.2168   10.4307 C   0  0  0  0  0  0  0  0  0  0  0  0
   15.8697   -9.8312    9.7449 C   0  0  0  0  0  0  0  0  0  0  0  0
   16.2583   -9.1829    8.6308 N   0  0  0  0  0  0  0  0  0  0  0  0
   18.4053   -8.5402    3.5151 Cl  0  0  0  0  0  0  0  0  0  0  0  0
   18.7932   -8.2098    5.1891 C   0  0  0  0  0  0  0  0  0  0  0  0
   19.8480   -7.3496    5.5047 C   0  0  0  0  0  0  0  0  0  0  0  0
   20.1572   -7.0845    6.8414 C   0  0  0  0  0  0  0  0  0  0  0  0
   19.4123   -7.6811    7.8625 C   0  0  0  0  0  0  0  0  0  0  0  0
   18.3490   -8.5455    7.5556 C   0  0  0  0  0  0  0  0  0  0  0  0
   18.0437   -8.8021    6.2103 C   0  0  0  0  0  0  0  0  0  0  0  0
   17.8435  -11.2858   14.0583 C   0  0  0  0  0  0  0  0  0  0  0  0
   18.7878  -12.4001   13.6380 C   0  0  0  0  0  0  0  0  0  0  0  0
   19.3148  -11.2312   14.4376 C   0  0  0  0  0  0  0  0  0  0  0  0
   17.5746   -8.9635   13.1372 C   0  0  0  0  0  0  0  0  0  0  0  0
   16.8375   -8.6222   14.3884 C   0  0  0  0  0  0  0  0  0  0  0  0
   17.4830   -8.7153   15.6257 C   0  0  0  0  0  0  0  0  0  0  0  0
   16.7914   -8.4083   16.8013 C   0  0  0  0  0  0  0  0  0  0  0  0
   15.4474   -8.0117   16.7495 C   0  0  0  0  0  0  0  0  0  0  0  0
   14.8030   -7.9314   15.5059 C   0  0  0  0  0  0  0  0  0  0  0  0
   15.4955   -8.2340   14.3301 C   0  0  0  0  0  0  0  0  0  0  0  0
   14.7213   -7.6791   17.9873 C   0  0  0  0  0  0  0  0  0  0  0  0
   13.4634   -7.5766   17.9736 O   0  0  0  0  0  0  0  0  0  0  0  0
   15.4412   -7.4661   19.2053 N   0  0  0  0  0  0  0  0  0  0  0  0
   16.4220   -7.5517   19.1995 H   0  0  0  0  0  0  0  0  0  0  0  0
   14.7730   -7.1276   20.4510 C   0  0  0  0  0  0  0  0  0  0  0  0
   15.8112   -6.8615   21.5218 C   0  0  0  0  0  0  0  0  0  0  0  0
   15.0835   -8.1890   21.4856 C   0  0  0  0  0  0  0  0  0  0  0  0
  9 10  1  0  0  0
 10 11  2  0  0  0
 11 12  1  0  0  0
 12 13  2  0  0  0
 13 14  1  0  0  0
 14 15  2  0  0  0
 14  4  1  0  0  0
 15 10  1  0  0  0
  4  5  1  0  0  0
  5  6  2  0  0  0
  6  7  1  0  0  0
  6  1  1  0  0  0
  7  8  2  0  0  0
  8  4  1  0  0  0
  1  2  2  0  0  0
  1  3  1  0  0  0
  3 19  1  0  0  0
  3 16  1  0  0  0
 19 20  1  0  0  0
 20 21  2  0  0  0
 21 22  1  0  0  0
 22 23  2  0  0  0
 23 24  1  0  0  0
 23 26  1  0  0  0
 24 25  2  0  0  0
 25 20  1  0  0  0
 26 27  2  0  0  0
 26 28  1  0  0  0
 28 30  1  0  0  0
 30 31  1  0  0  0
 31 32  1  0  0  0
 32 30  1  0  0  0
 16 17  1  0  0  0
 17 18  1  0  0  0
 18 16  1  0  0  0
 28 29  1  0  0  0
M  END
>  <minimizedAffinity>
-3.58331

>  <minimizedRMSD>
2.05439

$$$$
CSC091195280 CSSS00091195280 MCULE-7324728916 PubChem-154745011 Z1757791394


 28 31  0  0  0  0  0  0  0  0999 V2000
   18.0234  -10.1459   12.8988 C   0  0  0  0  0  0  0  0  0  0  0  0
   19.0084   -9.8029   14.0089 C   0  0  0  0  0  0  0  0  0  0  0  0
   19.7165  -11.0548   14.5520 C   0  0  0  0  0  0  0  0  0  0  0  0
   18.7505  -12.0156   15.2619 C   0  0  0  0  0  0  0  0  0  0  0  0
   17.7849  -11.2871   16.0806 N   0  0  0  0  0  0  0  0  0  0  0  0
   16.9692  -11.8529   16.9540 N   0  0  0  0  0  0  0  0  0  0  0  0
   16.1907  -10.8865   17.4925 C   0  0  0  0  0  0  0  0  0  0  0  0
   16.5386   -9.6720   16.9164 C   0  0  0  0  0  0  0  0  0  0  0  0
   17.5417   -9.9693   16.0179 C   0  0  0  0  0  0  0  0  0  0  0  0
   18.3086   -9.0335   15.1336 C   0  0  0  0  0  0  0  0  0  0  0  0
   15.9416   -8.3618   17.2154 C   0  0  0  0  0  0  0  0  0  0  0  0
   15.9375   -7.8678   18.5506 N   0  0  0  0  0  0  0  0  0  0  0  0
   15.4303   -7.6681   16.2975 O   0  0  0  0  0  0  0  0  0  0  0  0
   16.3351   -8.4033   19.2748 H   0  0  0  0  0  0  0  0  0  0  0  0
   15.5372   -6.9907   18.7497 H   0  0  0  0  0  0  0  0  0  0  0  0
   18.4455   -9.5299   11.6512 N   0  0  0  0  0  0  0  0  0  0  0  0
   19.3579   -9.1660   11.5848 H   0  0  0  0  0  0  0  0  0  0  0  0
   20.3714   -8.0773    9.9895 C   0  0  0  0  0  0  0  0  0  0  0  0
   19.2211   -8.1748    9.0477 C   0  0  0  0  0  0  0  0  0  0  0  0
   19.2833   -7.6367    7.7587 C   0  0  0  0  0  0  0  0  0  0  0  0
   17.8021   -7.9419    6.9933 S   0  0  0  0  0  0  0  0  0  0  0  0
   17.1082   -8.7418    8.2872 C   0  0  0  0  0  0  0  0  0  0  0  0
   15.8666   -9.2777    8.3462 N   0  0  0  0  0  0  0  0  0  0  0  0
   15.4749   -9.8967    9.4946 C   0  0  0  0  0  0  0  0  0  0  0  0
   14.1175  -10.4939    9.5870 C   0  0  0  0  0  0  0  0  0  0  0  0
   16.3241   -9.9713   10.5621 N   0  0  0  0  0  0  0  0  0  0  0  0
   17.5798   -9.4353   10.5184 C   0  0  0  0  0  0  0  0  0  0  0  0
   17.9932   -8.7967    9.3417 C   0  0  0  0  0  0  0  0  0  0  0  0
 18 19  1  0  0  0
 19 20  2  0  0  0
 20 21  1  0  0  0
 21 22  1  0  0  0
 22 23  2  0  0  0
 23 24  1  0  0  0
 24 25  1  0  0  0
 24 26  2  0  0  0
 26 27  1  0  0  0
 27 16  1  0  0  0
 16  1  1  0  0  0
  1  2  1  0  0  0
  2  3  1  0  0  0
  3  4  1  0  0  0
  4  5  1  0  0  0
  5  6  1  0  0  0
  6  7  2  0  0  0
  7  8  1  0  0  0
  8 11  1  0  0  0
 11 12  1  0  0  0
 11 13  2  0  0  0
  8  9  2  0  0  0
  9 10  1  0  0  0
 27 28  2  0  0  0
 28 19  1  0  0  0
 28 22  1  0  0  0
 10  2  1  0  0  0
  9  5  1  0  0  0
 16 17  1  0  0  0
 12 14  1  0  0  0
 12 15  1  0  0  0
M  END
>  <minimizedAffinity>
-3.56058

>  <minimizedRMSD>
1.35646

$$$$
CSSS00161118557 MCULE-7077124040 MolPort-047-314-738 PubChem-146124958 Z1128746843


 38 42  0  0  0  0  0  0  0  0999 V2000
   19.7808   -6.8979    6.7080 C   0  0  0  0  0  0  0  0  0  0  0  0
   19.3812   -5.7442    7.0169 O   0  0  0  0  0  0  0  0  0  0  0  0
   19.8895   -7.9067    7.7171 N   0  0  0  0  0  0  0  0  0  0  0  0
   20.3106   -8.7657    7.4847 H   0  0  0  0  0  0  0  0  0  0  0  0
   21.8815   -7.0042    3.5470 C   0  0  0  0  0  0  0  0  0  0  0  0
   21.4594   -6.7722    4.8791 C   0  0  0  0  0  0  0  0  0  0  0  0
   20.1947   -7.2019    5.3262 C   0  0  0  0  0  0  0  0  0  0  0  0
   19.3977   -7.8830    4.3906 C   0  0  0  0  0  0  0  0  0  0  0  0
   18.1637   -8.5178    4.4032 C   0  0  0  0  0  0  0  0  0  0  0  0
   17.2448   -8.7194    5.5561 C   0  0  0  0  0  0  0  0  0  0  0  0
   17.9272   -9.0379    3.1756 N   0  0  0  0  0  0  0  0  0  0  0  0
   18.9566   -8.7570    2.4238 O   0  0  0  0  0  0  0  0  0  0  0  0
   19.8414   -8.0878    3.1152 C   0  0  0  0  0  0  0  0  0  0  0  0
   21.0517   -7.6622    2.6816 N   0  0  0  0  0  0  0  0  0  0  0  0
   25.4251   -3.6041    2.3126 C   0  0  0  0  0  0  0  0  0  0  0  0
   24.8171   -4.9407    2.5398 C   0  0  0  0  0  0  0  0  0  0  0  0
   23.5192   -5.1648    2.9737 C   0  0  0  0  0  0  0  0  0  0  0  0
   23.2141   -6.5321    3.1010 C   0  0  0  0  0  0  0  0  0  0  0  0
   24.2929   -7.3597    2.7635 C   0  0  0  0  0  0  0  0  0  0  0  0
   24.3296   -8.8494    2.7814 C   0  0  0  0  0  0  0  0  0  0  0  0
   25.6002   -6.4062    2.3126 S   0  0  0  0  0  0  0  0  0  0  0  0
   19.4007   -7.7108    9.0755 C   0  0  0  0  0  0  0  0  0  0  0  0
   18.2696   -8.6418    9.3524 C   0  0  0  0  0  0  0  0  0  0  0  0
   17.6265   -9.2918    8.2957 C   0  0  0  0  0  0  0  0  0  0  0  0
   16.5368  -10.1278    8.5492 C   0  0  0  0  0  0  0  0  0  0  0  0
   16.0864  -10.3118    9.8592 C   0  0  0  0  0  0  0  0  0  0  0  0
   16.7266   -9.6697   10.9329 C   0  0  0  0  0  0  0  0  0  0  0  0
   17.8145   -8.8235   10.6622 C   0  0  0  0  0  0  0  0  0  0  0  0
   16.2008   -9.8337   12.3435 C   0  0  0  0  0  0  0  0  0  0  0  0
   14.9067  -10.6317   12.3430 C   0  0  0  0  0  0  0  0  0  0  0  0
   15.9709   -8.5396   12.9820 N   0  0  0  0  0  0  0  0  0  0  0  0
   16.8229   -8.4761   14.1186 C   0  0  0  0  0  0  0  0  0  0  0  0
   16.8710   -7.4738   14.8774 O   0  0  0  0  0  0  0  0  0  0  0  0
   17.6107   -9.6336   14.3288 N   0  0  0  0  0  0  0  0  0  0  0  0
   17.2158  -10.4706   13.2518 C   0  0  0  0  0  0  0  0  0  0  0  0
   17.6734  -11.6346   13.1022 O   0  0  0  0  0  0  0  0  0  0  0  0
   15.3439   -7.8425   12.6816 H   0  0  0  0  0  0  0  0  0  0  0  0
   18.2662   -9.8128   15.0412 H   0  0  0  0  0  0  0  0  0  0  0  0
 15 16  1  0  0  0
 16 17  2  0  0  0
 17 18  1  0  0  0
 18 19  2  0  0  0
 19 20  1  0  0  0
 19 21  1  0  0  0
 18  5  1  0  0  0
  5  6  2  0  0  0
  6  7  1  0  0  0
  7  1  1  0  0  0
  1  2  2  0  0  0
  1  3  1  0  0  0
  3 22  1  0  0  0
 22 23  1  0  0  0
 23 24  2  0  0  0
 24 25  1  0  0  0
 25 26  2  0  0  0
 26 27  1  0  0  0
 27 28  2  0  0  0
 27 29  1  0  0  0
 29 30  1  0  0  0
 29 31  1  0  0  0
 31 32  1  0  0  0
 32 33  2  0  0  0
 32 34  1  0  0  0
 34 35  1  0  0  0
 35 36  2  0  0  0
  7  8  2  0  0  0
  8  9  1  0  0  0
  9 10  1  0  0  0
  9 11  2  0  0  0
 11 12  1  0  0  0
 12 13  1  0  0  0
 13 14  2  0  0  0
 21 16  1  0  0  0
 14  5  1  0  0  0
 28 23  1  0  0  0
 35 29  1  0  0  0
 13  8  1  0  0  0
  3  4  1  0  0  0
 31 37  1  0  0  0
 34 38  1  0  0  0
M  END
>  <minimizedAffinity>
-3.55258

>  <minimizedRMSD>
4.75201

$$$$
CSSS03437071925 ChemDiv-F813-4345 MCULE-9230379453 MolPort-009-709-092 PubChem-45501447


 33 36  0  0  0  0  0  0  0  0999 V2000
   18.8563   -8.3328   10.8961 S   0  0  0  0  0  0  0  0  0  0  0  0
   19.2223   -7.9994    5.9866 C   0  0  0  0  0  0  0  0  0  0  0  0
   18.1051   -8.7616    5.8702 N   0  0  0  0  0  0  0  0  0  0  0  0
   17.6319   -9.1041    7.0942 C   0  0  0  0  0  0  0  0  0  0  0  0
   16.5259   -9.8652    7.2864 N   0  0  0  0  0  0  0  0  0  0  0  0
   16.1282  -10.1581    8.5589 C   0  0  0  0  0  0  0  0  0  0  0  0
   16.8357   -9.6914    9.6321 N   0  0  0  0  0  0  0  0  0  0  0  0
   17.9522   -8.9270    9.4665 C   0  0  0  0  0  0  0  0  0  0  0  0
   18.3532   -8.6269    8.1689 C   0  0  0  0  0  0  0  0  0  0  0  0
   19.6569   -7.7279    7.6076 S   0  0  0  0  0  0  0  0  0  0  0  0
   22.1663   -4.6011    3.8436 C   0  0  0  0  0  0  0  0  0  0  0  0
   21.4087   -5.8993    3.6647 C   0  0  0  0  0  0  0  0  0  0  0  0
   20.2488   -5.6922    2.6907 C   0  0  0  0  0  0  0  0  0  0  0  0
   19.3569   -6.9358    2.5374 C   0  0  0  0  0  0  0  0  0  0  0  0
   19.6959   -8.0521    3.5276 C   0  0  0  0  0  0  0  0  0  0  0  0
   19.9408   -7.4909    4.8552 N   0  0  0  0  0  0  0  0  0  0  0  0
   20.8816   -6.3784    5.0163 C   0  0  0  0  0  0  0  0  0  0  0  0
   19.3318  -10.0079   11.4299 C   0  0  0  0  0  0  0  0  0  0  0  0
   18.5055  -10.4457   12.5896 C   0  0  0  0  0  0  0  0  0  0  0  0
   17.5090  -11.1886   12.3876 O   0  0  0  0  0  0  0  0  0  0  0  0
   18.8627  -10.0209   13.9119 N   0  0  0  0  0  0  0  0  0  0  0  0
   19.6745   -9.4694   13.9898 H   0  0  0  0  0  0  0  0  0  0  0  0
   18.1676  -10.3108   15.1360 C   0  0  0  0  0  0  0  0  0  0  0  0
   17.0498   -9.5301   15.5282 C   0  0  0  0  0  0  0  0  0  0  0  0
   16.3912   -9.8403   16.7289 C   0  0  0  0  0  0  0  0  0  0  0  0
   16.8186  -10.8980   17.5320 C   0  0  0  0  0  0  0  0  0  0  0  0
   17.9152  -11.6648   17.1450 C   0  0  0  0  0  0  0  0  0  0  0  0
   18.5830  -11.3724   15.9560 C   0  0  0  0  0  0  0  0  0  0  0  0
   16.5366   -8.3925   14.7241 C   0  0  0  0  0  0  0  0  0  0  0  0
   16.7104   -7.0553   15.1859 N   0  0  0  0  0  0  0  0  0  0  0  0
   15.9428   -8.5821   13.6300 O   0  0  0  0  0  0  0  0  0  0  0  0
   17.1719   -6.8851   16.0387 H   0  0  0  0  0  0  0  0  0  0  0  0
   16.3690   -6.3019   14.6520 H   0  0  0  0  0  0  0  0  0  0  0  0
 12 11  1  0  0  0
 12 13  1  0  0  0
 13 14  1  0  0  0
 14 15  1  0  0  0
 15 16  1  0  0  0
 16 17  1  0  0  0
 16  2  1  0  0  0
 17 12  1  0  0  0
  2  3  2  0  0  0
  3  4  1  0  0  0
  4  5  2  0  0  0
  5  6  1  0  0  0
  6  7  2  0  0  0
  7  8  1  0  0  0
  8  1  1  0  0  0
  8  9  2  0  0  0
  1 18  1  0  0  0
 18 19  1  0  0  0
 19 20  2  0  0  0
 19 21  1  0  0  0
 21 23  1  0  0  0
 23 24  2  0  0  0
 24 25  1  0  0  0
 24 29  1  0  0  0
 25 26  2  0  0  0
 26 27  1  0  0  0
 27 28  2  0  0  0
 28 23  1  0  0  0
 29 30  1  0  0  0
 29 31  2  0  0  0
  9 10  1  0  0  0
  9  4  1  0  0  0
 10  2  1  0  0  0
 21 22  1  0  0  0
 30 32  1  0  0  0
 30 33  1  0  0  0
M  END
>  <minimizedAffinity>
-3.53778

>  <minimizedRMSD>
1.71933

$$$$
289523583 CSSS00133126940 MCULE-4713751505 MolPort-044-861-964 PubChem-132359436 Z2163680322 ZINC000289523583


 28 31  0  0  0  0  0  0  0  0999 V2000
   17.4563   -9.5932   14.1552 C   0  0  0  0  0  0  0  0  0  0  0  0
   18.1196  -10.7034   14.6968 C   0  0  0  0  0  0  0  0  0  0  0  0
   17.9025  -11.0804   16.0213 C   0  0  0  0  0  0  0  0  0  0  0  0
   17.0219  -10.3495   16.8174 C   0  0  0  0  0  0  0  0  0  0  0  0
   16.3527   -9.2342   16.3016 C   0  0  0  0  0  0  0  0  0  0  0  0
   16.5655   -8.8545   14.9580 C   0  0  0  0  0  0  0  0  0  0  0  0
   15.8499   -7.6778   14.3725 C   0  0  0  0  0  0  0  0  0  0  0  0
   15.2421   -8.3518   17.3539 S   0  0  0  0  0  0  0  0  0  0  0  0
   13.9925   -9.1651   17.5391 O   0  0  0  0  0  0  0  0  0  0  0  0
   14.8885   -7.0299   16.7293 O   0  0  0  0  0  0  0  0  0  0  0  0
   15.9629   -8.0799   18.9071 N   0  0  0  0  0  0  0  0  0  0  0  0
   16.8695   -7.6266   18.7932 H   0  0  0  0  0  0  0  0  0  0  0  0
   15.0742   -7.2201   19.6711 C   0  0  0  0  0  0  0  0  0  0  0  0
   14.5849   -7.9719   20.8916 C   0  0  0  0  0  0  0  0  0  0  0  0
   15.6905   -6.9496   21.0283 C   0  0  0  0  0  0  0  0  0  0  0  0
   17.6788   -9.2103   12.7929 N   0  0  0  0  0  0  0  0  0  0  0  0
   17.5800   -8.2613   12.5505 H   0  0  0  0  0  0  0  0  0  0  0  0
   18.0439  -10.1571   11.7504 C   0  0  0  0  0  0  0  0  0  0  0  0
   19.8584   -7.5573    7.0926 C   0  0  0  0  0  0  0  0  0  0  0  0
   18.7329   -8.2051    7.8149 C   0  0  0  0  0  0  0  0  0  0  0  0
   18.8736   -8.7841    9.0395 N   0  0  0  0  0  0  0  0  0  0  0  0
   17.7038   -9.2717    9.4222 N   0  0  0  0  0  0  0  0  0  0  0  0
   16.6870   -9.1022    8.6112 C   0  0  0  0  0  0  0  0  0  0  0  0
   17.1202   -8.2833    7.2143 S   0  0  0  0  0  0  0  0  0  0  0  0
   15.5093   -9.5493    9.0892 N   0  0  0  0  0  0  0  0  0  0  0  0
   15.8813  -10.0406   10.3090 C   0  0  0  0  0  0  0  0  0  0  0  0
   14.9220  -10.6334   11.2804 C   0  0  0  0  0  0  0  0  0  0  0  0
   17.2516   -9.8735   10.5205 C   0  0  0  0  0  0  0  0  0  0  0  0
 19 20  1  0  0  0
 20 21  2  0  0  0
 21 22  1  0  0  0
 22 23  1  0  0  0
 23 24  1  0  0  0
 23 25  2  0  0  0
 25 26  1  0  0  0
 26 27  1  0  0  0
 26 28  2  0  0  0
 28 18  1  0  0  0
 18 16  1  0  0  0
 16  1  1  0  0  0
  1  2  2  0  0  0
  2  3  1  0  0  0
  3  4  2  0  0  0
  4  5  1  0  0  0
  5  6  2  0  0  0
  6  7  1  0  0  0
  5  8  1  0  0  0
  8  9  2  0  0  0
  8 10  2  0  0  0
  8 11  1  0  0  0
 11 13  1  0  0  0
 13 14  1  0  0  0
 14 15  1  0  0  0
 24 20  1  0  0  0
  6  1  1  0  0  0
 15 13  1  0  0  0
 28 22  1  0  0  0
 16 17  1  0  0  0
 11 12  1  0  0  0
M  END
>  <minimizedAffinity>
-3.51706

>  <minimizedRMSD>
1.36067

$$$$
CSSS00431618900 MCULE-8501823387 MolPort-047-813-012 PubChem-31953752 Z395728388


 29 31  0  0  0  0  0  0  0  0999 V2000
   18.4918  -11.1471   12.7433 N   0  0  0  0  0  0  0  0  0  0  0  0
   18.5895   -9.8879   12.0723 C   0  0  0  0  0  0  0  0  0  0  0  0
   19.4001   -9.0225   12.4952 O   0  0  0  0  0  0  0  0  0  0  0  0
   17.8559  -11.8184   12.4054 H   0  0  0  0  0  0  0  0  0  0  0  0
   17.7354   -9.6228   10.8921 C   0  0  0  0  0  0  0  0  0  0  0  0
   18.1444   -8.9154    9.7443 C   0  0  0  0  0  0  0  0  0  0  0  0
   17.2819   -8.7178    8.6977 C   0  0  0  0  0  0  0  0  0  0  0  0
   17.8817   -8.0238    7.7180 N   0  0  0  0  0  0  0  0  0  0  0  0
   19.1268   -7.7520    8.0844 N   0  0  0  0  0  0  0  0  0  0  0  0
   19.3078   -8.2860    9.3153 C   0  0  0  0  0  0  0  0  0  0  0  0
   20.3923   -8.2020    9.9466 O   0  0  0  0  0  0  0  0  0  0  0  0
   17.2956   -7.6200    6.4520 C   0  0  0  0  0  0  0  0  0  0  0  0
   16.0077   -9.1803    8.6983 N   0  0  0  0  0  0  0  0  0  0  0  0
   15.5592   -9.8727    9.7853 C   0  0  0  0  0  0  0  0  0  0  0  0
   14.1662  -10.3893    9.8085 C   0  0  0  0  0  0  0  0  0  0  0  0
   16.4082  -10.1023   10.8884 C   0  0  0  0  0  0  0  0  0  0  0  0
   19.7949   -7.2548    7.5593 H   0  0  0  0  0  0  0  0  0  0  0  0
   19.3006  -11.4685   13.9081 C   0  0  0  0  0  0  0  0  0  0  0  0
   16.9321   -9.8810   16.4076 C   0  0  0  0  0  0  0  0  0  0  0  0
   17.6981  -10.0995   15.2529 C   0  0  0  0  0  0  0  0  0  0  0  0
   18.5118  -11.2322   15.1469 C   0  0  0  0  0  0  0  0  0  0  0  0
   18.5537  -12.1612   16.1910 C   0  0  0  0  0  0  0  0  0  0  0  0
   17.7936  -11.9511   17.3445 C   0  0  0  0  0  0  0  0  0  0  0  0
   16.9867  -10.8147   17.4527 C   0  0  0  0  0  0  0  0  0  0  0  0
   14.6069   -7.1965   17.9277 C   0  0  0  0  0  0  0  0  0  0  0  0
   15.4562   -8.3647   17.7676 N   0  0  0  0  0  0  0  0  0  0  0  0
   16.0784   -8.6853   16.5206 C   0  0  0  0  0  0  0  0  0  0  0  0
   15.8959   -7.9430   15.5167 O   0  0  0  0  0  0  0  0  0  0  0  0
   15.6079   -8.9538   18.5417 H   0  0  0  0  0  0  0  0  0  0  0  0
 25 26  1  0  0  0
 26 27  1  0  0  0
 27 19  1  0  0  0
 19 20  2  0  0  0
 20 21  1  0  0  0
 21 18  1  0  0  0
 18  1  1  0  0  0
  1  2  1  0  0  0
  2  5  1  0  0  0
  5  6  1  0  0  0
  6  7  2  0  0  0
  7  8  1  0  0  0
  8  9  1  0  0  0
  9 10  1  0  0  0
 10 11  2  0  0  0
  8 12  1  0  0  0
  7 13  1  0  0  0
 13 14  2  0  0  0
 14 15  1  0  0  0
 14 16  1  0  0  0
  2  3  2  0  0  0
 21 22  2  0  0  0
 22 23  1  0  0  0
 23 24  2  0  0  0
 27 28  2  0  0  0
 24 19  1  0  0  0
 16  5  2  0  0  0
 10  6  1  0  0  0
 26 29  1  0  0  0
  1  4  1  0  0  0
  9 17  1  0  0  0
M  END
>  <minimizedAffinity>
-3.49160

>  <minimizedRMSD>
1.39924

$$$$
CSSS00760048318 Z3989657526


 37 41  0  0  0  0  0  0  0  0999 V2000
   17.7272  -10.4328   12.9692 C   0  0  0  0  0  0  0  0  0  0  0  0
   17.4615  -11.6556   13.1160 O   0  0  0  0  0  0  0  0  0  0  0  0
   16.8192   -9.5502   12.2985 N   0  0  0  0  0  0  0  0  0  0  0  0
   17.0772   -8.6008   12.2637 H   0  0  0  0  0  0  0  0  0  0  0  0
   15.5736   -9.8969   11.6708 C   0  0  0  0  0  0  0  0  0  0  0  0
   14.4990  -10.3753   12.4379 C   0  0  0  0  0  0  0  0  0  0  0  0
   13.2868  -10.7189   11.8397 C   0  0  0  0  0  0  0  0  0  0  0  0
   13.1315  -10.5894   10.4613 C   0  0  0  0  0  0  0  0  0  0  0  0
   14.1889  -10.1173    9.6836 C   0  0  0  0  0  0  0  0  0  0  0  0
   15.4166   -9.7666   10.2674 C   0  0  0  0  0  0  0  0  0  0  0  0
   16.4952   -9.2740    9.3753 C   0  0  0  0  0  0  0  0  0  0  0  0
   16.4997   -9.5182    8.0355 N   0  0  0  0  0  0  0  0  0  0  0  0
   17.6216   -8.9107    7.6264 C   0  0  0  0  0  0  0  0  0  0  0  0
   18.1281   -8.8413    6.3310 C   0  0  0  0  0  0  0  0  0  0  0  0
   19.3349   -8.1410    6.1460 C   0  0  0  0  0  0  0  0  0  0  0  0
   19.9911   -7.5395    7.2436 C   0  0  0  0  0  0  0  0  0  0  0  0
   19.4481   -7.6312    8.5388 C   0  0  0  0  0  0  0  0  0  0  0  0
   18.2532   -8.3317    8.6826 C   0  0  0  0  0  0  0  0  0  0  0  0
   17.5603   -8.5458    9.8088 N   0  0  0  0  0  0  0  0  0  0  0  0
   17.7697   -8.2496   10.7240 H   0  0  0  0  0  0  0  0  0  0  0  0
   18.9946   -9.8782   13.5279 C   0  0  0  0  0  0  0  0  0  0  0  0
   19.1231  -10.1602   15.0215 C   0  0  0  0  0  0  0  0  0  0  0  0
   17.9686  -11.5771   17.3474 C   0  0  0  0  0  0  0  0  0  0  0  0
   17.4316  -10.2580   16.9034 C   0  0  0  0  0  0  0  0  0  0  0  0
   16.3933   -9.7109   17.5863 N   0  0  0  0  0  0  0  0  0  0  0  0
   15.8651   -8.5083   17.2320 C   0  0  0  0  0  0  0  0  0  0  0  0
   16.3877   -7.8327   16.1732 N   0  0  0  0  0  0  0  0  0  0  0  0
   17.4259   -8.3351   15.4569 C   0  0  0  0  0  0  0  0  0  0  0  0
   17.8837   -7.6765   14.4853 O   0  0  0  0  0  0  0  0  0  0  0  0
   17.9787   -9.5776   15.8033 C   0  0  0  0  0  0  0  0  0  0  0  0
   16.0052   -6.9613   15.9210 H   0  0  0  0  0  0  0  0  0  0  0  0
   14.7357   -7.9399   17.9921 C   0  0  0  0  0  0  0  0  0  0  0  0
   14.8201   -7.7866   19.3821 C   0  0  0  0  0  0  0  0  0  0  0  0
   13.7403   -7.2468   20.0840 C   0  0  0  0  0  0  0  0  0  0  0  0
   12.6139   -6.8727   19.4202 N   0  0  0  0  0  0  0  0  0  0  0  0
   12.5049   -7.0101   18.0717 C   0  0  0  0  0  0  0  0  0  0  0  0
   13.5631   -7.5459   17.3344 C   0  0  0  0  0  0  0  0  0  0  0  0
 23 24  1  0  0  0
 24 25  1  0  0  0
 25 26  2  0  0  0
 26 27  1  0  0  0
 27 28  1  0  0  0
 28 29  2  0  0  0
 28 30  1  0  0  0
 30 22  1  0  0  0
 22 21  1  0  0  0
 21  1  1  0  0  0
  1  2  2  0  0  0
  1  3  1  0  0  0
  3  5  1  0  0  0
  5  6  2  0  0  0
  6  7  1  0  0  0
  7  8  2  0  0  0
  8  9  1  0  0  0
  9 10  2  0  0  0
 10 11  1  0  0  0
 11 12  2  0  0  0
 12 13  1  0  0  0
 13 14  2  0  0  0
 14 15  1  0  0  0
 15 16  2  0  0  0
 16 17  1  0  0  0
 17 18  2  0  0  0
 18 19  1  0  0  0
 26 32  1  0  0  0
 32 33  2  0  0  0
 33 34  1  0  0  0
 34 35  2  0  0  0
 35 36  1  0  0  0
 36 37  2  0  0  0
 30 24  2  0  0  0
 10  5  1  0  0  0
 19 11  1  0  0  0
 37 32  1  0  0  0
 18 13  1  0  0  0
 27 31  1  0  0  0
  3  4  1  0  0  0
 19 20  1  0  0  0
M  END
>  <minimizedAffinity>
-3.48613

>  <minimizedRMSD>
2.55331

$$$$
CSC071683444 CSSS00071683444 MCULE-3283323368 MolPort-046-532-206 PubChem-138042255 Z1578937892


 27 31  0  0  0  0  0  0  0  0999 V2000
   16.8420  -10.2343   11.5432 C   0  0  0  0  0  0  0  0  0  0  0  0
   15.9477   -9.3636   12.4295 C   0  0  0  0  0  0  0  0  0  0  0  0
   15.9485   -9.8995   13.8571 C   0  0  0  0  0  0  0  0  0  0  0  0
   17.3250  -10.0174   14.3326 N   0  0  0  0  0  0  0  0  0  0  0  0
   18.2388  -10.8319   13.5357 C   0  0  0  0  0  0  0  0  0  0  0  0
   18.2654  -10.3128   12.1015 C   0  0  0  0  0  0  0  0  0  0  0  0
   17.8013   -9.3390   15.5110 C   0  0  0  0  0  0  0  0  0  0  0  0
   16.9500   -8.8521   16.5090 C   0  0  0  0  0  0  0  0  0  0  0  0
   15.5833   -8.8476   16.6926 C   0  0  0  0  0  0  0  0  0  0  0  0
   15.3449   -8.2162   17.8713 N   0  0  0  0  0  0  0  0  0  0  0  0
   16.4905   -7.8300   18.4256 N   0  0  0  0  0  0  0  0  0  0  0  0
   17.4638   -8.2190   17.5932 C   0  0  0  0  0  0  0  0  0  0  0  0
   18.7929   -8.0292   17.7636 N   0  0  0  0  0  0  0  0  0  0  0  0
   19.6377   -8.4984   16.7987 C   0  0  0  0  0  0  0  0  0  0  0  0
   19.1437   -9.1412   15.6935 N   0  0  0  0  0  0  0  0  0  0  0  0
   16.6009   -7.3524   19.2794 H   0  0  0  0  0  0  0  0  0  0  0  0
   15.8963   -9.9123    9.2272 C   0  0  0  0  0  0  0  0  0  0  0  0
   16.1939   -9.3183    8.0382 N   0  0  0  0  0  0  0  0  0  0  0  0
   17.3903   -8.7489    8.2741 C   0  0  0  0  0  0  0  0  0  0  0  0
   18.1636   -8.0040    7.3874 C   0  0  0  0  0  0  0  0  0  0  0  0
   19.3911   -7.5035    7.8606 C   0  0  0  0  0  0  0  0  0  0  0  0
   19.8079   -7.7563    9.1869 C   0  0  0  0  0  0  0  0  0  0  0  0
   19.0025   -8.5130   10.0577 C   0  0  0  0  0  0  0  0  0  0  0  0
   17.7931   -8.9928    9.5548 C   0  0  0  0  0  0  0  0  0  0  0  0
   16.8543   -9.7301   10.1712 N   0  0  0  0  0  0  0  0  0  0  0  0
   13.6407   -9.9184   10.3231 C   0  0  0  0  0  0  0  0  0  0  0  0
   14.6389  -10.6919    9.4789 C   0  0  0  0  0  0  0  0  0  0  0  0
 26 27  1  0  0  0
 27 17  1  0  0  0
 17 18  2  0  0  0
 18 19  1  0  0  0
 19 20  2  0  0  0
 20 21  1  0  0  0
 21 22  2  0  0  0
 22 23  1  0  0  0
 23 24  2  0  0  0
 24 25  1  0  0  0
 25  1  1  0  0  0
  1  2  1  0  0  0
  2  3  1  0  0  0
  3  4  1  0  0  0
  4  5  1  0  0  0
  5  6  1  0  0  0
  4  7  1  0  0  0
  7  8  2  0  0  0
  8  9  1  0  0  0
  9 10  2  0  0  0
 10 11  1  0  0  0
 11 12  1  0  0  0
 12 13  2  0  0  0
 13 14  1  0  0  0
 14 15  2  0  0  0
 25 17  1  0  0  0
  6  1  1  0  0  0
 15  7  1  0  0  0
 24 19  1  0  0  0
 12  8  1  0  0  0
 11 16  1  0  0  0
M  END
>  <minimizedAffinity>
-3.46206

>  <minimizedRMSD>
1.65241

$$$$
CSC027420541 31948946 CHEMBL4591742 CSSS00027420541 MCULE-1473473088 MolPort-009-181-910 PubChem-39165458 Z354315678 ZINC000031948946


 27 29  0  0  0  0  0  0  0  0999 V2000
   17.6408   -9.6191   15.3221 C   0  0  0  0  0  0  0  0  0  0  0  0
   16.9691   -9.5566   14.0960 C   0  0  0  0  0  0  0  0  0  0  0  0
   17.1560  -10.5614   13.1411 C   0  0  0  0  0  0  0  0  0  0  0  0
   18.0251  -11.6250   13.4078 C   0  0  0  0  0  0  0  0  0  0  0  0
   18.6949  -11.6905   14.6332 C   0  0  0  0  0  0  0  0  0  0  0  0
   18.5014  -10.6894   15.5900 C   0  0  0  0  0  0  0  0  0  0  0  0
   17.3986   -8.3681   16.5300 S   0  0  0  0  0  0  0  0  0  0  0  0
   16.9396   -7.0983   15.8667 O   0  0  0  0  0  0  0  0  0  0  0  0
   18.7001   -8.1019   17.2325 O   0  0  0  0  0  0  0  0  0  0  0  0
   16.2147   -8.8801   17.6872 N   0  0  0  0  0  0  0  0  0  0  0  0
   15.5721   -9.5439   17.2548 H   0  0  0  0  0  0  0  0  0  0  0  0
   14.1065   -7.6943   17.5003 C   0  0  0  0  0  0  0  0  0  0  0  0
   15.4844   -7.7036   18.1314 C   0  0  0  0  0  0  0  0  0  0  0  0
   15.3472   -7.7348   19.6389 C   0  0  0  0  0  0  0  0  0  0  0  0
   16.4656  -10.4747   11.8263 C   0  0  0  0  0  0  0  0  0  0  0  0
   17.1738   -9.5428   10.9630 N   0  0  0  0  0  0  0  0  0  0  0  0
   17.7279   -8.8411   11.3751 H   0  0  0  0  0  0  0  0  0  0  0  0
   17.0938   -9.6098    9.5364 C   0  0  0  0  0  0  0  0  0  0  0  0
   17.9549   -8.8420    8.7408 C   0  0  0  0  0  0  0  0  0  0  0  0
   17.8319   -8.9365    7.3388 C   0  0  0  0  0  0  0  0  0  0  0  0
   18.6731   -8.1857    6.5122 C   0  0  0  0  0  0  0  0  0  0  0  0
   19.6359   -7.3422    7.0754 C   0  0  0  0  0  0  0  0  0  0  0  0
   19.7601   -7.2463    8.4653 C   0  0  0  0  0  0  0  0  0  0  0  0
   18.9217   -7.9937    9.2982 C   0  0  0  0  0  0  0  0  0  0  0  0
   16.8966   -9.7565    6.7950 N   0  0  0  0  0  0  0  0  0  0  0  0
   16.0722  -10.4922    7.5853 C   0  0  0  0  0  0  0  0  0  0  0  0
   16.1733  -10.4157    8.9387 N   0  0  0  0  0  0  0  0  0  0  0  0
 12 13  1  0  0  0
 13 10  1  0  0  0
 10  7  1  0  0  0
  7  1  1  0  0  0
  1  2  2  0  0  0
  2  3  1  0  0  0
  3 15  1  0  0  0
 15 16  1  0  0  0
 16 18  1  0  0  0
 18 19  1  0  0  0
 19 20  1  0  0  0
 20 21  2  0  0  0
 21 22  1  0  0  0
 22 23  2  0  0  0
 23 24  1  0  0  0
 20 25  1  0  0  0
 25 26  2  0  0  0
 26 27  1  0  0  0
  3  4  2  0  0  0
  4  5  1  0  0  0
  5  6  2  0  0  0
  7  8  2  0  0  0
  7  9  2  0  0  0
 13 14  1  0  0  0
  6  1  1  0  0  0
 27 18  2  0  0  0
 24 19  2  0  0  0
 10 11  1  0  0  0
 16 17  1  0  0  0
M  END
>  <minimizedAffinity>
-3.42629

>  <minimizedRMSD>
1.33031

$$$$
72473611 CSSS00159817506 MCULE-4042301876 MolPort-021-770-141 PubChem-56910074 ZINC000072473611 ZINC72473611


 27 29  0  0  0  0  0  0  0  0999 V2000
   18.5086   -9.5826   12.4104 N   0  0  0  0  0  0  0  0  0  0  0  0
   19.2421   -8.9363   12.5266 H   0  0  0  0  0  0  0  0  0  0  0  0
   15.7457   -9.9727    9.9042 C   0  0  0  0  0  0  0  0  0  0  0  0
   16.3129   -9.3540    8.8264 N   0  0  0  0  0  0  0  0  0  0  0  0
   17.5597   -8.8376    8.9521 C   0  0  0  0  0  0  0  0  0  0  0  0
   18.2987   -8.1809    7.9950 C   0  0  0  0  0  0  0  0  0  0  0  0
   19.4805   -7.8839    8.6854 C   0  0  0  0  0  0  0  0  0  0  0  0
   19.4161   -8.3447    9.9591 N   0  0  0  0  0  0  0  0  0  0  0  0
   18.2387   -8.9209   10.0966 N   0  0  0  0  0  0  0  0  0  0  0  0
   17.7371   -9.5201   11.2052 C   0  0  0  0  0  0  0  0  0  0  0  0
   16.4485  -10.0734   11.1199 C   0  0  0  0  0  0  0  0  0  0  0  0
   14.3797  -10.5535    9.7963 C   0  0  0  0  0  0  0  0  0  0  0  0
   12.8368  -10.8400   11.3462 C   0  0  0  0  0  0  0  0  0  0  0  0
   13.5004   -9.8517   10.6209 O   0  0  0  0  0  0  0  0  0  0  0  0
   18.2683  -10.5498   13.4744 C   0  0  0  0  0  0  0  0  0  0  0  0
   17.4584   -9.9344   14.5655 C   0  0  0  0  0  0  0  0  0  0  0  0
   17.4469  -10.5071   15.8425 C   0  0  0  0  0  0  0  0  0  0  0  0
   16.6967   -9.9205   16.8659 C   0  0  0  0  0  0  0  0  0  0  0  0
   15.9550   -8.7605   16.6159 C   0  0  0  0  0  0  0  0  0  0  0  0
   15.9701   -8.1864   15.3397 C   0  0  0  0  0  0  0  0  0  0  0  0
   16.7198   -8.7730   14.3162 C   0  0  0  0  0  0  0  0  0  0  0  0
   15.0242   -8.0171   17.9031 S   0  0  0  0  0  0  0  0  0  0  0  0
   16.0850   -7.4887   19.1604 N   0  0  0  0  0  0  0  0  0  0  0  0
   14.2655   -6.8396   17.3600 O   0  0  0  0  0  0  0  0  0  0  0  0
   14.0585   -9.0180   18.4725 O   0  0  0  0  0  0  0  0  0  0  0  0
   16.7455   -6.8083   18.7845 H   0  0  0  0  0  0  0  0  0  0  0  0
   16.5963   -8.2890   19.5326 H   0  0  0  0  0  0  0  0  0  0  0  0
 13 14  1  0  0  0
 14 12  1  0  0  0
 12  3  1  0  0  0
  3  4  2  0  0  0
  4  5  1  0  0  0
  5  6  2  0  0  0
  6  7  1  0  0  0
  7  8  2  0  0  0
  8  9  1  0  0  0
  9 10  1  0  0  0
  9  5  1  0  0  0
 10  1  1  0  0  0
 10 11  2  0  0  0
  1 15  1  0  0  0
 15 16  1  0  0  0
 16 17  2  0  0  0
 17 18  1  0  0  0
 18 19  2  0  0  0
 19 20  1  0  0  0
 19 22  1  0  0  0
 20 21  2  0  0  0
 21 16  1  0  0  0
 22 23  1  0  0  0
 22 24  2  0  0  0
 22 25  2  0  0  0
 11  3  1  0  0  0
  1  2  1  0  0  0
 23 26  1  0  0  0
 23 27  1  0  0  0
M  END
>  <minimizedAffinity>
-3.41205

>  <minimizedRMSD>
1.40743

$$$$
CSC026244435 12550123 CSSS00026244435 MCULE-4168023051 MolPort-005-627-498 PubChem-17498785 Z26334538 ZINC000012550123 ZINC12550123


 29 32  0  0  0  0  0  0  0  0999 V2000
   18.1151   -8.6263   10.5385 C   0  0  0  0  0  0  0  0  0  0  0  0
   19.2579   -9.1579   10.5181 O   0  0  0  0  0  0  0  0  0  0  0  0
   17.2150   -8.8496   11.6292 N   0  0  0  0  0  0  0  0  0  0  0  0
   16.3779   -8.3315   11.6289 H   0  0  0  0  0  0  0  0  0  0  0  0
   17.4163   -9.7563   12.7226 C   0  0  0  0  0  0  0  0  0  0  0  0
   17.0134   -9.5135   14.0420 C   0  0  0  0  0  0  0  0  0  0  0  0
   17.3730  -10.5717   14.9044 C   0  0  0  0  0  0  0  0  0  0  0  0
   17.9865  -11.6337   14.2485 C   0  0  0  0  0  0  0  0  0  0  0  0
   18.5546  -12.8351   14.9379 C   0  0  0  0  0  0  0  0  0  0  0  0
   17.9433  -13.0042   16.3351 C   0  0  0  0  0  0  0  0  0  0  0  0
   17.9377  -11.6717   17.0857 C   0  0  0  0  0  0  0  0  0  0  0  0
   17.0333  -10.6620   16.3694 C   0  0  0  0  0  0  0  0  0  0  0  0
   18.1724  -11.2617   12.6255 S   0  0  0  0  0  0  0  0  0  0  0  0
   16.3107   -8.2788   14.4695 C   0  0  0  0  0  0  0  0  0  0  0  0
   16.5873   -7.6797   15.7308 N   0  0  0  0  0  0  0  0  0  0  0  0
   15.4536   -7.7428   13.7186 O   0  0  0  0  0  0  0  0  0  0  0  0
   17.2540   -8.0837   16.3320 H   0  0  0  0  0  0  0  0  0  0  0  0
   16.1119   -6.8613   16.0018 H   0  0  0  0  0  0  0  0  0  0  0  0
   17.7083   -7.7009    9.4400 C   0  0  0  0  0  0  0  0  0  0  0  0
   16.1207  -10.2209    8.6163 C   0  0  0  0  0  0  0  0  0  0  0  0
   17.1031   -9.4962    7.7590 C   0  0  0  0  0  0  0  0  0  0  0  0
   17.4315   -9.9111    6.5060 N   0  0  0  0  0  0  0  0  0  0  0  0
   18.3397   -8.9957    6.1162 C   0  0  0  0  0  0  0  0  0  0  0  0
   19.0290   -8.9456    4.9067 C   0  0  0  0  0  0  0  0  0  0  0  0
   19.9580   -7.9029    4.7318 C   0  0  0  0  0  0  0  0  0  0  0  0
   20.1739   -6.9521    5.7551 C   0  0  0  0  0  0  0  0  0  0  0  0
   19.4628   -7.0308    6.9666 C   0  0  0  0  0  0  0  0  0  0  0  0
   18.5469   -8.0744    7.1018 C   0  0  0  0  0  0  0  0  0  0  0  0
   17.7642   -8.3772    8.1473 N   0  0  0  0  0  0  0  0  0  0  0  0
 20 21  1  0  0  0
 21 22  2  0  0  0
 22 23  1  0  0  0
 23 24  2  0  0  0
 24 25  1  0  0  0
 25 26  2  0  0  0
 26 27  1  0  0  0
 27 28  2  0  0  0
 28 29  1  0  0  0
 28 23  1  0  0  0
 29 19  1  0  0  0
 29 21  1  0  0  0
 19  1  1  0  0  0
  1  2  2  0  0  0
  1  3  1  0  0  0
  3  5  1  0  0  0
  5  6  2  0  0  0
  6 14  1  0  0  0
  6  7  1  0  0  0
 14 15  1  0  0  0
 14 16  2  0  0  0
  7  8  2  0  0  0
  8  9  1  0  0  0
  8 13  1  0  0  0
  9 10  1  0  0  0
 10 11  1  0  0  0
 11 12  1  0  0  0
 12  7  1  0  0  0
 13  5  1  0  0  0
  3  4  1  0  0  0
 15 17  1  0  0  0
 15 18  1  0  0  0
M  END
>  <minimizedAffinity>
-3.39984

>  <minimizedRMSD>
2.16764

$$$$
15000974 CSSS00160579049 MCULE-7721514051 MolPort-005-088-707 PubChem-26356778 ZINC000015000974 ZINC15000974


 32 35  0  0  0  0  0  0  0  0999 V2000
   15.7677   -8.4744   16.5443 C   0  0  0  0  0  0  0  0  0  0  0  0
   16.8843   -9.2907   16.7506 C   0  0  0  0  0  0  0  0  0  0  0  0
   17.4831   -9.9452   15.7172 N   0  0  0  0  0  0  0  0  0  0  0  0
   17.0086   -9.8215   14.4508 C   0  0  0  0  0  0  0  0  0  0  0  0
   15.8952   -9.0228   14.1664 C   0  0  0  0  0  0  0  0  0  0  0  0
   15.2665   -8.3392   15.2307 C   0  0  0  0  0  0  0  0  0  0  0  0
   14.2612   -7.6102   15.0090 O   0  0  0  0  0  0  0  0  0  0  0  0
   18.6522  -10.7991   15.9302 C   0  0  0  0  0  0  0  0  0  0  0  0
   19.6148  -10.7951   14.7340 C   0  0  0  0  0  0  0  0  0  0  0  0
   19.1188  -11.6921   13.6008 C   0  0  0  0  0  0  0  0  0  0  0  0
   18.8704  -13.1058   14.1140 C   0  0  0  0  0  0  0  0  0  0  0  0
   17.8099  -13.0818   15.2088 C   0  0  0  0  0  0  0  0  0  0  0  0
   18.2752  -12.2179   16.3800 C   0  0  0  0  0  0  0  0  0  0  0  0
   15.2497   -7.2387   20.1758 C   0  0  0  0  0  0  0  0  0  0  0  0
   15.7951   -7.8875   18.9954 N   0  0  0  0  0  0  0  0  0  0  0  0
   15.1649   -7.7906   17.7146 C   0  0  0  0  0  0  0  0  0  0  0  0
   14.1012   -7.1235   17.5933 O   0  0  0  0  0  0  0  0  0  0  0  0
   16.6249   -8.4105   19.0797 H   0  0  0  0  0  0  0  0  0  0  0  0
   15.4309   -8.9296   12.7607 C   0  0  0  0  0  0  0  0  0  0  0  0
   14.9099   -7.8672   12.3238 O   0  0  0  0  0  0  0  0  0  0  0  0
   15.5728  -10.0578   11.8900 N   0  0  0  0  0  0  0  0  0  0  0  0
   15.9371  -10.8944   12.2596 H   0  0  0  0  0  0  0  0  0  0  0  0
   15.2020  -10.0225   10.4823 C   0  0  0  0  0  0  0  0  0  0  0  0
   16.3279   -9.4848    9.6682 C   0  0  0  0  0  0  0  0  0  0  0  0
   16.3130   -9.4543    8.3134 N   0  0  0  0  0  0  0  0  0  0  0  0
   17.4394   -8.8704    7.8329 C   0  0  0  0  0  0  0  0  0  0  0  0
   17.7171   -8.6947    6.4774 C   0  0  0  0  0  0  0  0  0  0  0  0
   18.9219   -8.0688    6.1150 C   0  0  0  0  0  0  0  0  0  0  0  0
   19.8254   -7.6292    7.1023 C   0  0  0  0  0  0  0  0  0  0  0  0
   19.5355   -7.8096    8.4639 C   0  0  0  0  0  0  0  0  0  0  0  0
   18.3362   -8.4334    8.7959 C   0  0  0  0  0  0  0  0  0  0  0  0
   17.7223   -8.7768   10.3186 S   0  0  0  0  0  0  0  0  0  0  0  0
 14 15  1  0  0  0
 15 16  1  0  0  0
 16 17  2  0  0  0
 16  1  1  0  0  0
  1  2  2  0  0  0
  2  3  1  0  0  0
  3  4  1  0  0  0
  3  8  1  0  0  0
  4  5  2  0  0  0
  5 19  1  0  0  0
  5  6  1  0  0  0
 19 20  2  0  0  0
 19 21  1  0  0  0
 21 23  1  0  0  0
 23 24  1  0  0  0
 24 25  2  0  0  0
 25 26  1  0  0  0
 26 27  2  0  0  0
 27 28  1  0  0  0
 28 29  2  0  0  0
 29 30  1  0  0  0
 30 31  2  0  0  0
 31 32  1  0  0  0
 31 26  1  0  0  0
 32 24  1  0  0  0
  6  7  2  0  0  0
  6  1  1  0  0  0
  8  9  1  0  0  0
  9 10  1  0  0  0
 10 11  1  0  0  0
 11 12  1  0  0  0
 12 13  1  0  0  0
 13  8  1  0  0  0
 15 18  1  0  0  0
 21 22  1  0  0  0
M  END
>  <minimizedAffinity>
-3.39240

>  <minimizedRMSD>
2.11433

$$$$
CSC026802623 CSSS00026802623 MCULE-7736862971 MolPort-005-573-693 PubChem-17445010 Z70902666


 29 33  0  0  0  0  0  0  0  0999 V2000
   17.2773   -9.9207   16.0535 C   0  0  0  0  0  0  0  0  0  0  0  0
   16.5067  -10.0218   14.7235 C   0  0  0  0  0  0  0  0  0  0  0  0
   17.4118  -10.6024   13.6217 C   0  0  0  0  0  0  0  0  0  0  0  0
   17.8789  -12.0084   14.0576 C   0  0  0  0  0  0  0  0  0  0  0  0
   18.6522  -11.9255   15.3826 C   0  0  0  0  0  0  0  0  0  0  0  0
   17.7393  -11.3282   16.4655 C   0  0  0  0  0  0  0  0  0  0  0  0
   19.8780  -11.0185   15.1958 C   0  0  0  0  0  0  0  0  0  0  0  0
   19.4292   -9.6102   14.7765 C   0  0  0  0  0  0  0  0  0  0  0  0
   18.6492   -9.6990   13.4553 C   0  0  0  0  0  0  0  0  0  0  0  0
   18.5173   -9.0255   15.8655 C   0  0  0  0  0  0  0  0  0  0  0  0
   14.7797   -7.7485   18.1102 C   0  0  0  0  0  0  0  0  0  0  0  0
   15.6182   -8.1968   16.9688 C   0  0  0  0  0  0  0  0  0  0  0  0
   16.4146   -9.3797   17.0997 N   0  0  0  0  0  0  0  0  0  0  0  0
   15.6191   -7.5318   15.8990 O   0  0  0  0  0  0  0  0  0  0  0  0
   16.3778   -9.8629   17.9567 H   0  0  0  0  0  0  0  0  0  0  0  0
   16.6520  -10.6475   12.3240 C   0  0  0  0  0  0  0  0  0  0  0  0
   15.8051   -9.5497   11.9673 N   0  0  0  0  0  0  0  0  0  0  0  0
   16.7567  -11.6389   11.5495 O   0  0  0  0  0  0  0  0  0  0  0  0
   15.6889   -8.8158   12.6132 H   0  0  0  0  0  0  0  0  0  0  0  0
   15.1079   -9.4707   10.6915 C   0  0  0  0  0  0  0  0  0  0  0  0
   16.0747   -9.6392    9.5654 C   0  0  0  0  0  0  0  0  0  0  0  0
   17.1775   -8.8992    9.3761 N   0  0  0  0  0  0  0  0  0  0  0  0
   17.7385   -9.4324    8.2843 C   0  0  0  0  0  0  0  0  0  0  0  0
   18.9285   -8.9297    7.7664 C   0  0  0  0  0  0  0  0  0  0  0  0
   19.5092   -7.8417    8.4416 C   0  0  0  0  0  0  0  0  0  0  0  0
   18.8989   -7.2992    9.5914 C   0  0  0  0  0  0  0  0  0  0  0  0
   17.6990   -7.8529   10.0633 C   0  0  0  0  0  0  0  0  0  0  0  0
   17.0222  -10.4663    7.8063 N   0  0  0  0  0  0  0  0  0  0  0  0
   15.9744  -10.5973    8.6170 N   0  0  0  0  0  0  0  0  0  0  0  0
 11 12  1  0  0  0
 12 13  1  0  0  0
 13  1  1  0  0  0
  1  2  1  0  0  0
  2  3  1  0  0  0
  3 16  1  0  0  0
 16 17  1  0  0  0
 17 20  1  0  0  0
 20 21  1  0  0  0
 21 22  1  0  0  0
 22 23  1  0  0  0
 23 24  1  0  0  0
 24 25  2  0  0  0
 25 26  1  0  0  0
 26 27  2  0  0  0
 23 28  2  0  0  0
 28 29  1  0  0  0
 16 18  2  0  0  0
  3  4  1  0  0  0
  4  5  1  0  0  0
  5  6  1  0  0  0
  5  7  1  0  0  0
  7  8  1  0  0  0
  8  9  1  0  0  0
  8 10  1  0  0  0
 12 14  2  0  0  0
  6  1  1  0  0  0
 10  1  1  0  0  0
  9  3  1  0  0  0
 29 21  2  0  0  0
 27 22  1  0  0  0
 13 15  1  0  0  0
 17 19  1  0  0  0
M  END
>  <minimizedAffinity>
-3.36760

>  <minimizedRMSD>
0.94717

$$$$
CSC027960136 9630709 CSSS00027960136 MCULE-7420441158 MolPort-004-268-024 PubChem-5003926 Z25040406 ZINC000009630709 ZINC09630709


 33 35  0  0  0  0  0  0  0  0999 V2000
   17.0864  -10.6507   13.5964 C   0  0  0  0  0  0  0  0  0  0  0  0
   18.1503   -8.2445    8.1214 C   0  0  0  0  0  0  0  0  0  0  0  0
   18.7034   -8.5060    9.3864 C   0  0  0  0  0  0  0  0  0  0  0  0
   20.0944   -8.1299    9.7806 C   0  0  0  0  0  0  0  0  0  0  0  0
   17.7981   -9.1630   10.2423 C   0  0  0  0  0  0  0  0  0  0  0  0
   16.5759   -9.4021    9.6489 C   0  0  0  0  0  0  0  0  0  0  0  0
   16.5585   -8.8263    8.0771 S   0  0  0  0  0  0  0  0  0  0  0  0
   15.5623  -10.0213   10.2957 N   0  0  0  0  0  0  0  0  0  0  0  0
   15.7530  -10.4243   11.5820 C   0  0  0  0  0  0  0  0  0  0  0  0
   16.9483  -10.2108   12.2128 N   0  0  0  0  0  0  0  0  0  0  0  0
   17.9837   -9.5837   11.5662 C   0  0  0  0  0  0  0  0  0  0  0  0
   19.0832   -9.3910   12.1547 O   0  0  0  0  0  0  0  0  0  0  0  0
   18.8097   -7.5766    6.9852 C   0  0  0  0  0  0  0  0  0  0  0  0
   18.8800   -6.3173    6.9609 O   0  0  0  0  0  0  0  0  0  0  0  0
   19.3526   -8.3297    5.9422 O   0  0  0  0  0  0  0  0  0  0  0  0
   19.7206   -8.5374    3.5831 C   0  0  0  0  0  0  0  0  0  0  0  0
   19.9929   -7.7224    4.8300 C   0  0  0  0  0  0  0  0  0  0  0  0
   16.6089   -9.5882   14.5271 C   0  0  0  0  0  0  0  0  0  0  0  0
   16.4315   -8.4199   14.0912 O   0  0  0  0  0  0  0  0  0  0  0  0
   16.3955   -9.9086   15.9077 N   0  0  0  0  0  0  0  0  0  0  0  0
   16.5463  -10.8449   16.1720 H   0  0  0  0  0  0  0  0  0  0  0  0
   15.9851   -9.0063   16.9436 C   0  0  0  0  0  0  0  0  0  0  0  0
   16.9300   -8.5902   17.8877 C   0  0  0  0  0  0  0  0  0  0  0  0
   16.5680   -7.7077   18.9096 C   0  0  0  0  0  0  0  0  0  0  0  0
   15.2555   -7.2357   18.9931 C   0  0  0  0  0  0  0  0  0  0  0  0
   14.3026   -7.6470   18.0560 C   0  0  0  0  0  0  0  0  0  0  0  0
   14.6693   -8.5275   17.0329 C   0  0  0  0  0  0  0  0  0  0  0  0
   12.6578   -7.0461   18.1533 S   0  0  0  0  0  0  0  0  0  0  0  0
   11.7873   -7.9271   19.3579 N   0  0  0  0  0  0  0  0  0  0  0  0
   11.9717   -7.2284   16.8285 O   0  0  0  0  0  0  0  0  0  0  0  0
   12.6754   -5.5871   18.5114 O   0  0  0  0  0  0  0  0  0  0  0  0
   11.7763   -8.9173   19.1134 H   0  0  0  0  0  0  0  0  0  0  0  0
   10.8300   -7.5788   19.4086 H   0  0  0  0  0  0  0  0  0  0  0  0
 16 17  1  0  0  0
 17 15  1  0  0  0
 15 13  1  0  0  0
 13 14  2  0  0  0
 13  2  1  0  0  0
  2  3  2  0  0  0
  3  4  1  0  0  0
  3  5  1  0  0  0
  5  6  2  0  0  0
  6  7  1  0  0  0
  6  8  1  0  0  0
  7  2  1  0  0  0
  8  9  2  0  0  0
  9 10  1  0  0  0
 10  1  1  0  0  0
 10 11  1  0  0  0
  1 18  1  0  0  0
 18 19  2  0  0  0
 18 20  1  0  0  0
 20 22  1  0  0  0
 22 23  2  0  0  0
 23 24  1  0  0  0
 24 25  2  0  0  0
 25 26  1  0  0  0
 26 27  2  0  0  0
 26 28  1  0  0  0
 27 22  1  0  0  0
 28 29  1  0  0  0
 28 30  2  0  0  0
 28 31  2  0  0  0
 11 12  2  0  0  0
 11  5  1  0  0  0
 20 21  1  0  0  0
 29 32  1  0  0  0
 29 33  1  0  0  0
M  END
>  <minimizedAffinity>
-3.33418

>  <minimizedRMSD>
3.06372

$$$$
CSC025982208 40554236 CSSS00025982208 MCULE-7619666110 MolPort-009-071-944 PubChem-45832434 Z573265084 ZINC000040554236 ZINC40554236


 27 29  0  0  0  0  0  0  0  0999 V2000
   18.6703   -9.6290   12.4636 N   0  0  0  0  0  0  0  0  0  0  0  0
   19.4288   -9.0187   12.6096 H   0  0  0  0  0  0  0  0  0  0  0  0
   15.9714   -9.8860    9.8678 C   0  0  0  0  0  0  0  0  0  0  0  0
   16.5739   -9.2261    8.8327 N   0  0  0  0  0  0  0  0  0  0  0  0
   17.8202   -8.7273    9.0185 C   0  0  0  0  0  0  0  0  0  0  0  0
   18.5432   -8.0561    8.1086 N   0  0  0  0  0  0  0  0  0  0  0  0
   19.6834   -7.7965    8.8069 C   0  0  0  0  0  0  0  0  0  0  0  0
   19.6419   -8.2892   10.0717 N   0  0  0  0  0  0  0  0  0  0  0  0
   18.4627   -8.8672   10.1747 N   0  0  0  0  0  0  0  0  0  0  0  0
   17.9307   -9.5092   11.2430 C   0  0  0  0  0  0  0  0  0  0  0  0
   16.6409  -10.0477   11.0977 C   0  0  0  0  0  0  0  0  0  0  0  0
   14.6060  -10.4559    9.6977 C   0  0  0  0  0  0  0  0  0  0  0  0
   12.3477  -10.1478   10.6600 C   0  0  0  0  0  0  0  0  0  0  0  0
   13.8160  -10.3212   10.9852 C   0  0  0  0  0  0  0  0  0  0  0  0
   18.3620  -10.6048   13.5020 C   0  0  0  0  0  0  0  0  0  0  0  0
   17.5321   -9.9817   14.5737 C   0  0  0  0  0  0  0  0  0  0  0  0
   17.5203  -10.5278   15.8622 C   0  0  0  0  0  0  0  0  0  0  0  0
   16.7516   -9.9333   16.8672 C   0  0  0  0  0  0  0  0  0  0  0  0
   15.9915   -8.7924   16.5872 C   0  0  0  0  0  0  0  0  0  0  0  0
   16.0067   -8.2449   15.2994 C   0  0  0  0  0  0  0  0  0  0  0  0
   16.7750   -8.8392   14.2943 C   0  0  0  0  0  0  0  0  0  0  0  0
   15.0374   -8.0389   17.8511 S   0  0  0  0  0  0  0  0  0  0  0  0
   16.0739   -7.5110   19.1288 N   0  0  0  0  0  0  0  0  0  0  0  0
   14.2969   -6.8596   17.2873 O   0  0  0  0  0  0  0  0  0  0  0  0
   14.0545   -9.0324   18.4037 O   0  0  0  0  0  0  0  0  0  0  0  0
   16.7458   -6.8356   18.7645 H   0  0  0  0  0  0  0  0  0  0  0  0
   16.5729   -8.3125   19.5150 H   0  0  0  0  0  0  0  0  0  0  0  0
 13 14  1  0  0  0
 14 12  1  0  0  0
 12  3  1  0  0  0
  3  4  2  0  0  0
  4  5  1  0  0  0
  5  6  2  0  0  0
  6  7  1  0  0  0
  7  8  2  0  0  0
  8  9  1  0  0  0
  9 10  1  0  0  0
  9  5  1  0  0  0
 10  1  1  0  0  0
 10 11  2  0  0  0
  1 15  1  0  0  0
 15 16  1  0  0  0
 16 17  2  0  0  0
 17 18  1  0  0  0
 18 19  2  0  0  0
 19 20  1  0  0  0
 19 22  1  0  0  0
 20 21  2  0  0  0
 21 16  1  0  0  0
 22 23  1  0  0  0
 22 24  2  0  0  0
 22 25  2  0  0  0
 11  3  1  0  0  0
  1  2  1  0  0  0
 23 26  1  0  0  0
 23 27  1  0  0  0
M  END
>  <minimizedAffinity>
-3.31935

>  <minimizedRMSD>
1.38782

$$$$
CSC027546044 97109659 CSSS00027546044 MCULE-5431078736 MolPort-029-934-535 PubChem-75521259 Z1666037000 ZINC000097109659 ZINC97109659


 25 26  0  0  0  0  0  0  0  0999 V2000
   14.7078  -10.0786   10.8299 C   0  0  0  0  0  0  0  0  0  0  0  0
   15.6405  -10.2649   11.8571 C   0  0  0  0  0  0  0  0  0  0  0  0
   16.9950   -9.9635   11.6654 C   0  0  0  0  0  0  0  0  0  0  0  0
   17.4020   -9.4636   10.4035 C   0  0  0  0  0  0  0  0  0  0  0  0
   18.7370   -9.1335   10.1184 C   0  0  0  0  0  0  0  0  0  0  0  0
   19.0991   -8.6431    8.8614 C   0  0  0  0  0  0  0  0  0  0  0  0
   18.1303   -8.4755    7.8702 C   0  0  0  0  0  0  0  0  0  0  0  0
   16.7977   -8.7978    8.1338 C   0  0  0  0  0  0  0  0  0  0  0  0
   16.4278   -9.2891    9.3893 C   0  0  0  0  0  0  0  0  0  0  0  0
   15.1276   -9.5973    9.6288 N   0  0  0  0  0  0  0  0  0  0  0  0
   17.9221  -10.1873   12.8064 C   0  0  0  0  0  0  0  0  0  0  0  0
   18.9393   -9.4601   12.9692 O   0  0  0  0  0  0  0  0  0  0  0  0
   17.6583  -11.2453   13.7353 N   0  0  0  0  0  0  0  0  0  0  0  0
   16.8794  -11.8266   13.5780 H   0  0  0  0  0  0  0  0  0  0  0  0
   18.4922  -11.4988   14.9028 C   0  0  0  0  0  0  0  0  0  0  0  0
   18.2241  -10.4660   15.9857 C   0  0  0  0  0  0  0  0  0  0  0  0
   16.7312  -10.3411   16.2373 C   0  0  0  0  0  0  0  0  0  0  0  0
   16.3368   -8.9063   16.2949 C   0  0  0  0  0  0  0  0  0  0  0  0
   16.0744   -8.2948   17.5519 N   0  0  0  0  0  0  0  0  0  0  0  0
   16.2180   -8.2372   15.2350 O   0  0  0  0  0  0  0  0  0  0  0  0
   16.1667   -8.8162   18.3819 H   0  0  0  0  0  0  0  0  0  0  0  0
   15.8005   -7.3500   17.5921 H   0  0  0  0  0  0  0  0  0  0  0  0
   12.2929   -9.7697   10.2134 C   0  0  0  0  0  0  0  0  0  0  0  0
   13.3196  -10.3901   11.0347 N   0  0  0  0  0  0  0  0  0  0  0  0
   12.8948  -11.3287   12.0623 C   0  0  0  0  0  0  0  0  0  0  0  0
 23 24  1  0  0  0
 24 25  1  0  0  0
 24  1  1  0  0  0
  1  2  2  0  0  0
  2  3  1  0  0  0
  3 11  1  0  0  0
  3  4  2  0  0  0
 11 12  2  0  0  0
 11 13  1  0  0  0
 13 15  1  0  0  0
 15 16  1  0  0  0
 16 17  1  0  0  0
 17 18  1  0  0  0
 18 19  1  0  0  0
 18 20  2  0  0  0
  4  5  1  0  0  0
  5  6  2  0  0  0
  6  7  1  0  0  0
  7  8  2  0  0  0
  8  9  1  0  0  0
  9 10  2  0  0  0
  9  4  1  0  0  0
 10  1  1  0  0  0
 13 14  1  0  0  0
 19 21  1  0  0  0
 19 22  1  0  0  0
M  END
>  <minimizedAffinity>
-3.29100

>  <minimizedRMSD>
1.53330

$$$$
CSC027716842 2625325 CSSS00027716842 MCULE-2080790789 MolPort-004-048-841 PubChem-2087507 Z15513085 ZINC000002625325


 31 34  0  0  0  0  0  0  0  0999 V2000
   19.0158   -9.9418   14.2872 O   0  0  0  0  0  0  0  0  0  0  0  0
   19.3352  -12.1841   14.7579 O   0  0  0  0  0  0  0  0  0  0  0  0
   18.8635  -11.2997   13.9937 C   0  0  0  0  0  0  0  0  0  0  0  0
   18.1254  -11.7062   12.7691 C   0  0  0  0  0  0  0  0  0  0  0  0
   17.4609  -10.4922   12.1537 C   0  0  0  0  0  0  0  0  0  0  0  0
   16.8173  -10.8717   10.8361 C   0  0  0  0  0  0  0  0  0  0  0  0
   15.7639   -9.5093   10.2537 S   0  0  0  0  0  0  0  0  0  0  0  0
   16.9753   -8.9526    9.0594 C   0  0  0  0  0  0  0  0  0  0  0  0
   18.3682   -8.0762    9.4586 S   0  0  0  0  0  0  0  0  0  0  0  0
   18.8582   -8.0052    7.8558 C   0  0  0  0  0  0  0  0  0  0  0  0
   17.9261   -8.6575    7.0625 C   0  0  0  0  0  0  0  0  0  0  0  0
   18.1063   -8.7361    5.6810 C   0  0  0  0  0  0  0  0  0  0  0  0
   19.2500   -8.1449    5.1172 C   0  0  0  0  0  0  0  0  0  0  0  0
   20.1902   -7.4861    5.9333 C   0  0  0  0  0  0  0  0  0  0  0  0
   19.9992   -7.4113    7.3229 C   0  0  0  0  0  0  0  0  0  0  0  0
   16.8700   -9.1888    7.7288 N   0  0  0  0  0  0  0  0  0  0  0  0
   19.2507   -9.4615   15.6074 C   0  0  0  0  0  0  0  0  0  0  0  0
   18.1486   -9.8886   16.5286 C   0  0  0  0  0  0  0  0  0  0  0  0
   18.3123  -10.9307   17.2174 O   0  0  0  0  0  0  0  0  0  0  0  0
   16.8865   -9.1253   16.6315 C   0  0  0  0  0  0  0  0  0  0  0  0
   16.3478   -8.8276   17.8928 C   0  0  0  0  0  0  0  0  0  0  0  0
   15.1497   -8.1173   17.9987 C   0  0  0  0  0  0  0  0  0  0  0  0
   14.4742   -7.7002   16.8425 C   0  0  0  0  0  0  0  0  0  0  0  0
   13.2621   -7.0074   16.9523 O   0  0  0  0  0  0  0  0  0  0  0  0
   12.8295   -6.3881   18.1693 C   0  0  0  0  0  0  0  0  0  0  0  0
   13.3734   -7.0921   19.3790 C   0  0  0  0  0  0  0  0  0  0  0  0
   14.5774   -7.8553   19.2801 N   0  0  0  0  0  0  0  0  0  0  0  0
   12.8007   -6.9632   20.4922 O   0  0  0  0  0  0  0  0  0  0  0  0
   15.0010   -7.9991   15.5833 C   0  0  0  0  0  0  0  0  0  0  0  0
   16.2022   -8.7066   15.4784 C   0  0  0  0  0  0  0  0  0  0  0  0
   15.0114   -8.1996   20.0939 H   0  0  0  0  0  0  0  0  0  0  0  0
  2  3  2  0  0  0
  3  1  1  0  0  0
  1 17  1  0  0  0
 17 18  1  0  0  0
 18 20  1  0  0  0
 20 21  2  0  0  0
 21 22  1  0  0  0
 22 23  2  0  0  0
 23 24  1  0  0  0
 24 25  1  0  0  0
 25 26  1  0  0  0
 26 27  1  0  0  0
 26 28  2  0  0  0
 23 29  1  0  0  0
 29 30  2  0  0  0
 18 19  2  0  0  0
  3  4  1  0  0  0
  4  5  1  0  0  0
  5  6  1  0  0  0
  6  7  1  0  0  0
  7  8  1  0  0  0
  8  9  1  0  0  0
  9 10  1  0  0  0
 10 11  2  0  0  0
 11 12  1  0  0  0
 12 13  2  0  0  0
 13 14  1  0  0  0
 14 15  2  0  0  0
 11 16  1  0  0  0
 30 20  1  0  0  0
 16  8  2  0  0  0
 27 22  1  0  0  0
 15 10  1  0  0  0
 27 31  1  0  0  0
M  END
>  <minimizedAffinity>
-3.27541

>  <minimizedRMSD>
2.50588

$$$$
CSSS00160577429 MCULE-8141578919 MolPort-047-373-314 PubChem-45928779


 34 36  0  0  0  0  0  0  0  0999 V2000
   17.3282  -10.3181   15.9153 N   0  0  0  0  0  0  0  0  0  0  0  0
   16.9941  -10.1030   14.6120 C   0  0  0  0  0  0  0  0  0  0  0  0
   16.0407   -9.1427   14.2577 C   0  0  0  0  0  0  0  0  0  0  0  0
   15.4256   -8.3932   15.2850 C   0  0  0  0  0  0  0  0  0  0  0  0
   14.5622   -7.5190   14.9999 O   0  0  0  0  0  0  0  0  0  0  0  0
   15.7806   -8.6259   16.6326 C   0  0  0  0  0  0  0  0  0  0  0  0
   16.7427   -9.6033   16.9105 C   0  0  0  0  0  0  0  0  0  0  0  0
   15.1801   -7.8808   17.7662 C   0  0  0  0  0  0  0  0  0  0  0  0
   14.1702   -7.1463   17.5895 O   0  0  0  0  0  0  0  0  0  0  0  0
   15.7555   -7.9980   19.0764 N   0  0  0  0  0  0  0  0  0  0  0  0
   16.5431   -8.5802   19.1759 H   0  0  0  0  0  0  0  0  0  0  0  0
   15.2631   -7.3205   20.2732 C   0  0  0  0  0  0  0  0  0  0  0  0
   14.6156   -8.3428   21.1829 C   0  0  0  0  0  0  0  0  0  0  0  0
   14.2267   -6.2756   19.9017 C   0  0  0  0  0  0  0  0  0  0  0  0
   16.4099   -6.6634   21.0195 C   0  0  0  0  0  0  0  0  0  0  0  0
   15.7238   -8.9560   12.8208 C   0  0  0  0  0  0  0  0  0  0  0  0
   15.6335   -7.7993   12.3260 O   0  0  0  0  0  0  0  0  0  0  0  0
   15.5173  -10.1007   11.9851 N   0  0  0  0  0  0  0  0  0  0  0  0
   15.5559  -10.9954   12.3942 H   0  0  0  0  0  0  0  0  0  0  0  0
   15.2527   -9.9988   10.5567 C   0  0  0  0  0  0  0  0  0  0  0  0
   14.9453  -11.3748    9.9995 C   0  0  0  0  0  0  0  0  0  0  0  0
   16.4325   -9.4127    9.8509 C   0  0  0  0  0  0  0  0  0  0  0  0
   16.4394   -9.1930    8.5102 N   0  0  0  0  0  0  0  0  0  0  0  0
   17.6518   -8.6572    8.3125 C   0  0  0  0  0  0  0  0  0  0  0  0
   18.2064   -8.2309    7.1084 C   0  0  0  0  0  0  0  0  0  0  0  0
   19.5070   -7.6944    7.1498 C   0  0  0  0  0  0  0  0  0  0  0  0
   20.2058   -7.6000    8.3743 C   0  0  0  0  0  0  0  0  0  0  0  0
   19.6125   -8.0410    9.5720 C   0  0  0  0  0  0  0  0  0  0  0  0
   18.3252   -8.5663    9.4924 C   0  0  0  0  0  0  0  0  0  0  0  0
   17.5718   -9.0401   10.4941 N   0  0  0  0  0  0  0  0  0  0  0  0
   17.7880   -9.1027   11.4525 H   0  0  0  0  0  0  0  0  0  0  0  0
   18.2116  -11.6965   17.7471 C   0  0  0  0  0  0  0  0  0  0  0  0
   18.3246  -11.3218   16.2790 C   0  0  0  0  0  0  0  0  0  0  0  0
   18.1953  -12.5602   15.4082 C   0  0  0  0  0  0  0  0  0  0  0  0
 32 33  1  0  0  0
 33 34  1  0  0  0
 33  1  1  0  0  0
  1  2  1  0  0  0
  2  3  2  0  0  0
  3  4  1  0  0  0
  4  5  2  0  0  0
  4  6  1  0  0  0
  6  7  2  0  0  0
  6  8  1  0  0  0
  8  9  2  0  0  0
  8 10  1  0  0  0
 10 12  1  0  0  0
 12 13  1  0  0  0
 12 14  1  0  0  0
 12 15  1  0  0  0
  3 16  1  0  0  0
 16 17  2  0  0  0
 16 18  1  0  0  0
 18 20  1  0  0  0
 20 21  1  0  0  0
 20 22  1  0  0  0
 22 23  2  0  0  0
 23 24  1  0  0  0
 24 25  2  0  0  0
 25 26  1  0  0  0
 26 27  2  0  0  0
 27 28  1  0  0  0
 28 29  2  0  0  0
 29 30  1  0  0  0
  7  1  1  0  0  0
 30 22  1  0  0  0
 29 24  1  0  0  0
 10 11  1  0  0  0
 18 19  1  0  0  0
 30 31  1  0  0  0
M  END
>  <minimizedAffinity>
-3.27457

>  <minimizedRMSD>
1.49545

$$$$
CSSS03436956091 MCULE-9782727289 MolPort-047-582-637 PubChem-154829170


 27 30  0  0  0  0  0  0  0  0999 V2000
   16.2702   -9.7590   14.1325 C   0  0  0  0  0  0  0  0  0  0  0  0
   17.4552   -9.8631   13.2377 C   0  0  0  0  0  0  0  0  0  0  0  0
   16.7283   -9.6294   11.9819 N   0  0  0  0  0  0  0  0  0  0  0  0
   15.5475   -9.5346   12.8525 C   0  0  0  0  0  0  0  0  0  0  0  0
   17.0350   -9.5403   10.5905 C   0  0  0  0  0  0  0  0  0  0  0  0
   16.2066  -10.1460    9.6355 C   0  0  0  0  0  0  0  0  0  0  0  0
   16.5489  -10.0325    8.2742 C   0  0  0  0  0  0  0  0  0  0  0  0
   15.6868  -10.6656    7.2427 C   0  0  0  0  0  0  0  0  0  0  0  0
   17.6666   -9.3454    7.8959 N   0  0  0  0  0  0  0  0  0  0  0  0
   18.4384   -8.7761    8.8537 C   0  0  0  0  0  0  0  0  0  0  0  0
   19.5939   -8.0492    8.6805 C   0  0  0  0  0  0  0  0  0  0  0  0
   19.9402   -7.7249    9.9979 C   0  0  0  0  0  0  0  0  0  0  0  0
   19.0349   -8.2373   10.8674 N   0  0  0  0  0  0  0  0  0  0  0  0
   18.1311   -8.8722   10.1480 N   0  0  0  0  0  0  0  0  0  0  0  0
   16.3257   -8.4569   14.9172 C   0  0  0  0  0  0  0  0  0  0  0  0
   17.6726   -9.5018   16.7396 C   0  0  0  0  0  0  0  0  0  0  0  0
   16.5119   -8.7235   16.3380 N   0  0  0  0  0  0  0  0  0  0  0  0
   15.6385   -8.1539   17.3262 C   0  0  0  0  0  0  0  0  0  0  0  0
   14.3659   -7.7995   16.9953 N   0  0  0  0  0  0  0  0  0  0  0  0
   13.5227   -7.2606   17.9136 C   0  0  0  0  0  0  0  0  0  0  0  0
   12.1392   -6.8881   17.5097 C   0  0  0  0  0  0  0  0  0  0  0  0
   13.9606   -7.0614   19.2255 C   0  0  0  0  0  0  0  0  0  0  0  0
   13.1375   -6.5243   20.1628 F   0  0  0  0  0  0  0  0  0  0  0  0
   15.2679   -7.4283   19.5516 C   0  0  0  0  0  0  0  0  0  0  0  0
   15.7006   -7.2647   20.7224 O   0  0  0  0  0  0  0  0  0  0  0  0
   16.0771   -7.9642   18.6015 N   0  0  0  0  0  0  0  0  0  0  0  0
   16.9975   -8.2203   18.8391 H   0  0  0  0  0  0  0  0  0  0  0  0
 16 17  1  0  0  0
 17 15  1  0  0  0
 15  1  1  0  0  0
  1  2  1  0  0  0
  2  3  1  0  0  0
  3  4  1  0  0  0
  3  5  1  0  0  0
  5  6  2  0  0  0
  6  7  1  0  0  0
  7  8  1  0  0  0
  7  9  2  0  0  0
  9 10  1  0  0  0
 10 11  2  0  0  0
 11 12  1  0  0  0
 12 13  2  0  0  0
 13 14  1  0  0  0
 17 18  1  0  0  0
 18 19  2  0  0  0
 19 20  1  0  0  0
 20 21  1  0  0  0
 20 22  2  0  0  0
 22 23  1  0  0  0
 22 24  1  0  0  0
 24 25  2  0  0  0
 24 26  1  0  0  0
  4  1  1  0  0  0
 14  5  1  0  0  0
 26 18  1  0  0  0
 14 10  1  0  0  0
 26 27  1  0  0  0
M  END
>  <minimizedAffinity>
-3.26342

>  <minimizedRMSD>
1.73168

$$$$
CSSS00160862399 LN01952380 MolPort-003-178-673 PubChem-135684518


 34 37  0  0  0  0  0  0  0  0999 V2000
   16.1218   -8.3142   10.7456 C   0  0  0  0  0  0  0  0  0  0  0  0
   16.4163   -9.0133    9.4256 C   0  0  0  0  0  0  0  0  0  0  0  0
   17.6546   -8.5402    8.7981 N   0  0  0  0  0  0  0  0  0  0  0  0
   18.6958   -8.1033    9.5783 C   0  0  0  0  0  0  0  0  0  0  0  0
   19.8557   -7.6616    9.0185 N   0  0  0  0  0  0  0  0  0  0  0  0
   19.9702   -7.6589    7.6717 C   0  0  0  0  0  0  0  0  0  0  0  0
   18.9524   -8.0909    6.8446 C   0  0  0  0  0  0  0  0  0  0  0  0
   19.2903   -8.0056    5.4846 C   0  0  0  0  0  0  0  0  0  0  0  0
   20.5652   -7.4704    5.2887 C   0  0  0  0  0  0  0  0  0  0  0  0
   21.2164   -7.3402    3.9470 C   0  0  0  0  0  0  0  0  0  0  0  0
   20.1649   -7.3654    2.8332 C   0  0  0  0  0  0  0  0  0  0  0  0
   20.8528   -7.5098    1.4924 C   0  0  0  0  0  0  0  0  0  0  0  0
   19.1843   -8.5239    3.0378 C   0  0  0  0  0  0  0  0  0  0  0  0
   18.3848   -8.3341    4.3313 C   0  0  0  0  0  0  0  0  0  0  0  0
   21.3007   -7.1538    6.7775 S   0  0  0  0  0  0  0  0  0  0  0  0
   17.7642   -8.5419    7.4296 C   0  0  0  0  0  0  0  0  0  0  0  0
   16.8090   -8.9459    6.7098 O   0  0  0  0  0  0  0  0  0  0  0  0
   16.3448  -10.5126    9.5099 C   0  0  0  0  0  0  0  0  0  0  0  0
   16.1073  -11.1611    8.4587 O   0  0  0  0  0  0  0  0  0  0  0  0
   16.5410  -11.2264   10.7349 N   0  0  0  0  0  0  0  0  0  0  0  0
   16.5017  -12.2101   10.7240 H   0  0  0  0  0  0  0  0  0  0  0  0
   16.7868  -10.5730   11.9472 N   0  0  0  0  0  0  0  0  0  0  0  0
   17.8151  -10.8890   12.6628 C   0  0  0  0  0  0  0  0  0  0  0  0
   18.0927  -10.2092   13.9319 C   0  0  0  0  0  0  0  0  0  0  0  0
   19.4108  -10.1131   14.3804 C   0  0  0  0  0  0  0  0  0  0  0  0
   19.6964   -9.4687   15.5851 C   0  0  0  0  0  0  0  0  0  0  0  0
   18.6681   -8.9134   16.3530 C   0  0  0  0  0  0  0  0  0  0  0  0
   18.9963   -8.2764   17.5436 O   0  0  0  0  0  0  0  0  0  0  0  0
   17.3281   -9.0030   15.9112 C   0  0  0  0  0  0  0  0  0  0  0  0
   17.0597   -9.6531   14.6974 C   0  0  0  0  0  0  0  0  0  0  0  0
   19.8909   -8.2283   17.8180 H   0  0  0  0  0  0  0  0  0  0  0  0
   16.2330   -8.4475   16.6620 N   0  0  0  0  0  0  0  0  0  0  0  0
   15.3515   -7.5836   16.0525 O   0  0  0  0  0  0  0  0  0  0  0  0
   16.0417   -8.7568   17.8558 O   0  0  0  0  0  0  0  0  0  0  0  0
  1  2  1  0  0  0
  2  3  1  0  0  0
  3  4  1  0  0  0
  4  5  2  0  0  0
  5  6  1  0  0  0
  6  7  2  0  0  0
  7  8  1  0  0  0
  8  9  2  0  0  0
  9 10  1  0  0  0
 10 11  1  0  0  0
 11 12  1  0  0  0
 11 13  1  0  0  0
 13 14  1  0  0  0
  9 15  1  0  0  0
  7 16  1  0  0  0
 16 17  2  0  0  0
  2 18  1  0  0  0
 18 19  2  0  0  0
 18 20  1  0  0  0
 20 22  1  0  0  0
 22 23  2  0  0  0
 23 24  1  0  0  0
 24 25  2  0  0  0
 25 26  1  0  0  0
 26 27  2  0  0  0
 27 28  1  0  0  0
 27 29  1  0  0  0
 29 30  2  0  0  0
 29 32  1  0  0  0
 32 33  1  0  0  0
 32 34  2  0  0  0
 16  3  1  0  0  0
 30 24  1  0  0  0
 15  6  1  0  0  0
 14  8  1  0  0  0
 20 21  1  0  0  0
 28 31  1  0  0  0
M  CHG 1  32   1
M  CHG 1  33  -1
M  END
>  <minimizedAffinity>
-3.26237

>  <minimizedRMSD>
2.35514

$$$$
CSSS00116239092 MCULE-6232510471 MolPort-039-177-088 PubChem-120430987 Z1757790819


 27 30  0  0  0  0  0  0  0  0999 V2000
   17.8179   -9.1963   12.8878 C   0  0  0  0  0  0  0  0  0  0  0  0
   17.8701  -10.7025   12.6096 C   0  0  0  0  0  0  0  0  0  0  0  0
   18.3672  -11.4739   13.8390 C   0  0  0  0  0  0  0  0  0  0  0  0
   17.7625  -10.9565   15.0646 N   0  0  0  0  0  0  0  0  0  0  0  0
   17.8397  -11.5458   16.2458 N   0  0  0  0  0  0  0  0  0  0  0  0
   17.1985  -10.7675   17.1478 C   0  0  0  0  0  0  0  0  0  0  0  0
   16.7126   -9.6440   16.4914 C   0  0  0  0  0  0  0  0  0  0  0  0
   17.1030   -9.7937   15.1773 C   0  0  0  0  0  0  0  0  0  0  0  0
   16.8239   -8.8983   14.0110 C   0  0  0  0  0  0  0  0  0  0  0  0
   15.9496   -8.5417   17.0955 C   0  0  0  0  0  0  0  0  0  0  0  0
   16.0033   -8.3233   18.5014 N   0  0  0  0  0  0  0  0  0  0  0  0
   15.2453   -7.7839   16.3781 O   0  0  0  0  0  0  0  0  0  0  0  0
   16.5514   -8.9109   19.0703 H   0  0  0  0  0  0  0  0  0  0  0  0
   15.4923   -7.5848   18.9047 H   0  0  0  0  0  0  0  0  0  0  0  0
   17.4092   -8.4305   11.6401 C   0  0  0  0  0  0  0  0  0  0  0  0
   18.2821   -8.7716   10.5259 N   0  0  0  0  0  0  0  0  0  0  0  0
   19.2562   -8.7089   10.6537 H   0  0  0  0  0  0  0  0  0  0  0  0
   20.8709   -6.7814    6.1196 C   0  0  0  0  0  0  0  0  0  0  0  0
   19.7674   -7.6521    6.6015 C   0  0  0  0  0  0  0  0  0  0  0  0
   19.4630   -7.8742    7.9447 C   0  0  0  0  0  0  0  0  0  0  0  0
   18.3720   -8.7403    8.0741 C   0  0  0  0  0  0  0  0  0  0  0  0
   17.7838   -9.1939    9.2534 C   0  0  0  0  0  0  0  0  0  0  0  0
   16.7159  -10.0413    9.1648 N   0  0  0  0  0  0  0  0  0  0  0  0
   16.2262  -10.4495    7.9556 C   0  0  0  0  0  0  0  0  0  0  0  0
   16.7972  -10.0137    6.7968 N   0  0  0  0  0  0  0  0  0  0  0  0
   17.8544   -9.1709    6.8704 C   0  0  0  0  0  0  0  0  0  0  0  0
   18.7112   -8.5085    5.5922 S   0  0  0  0  0  0  0  0  0  0  0  0
 18 19  1  0  0  0
 19 20  2  0  0  0
 20 21  1  0  0  0
 21 22  2  0  0  0
 22 16  1  0  0  0
 16 15  1  0  0  0
 15  1  1  0  0  0
  1  2  1  0  0  0
  2  3  1  0  0  0
  3  4  1  0  0  0
  4  5  1  0  0  0
  5  6  2  0  0  0
  6  7  1  0  0  0
  7 10  1  0  0  0
 10 11  1  0  0  0
 10 12  2  0  0  0
  7  8  2  0  0  0
  8  9  1  0  0  0
 22 23  1  0  0  0
 23 24  2  0  0  0
 24 25  1  0  0  0
 25 26  2  0  0  0
 26 27  1  0  0  0
 27 19  1  0  0  0
 26 21  1  0  0  0
  9  1  1  0  0  0
  8  4  1  0  0  0
 16 17  1  0  0  0
 11 13  1  0  0  0
 11 14  1  0  0  0
M  END
>  <minimizedAffinity>
-3.25569

>  <minimizedRMSD>
0.94878

$$$$
CSC027279190 CSSS00027279190 MCULE-1850979359 MolPort-005-674-548 Z217736986


 37 41  0  0  0  0  0  0  0  0999 V2000
   15.7277   -9.1196   13.6926 C   0  0  0  0  0  0  0  0  0  0  0  0
   15.6220   -7.8639   13.6357 O   0  0  0  0  0  0  0  0  0  0  0  0
   16.3714   -9.7605   14.8564 C   0  0  0  0  0  0  0  0  0  0  0  0
   17.2999  -10.8035   14.7626 C   0  0  0  0  0  0  0  0  0  0  0  0
   17.7637  -11.2531   15.9410 C   0  0  0  0  0  0  0  0  0  0  0  0
   18.7268  -12.3576   15.8346 C   0  0  0  0  0  0  0  0  0  0  0  0
   18.8188  -12.5599   14.3070 C   0  0  0  0  0  0  0  0  0  0  0  0
   17.8805  -11.5404   13.6217 C   0  0  0  0  0  0  0  0  0  0  0  0
   17.0790  -10.4156   17.2207 S   0  0  0  0  0  0  0  0  0  0  0  0
   16.1406   -9.4228   16.2007 C   0  0  0  0  0  0  0  0  0  0  0  0
   15.2380   -8.3943   16.6303 N   0  0  0  0  0  0  0  0  0  0  0  0
   15.0198   -7.9607   17.9772 C   0  0  0  0  0  0  0  0  0  0  0  0
   15.6501   -8.4776   18.9390 O   0  0  0  0  0  0  0  0  0  0  0  0
   14.7163   -7.9412   15.9290 H   0  0  0  0  0  0  0  0  0  0  0  0
   14.0292   -6.8747   18.2323 C   0  0  0  0  0  0  0  0  0  0  0  0
   14.0537   -6.4550   19.7102 C   0  0  0  0  0  0  0  0  0  0  0  0
   12.7192   -5.8804   20.2030 C   0  0  0  0  0  0  0  0  0  0  0  0
   11.9720   -5.1726   19.0759 C   0  0  0  0  0  0  0  0  0  0  0  0
   11.6236   -6.1449   17.9401 C   0  0  0  0  0  0  0  0  0  0  0  0
   12.6302   -7.2931   17.7810 C   0  0  0  0  0  0  0  0  0  0  0  0
   15.2408   -9.9131   12.6503 O   0  0  0  0  0  0  0  0  0  0  0  0
   14.5118  -10.5067   10.4269 C   0  0  0  0  0  0  0  0  0  0  0  0
   15.2214   -9.4809   11.2950 C   0  0  0  0  0  0  0  0  0  0  0  0
   16.6198   -9.2915   10.8157 C   0  0  0  0  0  0  0  0  0  0  0  0
   16.8688   -8.5155    9.6364 N   0  0  0  0  0  0  0  0  0  0  0  0
   17.5656   -9.8278   11.4516 O   0  0  0  0  0  0  0  0  0  0  0  0
   16.0900   -8.1088    9.1922 H   0  0  0  0  0  0  0  0  0  0  0  0
   18.1542   -8.2812    9.0493 C   0  0  0  0  0  0  0  0  0  0  0  0
   18.3043   -8.2307    7.6703 C   0  0  0  0  0  0  0  0  0  0  0  0
   19.5174   -8.0124    7.1249 C   0  0  0  0  0  0  0  0  0  0  0  0
   19.4418   -8.0021    5.7888 N   0  0  0  0  0  0  0  0  0  0  0  0
   18.1168   -8.2275    5.5690 C   0  0  0  0  0  0  0  0  0  0  0  0
   17.3835   -8.3731    6.7077 N   0  0  0  0  0  0  0  0  0  0  0  0
   20.6304   -7.8345    7.8764 N   0  0  0  0  0  0  0  0  0  0  0  0
   20.5012   -7.8821    9.2371 C   0  0  0  0  0  0  0  0  0  0  0  0
   19.2756   -8.1034    9.8123 N   0  0  0  0  0  0  0  0  0  0  0  0
   20.1618   -7.8660    5.1313 H   0  0  0  0  0  0  0  0  0  0  0  0
 22 23  1  0  0  0
 23 24  1  0  0  0
 24 25  1  0  0  0
 25 28  1  0  0  0
 28 29  1  0  0  0
 29 30  2  0  0  0
 30 31  1  0  0  0
 31 32  1  0  0  0
 32 33  2  0  0  0
 30 34  1  0  0  0
 34 35  2  0  0  0
 35 36  1  0  0  0
 24 26  2  0  0  0
 23 21  1  0  0  0
 21  1  1  0  0  0
  1  3  1  0  0  0
  3  4  1  0  0  0
  4  5  2  0  0  0
  5  6  1  0  0  0
  6  7  1  0  0  0
  7  8  1  0  0  0
  5  9  1  0  0  0
  9 10  1  0  0  0
 10 11  1  0  0  0
 11 12  1  0  0  0
 12 15  1  0  0  0
 15 16  1  0  0  0
 16 17  1  0  0  0
 17 18  1  0  0  0
 18 19  1  0  0  0
 19 20  1  0  0  0
 12 13  2  0  0  0
  1  2  2  0  0  0
 36 28  2  0  0  0
 10  3  2  0  0  0
 20 15  1  0  0  0
 33 29  1  0  0  0
  8  4  1  0  0  0
 25 27  1  0  0  0
 31 37  1  0  0  0
 11 14  1  0  0  0
M  END
>  <minimizedAffinity>
-3.25256

>  <minimizedRMSD>
2.51702

$$$$
CSC027217533 14247425 CSSS00027217533 MCULE-6723543472 MolPort-005-610-798 PubChem-17481087 Z193266940 ZINC000014247425 ZINC14247425


 33 35  0  0  0  0  0  0  0  0999 V2000
   16.1474   -9.1106   12.7303 N   0  0  0  0  0  0  0  0  0  0  0  0
   16.4406   -9.9691   11.6246 C   0  0  0  0  0  0  0  0  0  0  0  0
   16.1152  -11.1858   11.6826 O   0  0  0  0  0  0  0  0  0  0  0  0
   16.4084   -8.1627   12.6797 H   0  0  0  0  0  0  0  0  0  0  0  0
   17.1159   -9.4144   10.4242 C   0  0  0  0  0  0  0  0  0  0  0  0
   16.5184   -9.3946    9.1182 C   0  0  0  0  0  0  0  0  0  0  0  0
   15.1546   -9.9401    8.8568 C   0  0  0  0  0  0  0  0  0  0  0  0
   17.2016   -8.8685    8.0552 N   0  0  0  0  0  0  0  0  0  0  0  0
   18.4434   -8.3665    8.2538 C   0  0  0  0  0  0  0  0  0  0  0  0
   19.2504   -7.8034    7.3495 N   0  0  0  0  0  0  0  0  0  0  0  0
   20.3707   -7.4364    7.9662 N   0  0  0  0  0  0  0  0  0  0  0  0
   20.2800   -7.7652    9.2834 C   0  0  0  0  0  0  0  0  0  0  0  0
   19.0460   -8.3606    9.4658 C   0  0  0  0  0  0  0  0  0  0  0  0
   18.4145   -8.8789   10.5852 C   0  0  0  0  0  0  0  0  0  0  0  0
   18.9736   -7.6189    5.9300 C   0  0  0  0  0  0  0  0  0  0  0  0
   18.8536   -8.9642    5.2404 C   0  0  0  0  0  0  0  0  0  0  0  0
   20.0740   -6.8014    5.2810 C   0  0  0  0  0  0  0  0  0  0  0  0
   15.4761   -9.5928   13.9269 C   0  0  0  0  0  0  0  0  0  0  0  0
   16.6942   -9.0680   16.0851 C   0  0  0  0  0  0  0  0  0  0  0  0
   17.6727   -9.3962   17.0325 C   0  0  0  0  0  0  0  0  0  0  0  0
   18.4353  -10.5579   16.8877 C   0  0  0  0  0  0  0  0  0  0  0  0
   18.2283  -11.3960   15.7902 C   0  0  0  0  0  0  0  0  0  0  0  0
   17.2591  -11.0729   14.8367 C   0  0  0  0  0  0  0  0  0  0  0  0
   16.4871   -9.9143   14.9775 C   0  0  0  0  0  0  0  0  0  0  0  0
   15.9076   -7.8063   16.2586 C   0  0  0  0  0  0  0  0  0  0  0  0
   14.7918   -7.9348   17.6436 S   0  0  0  0  0  0  0  0  0  0  0  0
   13.9583   -9.1778   17.4960 O   0  0  0  0  0  0  0  0  0  0  0  0
   13.8923   -6.7297   17.6582 O   0  0  0  0  0  0  0  0  0  0  0  0
   15.6959   -8.0047   19.1205 N   0  0  0  0  0  0  0  0  0  0  0  0
   15.7342   -8.9665   19.4582 H   0  0  0  0  0  0  0  0  0  0  0  0
   15.9969   -6.7828   21.1913 C   0  0  0  0  0  0  0  0  0  0  0  0
   15.0221   -7.1648   20.0971 C   0  0  0  0  0  0  0  0  0  0  0  0
   13.8584   -7.9233   20.7025 C   0  0  0  0  0  0  0  0  0  0  0  0
 31 32  1  0  0  0
 32 33  1  0  0  0
 32 29  1  0  0  0
 29 26  1  0  0  0
 26 27  2  0  0  0
 26 28  2  0  0  0
 26 25  1  0  0  0
 25 19  1  0  0  0
 19 20  2  0  0  0
 20 21  1  0  0  0
 21 22  2  0  0  0
 22 23  1  0  0  0
 23 24  2  0  0  0
 24 18  1  0  0  0
 24 19  1  0  0  0
 18  1  1  0  0  0
  1  2  1  0  0  0
  2  3  2  0  0  0
  2  5  1  0  0  0
  5  6  2  0  0  0
  6  7  1  0  0  0
  6  8  1  0  0  0
  8  9  2  0  0  0
  9 10  1  0  0  0
 10 11  1  0  0  0
 10 15  1  0  0  0
 11 12  2  0  0  0
 12 13  1  0  0  0
 13 14  2  0  0  0
 13  9  1  0  0  0
 14  5  1  0  0  0
 15 16  1  0  0  0
 15 17  1  0  0  0
 29 30  1  0  0  0
  1  4  1  0  0  0
M  END
>  <minimizedAffinity>
-3.23749

>  <minimizedRMSD>
1.26675

$$$$
CSC026147950 3572753 CSSS00026147950 MCULE-7366321739 MolPort-005-318-715 PubChem-2691127 Z20181602 ZINC000003572753 ZINC03572753


 33 36  0  0  0  0  0  0  0  0999 V2000
   15.5852   -9.8401   15.0381 C   0  0  0  0  0  0  0  0  0  0  0  0
   14.4918   -9.9997   14.2693 N   0  0  0  0  0  0  0  0  0  0  0  0
   14.8944   -9.9501   13.0083 N   0  0  0  0  0  0  0  0  0  0  0  0
   16.2247   -9.7460   13.0282 C   0  0  0  0  0  0  0  0  0  0  0  0
   16.7005   -9.6841   14.2909 N   0  0  0  0  0  0  0  0  0  0  0  0
   18.0633   -9.5048   14.7228 C   0  0  0  0  0  0  0  0  0  0  0  0
   19.0968  -10.2729   14.1658 C   0  0  0  0  0  0  0  0  0  0  0  0
   20.4181  -10.0963   14.5857 C   0  0  0  0  0  0  0  0  0  0  0  0
   20.7186   -9.1479   15.5664 C   0  0  0  0  0  0  0  0  0  0  0  0
   19.6979   -8.3763   16.1267 C   0  0  0  0  0  0  0  0  0  0  0  0
   18.3771   -8.5539   15.7062 C   0  0  0  0  0  0  0  0  0  0  0  0
   15.5142   -9.7821   16.8315 S   0  0  0  0  0  0  0  0  0  0  0  0
   15.1549   -7.9970   16.8748 C   0  0  0  0  0  0  0  0  0  0  0  0
   11.0303   -6.3692   19.1480 N   0  0  0  0  0  0  0  0  0  0  0  0
   12.3709   -6.8177   19.3014 C   0  0  0  0  0  0  0  0  0  0  0  0
   12.8626   -6.9195   20.4563 O   0  0  0  0  0  0  0  0  0  0  0  0
   13.1381   -7.1531   18.1406 N   0  0  0  0  0  0  0  0  0  0  0  0
   14.4909   -7.6228   18.1550 C   0  0  0  0  0  0  0  0  0  0  0  0
   15.1273   -7.7371   19.2360 O   0  0  0  0  0  0  0  0  0  0  0  0
   10.4953   -6.1364   19.9410 H   0  0  0  0  0  0  0  0  0  0  0  0
   10.6370   -6.2916   18.2488 H   0  0  0  0  0  0  0  0  0  0  0  0
   12.7017   -7.0532   17.2638 H   0  0  0  0  0  0  0  0  0  0  0  0
   17.0630   -9.7256   11.7950 C   0  0  0  0  0  0  0  0  0  0  0  0
   16.1022  -10.3670   10.3944 S   0  0  0  0  0  0  0  0  0  0  0  0
   17.1351   -9.5202    9.2093 C   0  0  0  0  0  0  0  0  0  0  0  0
   17.0370   -9.7065    7.8709 N   0  0  0  0  0  0  0  0  0  0  0  0
   17.9407   -8.9374    7.2133 C   0  0  0  0  0  0  0  0  0  0  0  0
   18.0847   -8.9059    5.8263 C   0  0  0  0  0  0  0  0  0  0  0  0
   19.0624   -8.0623    5.2723 C   0  0  0  0  0  0  0  0  0  0  0  0
   19.8767   -7.2678    6.1032 C   0  0  0  0  0  0  0  0  0  0  0  0
   19.7236   -7.3070    7.4981 C   0  0  0  0  0  0  0  0  0  0  0  0
   18.7480   -8.1510    8.0213 C   0  0  0  0  0  0  0  0  0  0  0  0
   18.3396   -8.4063    9.6280 S   0  0  0  0  0  0  0  0  0  0  0  0
 14 15  1  0  0  0
 15 16  2  0  0  0
 15 17  1  0  0  0
 17 18  1  0  0  0
 18 19  2  0  0  0
 18 13  1  0  0  0
 13 12  1  0  0  0
 12  1  1  0  0  0
  1  2  2  0  0  0
  2  3  1  0  0  0
  3  4  2  0  0  0
  4 23  1  0  0  0
  4  5  1  0  0  0
 23 24  1  0  0  0
 24 25  1  0  0  0
 25 26  2  0  0  0
 26 27  1  0  0  0
 27 28  2  0  0  0
 28 29  1  0  0  0
 29 30  2  0  0  0
 30 31  1  0  0  0
 31 32  2  0  0  0
 32 33  1  0  0  0
 32 27  1  0  0  0
 33 25  1  0  0  0
  5  6  1  0  0  0
  5  1  1  0  0  0
  6  7  2  0  0  0
  7  8  1  0  0  0
  8  9  2  0  0  0
  9 10  1  0  0  0
 10 11  2  0  0  0
 11  6  1  0  0  0
 14 20  1  0  0  0
 14 21  1  0  0  0
 17 22  1  0  0  0
M  END
>  <minimizedAffinity>
-3.22473

>  <minimizedRMSD>
2.75123

$$$$
CSSS00160418448 MCULE-6735390613 MolPort-005-063-452 PubChem-45202166


 29 32  0  0  0  0  0  0  0  0999 V2000
   18.2304  -11.1304   13.5264 N   0  0  0  0  0  0  0  0  0  0  0  0
   19.3543  -12.0400   13.6241 C   0  0  0  0  0  0  0  0  0  0  0  0
   19.0396  -12.9644   14.7856 C   0  0  0  0  0  0  0  0  0  0  0  0
   17.5720  -12.7454   15.1299 C   0  0  0  0  0  0  0  0  0  0  0  0
   17.1590  -11.4489   14.4545 C   0  0  0  0  0  0  0  0  0  0  0  0
   18.1423  -10.1217   12.5095 C   0  0  0  0  0  0  0  0  0  0  0  0
   19.1111   -9.9288   11.7272 O   0  0  0  0  0  0  0  0  0  0  0  0
   16.9902  -10.3597   15.4674 C   0  0  0  0  0  0  0  0  0  0  0  0
   18.0106   -9.6121   16.0476 C   0  0  0  0  0  0  0  0  0  0  0  0
   17.5353   -8.6578   16.9579 C   0  0  0  0  0  0  0  0  0  0  0  0
   16.1501   -8.6680   17.0804 C   0  0  0  0  0  0  0  0  0  0  0  0
   15.5092   -9.8503   16.0702 S   0  0  0  0  0  0  0  0  0  0  0  0
   15.3688   -7.7850   17.9539 C   0  0  0  0  0  0  0  0  0  0  0  0
   15.7817   -7.5549   19.2970 N   0  0  0  0  0  0  0  0  0  0  0  0
   14.3280   -7.2251   17.5201 O   0  0  0  0  0  0  0  0  0  0  0  0
   16.5945   -7.9892   19.6434 H   0  0  0  0  0  0  0  0  0  0  0  0
   15.2543   -6.9615   19.8792 H   0  0  0  0  0  0  0  0  0  0  0  0
   16.9104   -9.2879   12.3568 C   0  0  0  0  0  0  0  0  0  0  0  0
   16.9817   -8.5125   11.1660 O   0  0  0  0  0  0  0  0  0  0  0  0
   16.9254   -9.0813    9.8886 C   0  0  0  0  0  0  0  0  0  0  0  0
   16.0774  -10.1144    9.6269 N   0  0  0  0  0  0  0  0  0  0  0  0
   16.0080  -10.6786    8.3925 C   0  0  0  0  0  0  0  0  0  0  0  0
   16.7918  -10.2157    7.3841 N   0  0  0  0  0  0  0  0  0  0  0  0
   17.6530   -9.1868    7.5901 C   0  0  0  0  0  0  0  0  0  0  0  0
   18.4532   -8.7202    6.5434 C   0  0  0  0  0  0  0  0  0  0  0  0
   19.3392   -7.6600    6.7601 C   0  0  0  0  0  0  0  0  0  0  0  0
   19.4273   -7.0643    8.0227 C   0  0  0  0  0  0  0  0  0  0  0  0
   18.6298   -7.5261    9.0743 C   0  0  0  0  0  0  0  0  0  0  0  0
   17.7403   -8.5875    8.8636 C   0  0  0  0  0  0  0  0  0  0  0  0
  1  2  1  0  0  0
  2  3  1  0  0  0
  3  4  1  0  0  0
  4  5  1  0  0  0
  5  8  1  0  0  0
  8  9  2  0  0  0
  9 10  1  0  0  0
 10 11  2  0  0  0
 11 13  1  0  0  0
 13 14  1  0  0  0
 13 15  2  0  0  0
 11 12  1  0  0  0
  1  6  1  0  0  0
  6  7  2  0  0  0
  6 18  1  0  0  0
 18 19  1  0  0  0
 19 20  1  0  0  0
 20 21  2  0  0  0
 21 22  1  0  0  0
 22 23  2  0  0  0
 23 24  1  0  0  0
 24 25  2  0  0  0
 25 26  1  0  0  0
 26 27  2  0  0  0
 27 28  1  0  0  0
 28 29  2  0  0  0
  5  1  1  0  0  0
 12  8  1  0  0  0
 29 20  1  0  0  0
 29 24  1  0  0  0
 14 16  1  0  0  0
 14 17  1  0  0  0
M  END
>  <minimizedAffinity>
-3.16550

>  <minimizedRMSD>
1.49216

$$$$
CSSS00696523293 MCULE-6291584633 Molport-051-890-604


 25 28  0  0  0  0  0  0  0  0999 V2000
   17.3841   -8.9832   10.5613 C   0  0  0  0  0  0  0  0  0  0  0  0
   17.3008   -9.9463   11.7246 C   0  0  0  0  0  0  0  0  0  0  0  0
   15.7997   -9.6020   12.6836 S   0  0  0  0  0  0  0  0  0  0  0  0
   16.5890  -10.0541   14.2245 C   0  0  0  0  0  0  0  0  0  0  0  0
   16.3277   -9.3754   15.4078 C   0  0  0  0  0  0  0  0  0  0  0  0
   16.9386   -9.7451   16.5510 C   0  0  0  0  0  0  0  0  0  0  0  0
   16.5532   -8.9656   17.5682 N   0  0  0  0  0  0  0  0  0  0  0  0
   15.6792   -8.1113   16.9674 C   0  0  0  0  0  0  0  0  0  0  0  0
   15.5153   -8.3345   15.6337 N   0  0  0  0  0  0  0  0  0  0  0  0
   17.8169  -10.7752   16.6053 N   0  0  0  0  0  0  0  0  0  0  0  0
   18.0825  -11.4549   15.4487 C   0  0  0  0  0  0  0  0  0  0  0  0
   17.4722  -11.0951   14.2738 N   0  0  0  0  0  0  0  0  0  0  0  0
   16.8312   -9.0009   18.5120 H   0  0  0  0  0  0  0  0  0  0  0  0
   18.7464   -9.0966    9.9085 C   0  0  0  0  0  0  0  0  0  0  0  0
   19.4172   -7.4383    9.5890 S   0  0  0  0  0  0  0  0  0  0  0  0
   19.4402   -7.6829    7.8142 C   0  0  0  0  0  0  0  0  0  0  0  0
   18.4586   -8.4187    7.1619 C   0  0  0  0  0  0  0  0  0  0  0  0
   18.5096   -8.5826    5.8251 C   0  0  0  0  0  0  0  0  0  0  0  0
   17.4790   -9.3217    5.3982 N   0  0  0  0  0  0  0  0  0  0  0  0
   16.8113   -9.5886    6.5548 C   0  0  0  0  0  0  0  0  0  0  0  0
   17.3871   -9.0468    7.6637 N   0  0  0  0  0  0  0  0  0  0  0  0
   19.4945   -8.0474    5.0644 N   0  0  0  0  0  0  0  0  0  0  0  0
   20.4657   -7.3165    5.6914 C   0  0  0  0  0  0  0  0  0  0  0  0
   20.4339   -7.1383    7.0513 N   0  0  0  0  0  0  0  0  0  0  0  0
   17.2591   -9.6016    4.4803 H   0  0  0  0  0  0  0  0  0  0  0  0
  1  2  1  0  0  0
  2  3  1  0  0  0
  3  4  1  0  0  0
  4  5  1  0  0  0
  5  6  2  0  0  0
  6  7  1  0  0  0
  7  8  1  0  0  0
  8  9  2  0  0  0
  6 10  1  0  0  0
 10 11  2  0  0  0
 11 12  1  0  0  0
  1 14  1  0  0  0
 14 15  1  0  0  0
 15 16  1  0  0  0
 16 17  1  0  0  0
 17 18  2  0  0  0
 18 19  1  0  0  0
 19 20  1  0  0  0
 20 21  2  0  0  0
 18 22  1  0  0  0
 22 23  2  0  0  0
 23 24  1  0  0  0
 12  4  2  0  0  0
 24 16  2  0  0  0
  9  5  1  0  0  0
 21 17  1  0  0  0
  7 13  1  0  0  0
 19 25  1  0  0  0
M  END
>  <minimizedAffinity>
-3.14388

>  <minimizedRMSD>
1.80148

$$$$
CSC028007424 2987715 CSSS00028007424 GBPQUXCIPVPEOI-UHFFFAOYSA-N LN00939687 MCULE-1866277615 MolPort-001-583-740 PubChem-2286338 Z30536857 ZINC000002987715 ZINC02987715


 32 35  0  0  0  0  0  0  0  0999 V2000
   15.1416   -9.9857   12.0920 O   0  0  0  0  0  0  0  0  0  0  0  0
   16.2336  -10.5941   12.2467 C   0  0  0  0  0  0  0  0  0  0  0  0
   16.9318  -10.5652   13.4981 N   0  0  0  0  0  0  0  0  0  0  0  0
   17.7721  -11.0758   13.5464 H   0  0  0  0  0  0  0  0  0  0  0  0
   16.5332   -9.8697   14.6871 C   0  0  0  0  0  0  0  0  0  0  0  0
   16.7151  -10.4951   15.9252 C   0  0  0  0  0  0  0  0  0  0  0  0
   16.3453   -9.8463   17.1067 C   0  0  0  0  0  0  0  0  0  0  0  0
   15.7880   -8.5650   17.0580 C   0  0  0  0  0  0  0  0  0  0  0  0
   15.6054   -7.9329   15.8238 C   0  0  0  0  0  0  0  0  0  0  0  0
   15.9760   -8.5825   14.6434 C   0  0  0  0  0  0  0  0  0  0  0  0
   15.3468   -7.7482   18.5468 S   0  0  0  0  0  0  0  0  0  0  0  0
   16.4992   -6.8975   19.0009 O   0  0  0  0  0  0  0  0  0  0  0  0
   15.0298   -8.7517   19.6208 O   0  0  0  0  0  0  0  0  0  0  0  0
   13.9635   -6.7443   18.2744 N   0  0  0  0  0  0  0  0  0  0  0  0
   13.6116   -6.6572   17.3591 H   0  0  0  0  0  0  0  0  0  0  0  0
   13.3163   -6.0388   19.3321 C   0  0  0  0  0  0  0  0  0  0  0  0
   12.8549   -4.7768   19.2253 N   0  0  0  0  0  0  0  0  0  0  0  0
   12.2825   -4.3513   20.3839 C   0  0  0  0  0  0  0  0  0  0  0  0
   12.2837   -5.2779   21.4281 C   0  0  0  0  0  0  0  0  0  0  0  0
   13.0349   -6.6737   20.8525 S   0  0  0  0  0  0  0  0  0  0  0  0
   16.8326  -11.3253   11.0935 C   0  0  0  0  0  0  0  0  0  0  0  0
   17.0841  -10.4074    9.9880 N   0  0  0  0  0  0  0  0  0  0  0  0
   16.2808  -10.4819    8.8911 C   0  0  0  0  0  0  0  0  0  0  0  0
   16.4627   -9.6393    7.8418 N   0  0  0  0  0  0  0  0  0  0  0  0
   17.4445   -8.7044    7.8617 C   0  0  0  0  0  0  0  0  0  0  0  0
   17.6163   -7.8447    6.7729 C   0  0  0  0  0  0  0  0  0  0  0  0
   18.6291   -6.8812    6.7958 C   0  0  0  0  0  0  0  0  0  0  0  0
   19.4722   -6.7750    7.9064 C   0  0  0  0  0  0  0  0  0  0  0  0
   19.3058   -7.6322    8.9984 C   0  0  0  0  0  0  0  0  0  0  0  0
   18.2921   -8.6008    8.9828 C   0  0  0  0  0  0  0  0  0  0  0  0
   18.0887   -9.4812   10.0548 C   0  0  0  0  0  0  0  0  0  0  0  0
   18.8311   -9.4196   11.0748 O   0  0  0  0  0  0  0  0  0  0  0  0
  1  2  2  0  0  0
  2 21  1  0  0  0
  2  3  1  0  0  0
 21 22  1  0  0  0
 22 23  1  0  0  0
 23 24  2  0  0  0
 24 25  1  0  0  0
 25 26  2  0  0  0
 26 27  1  0  0  0
 27 28  2  0  0  0
 28 29  1  0  0  0
 29 30  2  0  0  0
 30 31  1  0  0  0
 30 25  1  0  0  0
 31 32  2  0  0  0
 31 22  1  0  0  0
  3  5  1  0  0  0
  5  6  2  0  0  0
  6  7  1  0  0  0
  7  8  2  0  0  0
  8  9  1  0  0  0
  8 11  1  0  0  0
  9 10  2  0  0  0
 10  5  1  0  0  0
 11 12  2  0  0  0
 11 13  2  0  0  0
 11 14  1  0  0  0
 14 16  1  0  0  0
 16 17  2  0  0  0
 17 18  1  0  0  0
 18 19  2  0  0  0
 19 20  1  0  0  0
 20 16  1  0  0  0
  3  4  1  0  0  0
 14 15  1  0  0  0
M  END
>  <minimizedAffinity>
-3.13282

>  <minimizedRMSD>
2.47566

$$$$
CSC028220070 CSSS00028220070 MCULE-5953212211 MolPort-007-213-598 PubChem-42937529 Z240146466


 30 32  0  0  0  0  0  0  0  0999 V2000
   17.4861  -10.5709   13.2191 N   0  0  0  0  0  0  0  0  0  0  0  0
   18.1453   -9.8305   12.1863 C   0  0  0  0  0  0  0  0  0  0  0  0
   19.2711   -9.3121   12.4097 O   0  0  0  0  0  0  0  0  0  0  0  0
   16.6159  -10.9850   13.0180 H   0  0  0  0  0  0  0  0  0  0  0  0
   17.4690   -9.6325   10.8896 C   0  0  0  0  0  0  0  0  0  0  0  0
   18.0180   -8.9295    9.7997 C   0  0  0  0  0  0  0  0  0  0  0  0
   17.2932   -8.7510    8.6512 C   0  0  0  0  0  0  0  0  0  0  0  0
   18.0198   -8.0917    7.7390 N   0  0  0  0  0  0  0  0  0  0  0  0
   19.2183   -7.8425    8.2474 N   0  0  0  0  0  0  0  0  0  0  0  0
   19.2482   -8.3422    9.5074 C   0  0  0  0  0  0  0  0  0  0  0  0
   20.4759   -8.3210   10.3473 C   0  0  0  0  0  0  0  0  0  0  0  0
   17.6117   -7.7333    6.3920 C   0  0  0  0  0  0  0  0  0  0  0  0
   16.0416   -9.2450    8.4857 N   0  0  0  0  0  0  0  0  0  0  0  0
   15.4688   -9.9445    9.5079 C   0  0  0  0  0  0  0  0  0  0  0  0
   14.0985  -10.4962    9.3485 C   0  0  0  0  0  0  0  0  0  0  0  0
   16.1683  -10.1481   10.7157 C   0  0  0  0  0  0  0  0  0  0  0  0
   18.0809  -12.2151   14.9079 C   0  0  0  0  0  0  0  0  0  0  0  0
   18.0446  -10.7397   14.5546 C   0  0  0  0  0  0  0  0  0  0  0  0
   17.2427   -9.9784   15.5656 C   0  0  0  0  0  0  0  0  0  0  0  0
   16.4337   -8.8968   15.1851 C   0  0  0  0  0  0  0  0  0  0  0  0
   15.7036   -8.1939   16.1474 C   0  0  0  0  0  0  0  0  0  0  0  0
   15.7763   -8.5670   17.4938 C   0  0  0  0  0  0  0  0  0  0  0  0
   16.5866   -9.6417   17.8751 C   0  0  0  0  0  0  0  0  0  0  0  0
   17.3173  -10.3455   16.9135 C   0  0  0  0  0  0  0  0  0  0  0  0
   14.8694   -7.6771   18.7027 S   0  0  0  0  0  0  0  0  0  0  0  0
   15.9572   -6.9605   19.8379 N   0  0  0  0  0  0  0  0  0  0  0  0
   14.0618   -6.6008   18.0346 O   0  0  0  0  0  0  0  0  0  0  0  0
   13.9504   -8.6128   19.4365 O   0  0  0  0  0  0  0  0  0  0  0  0
   16.5863   -6.3229   19.3501 H   0  0  0  0  0  0  0  0  0  0  0  0
   16.5018   -7.6918   20.2952 H   0  0  0  0  0  0  0  0  0  0  0  0
 17 18  1  0  0  0
 18 19  1  0  0  0
 19 20  2  0  0  0
 20 21  1  0  0  0
 21 22  2  0  0  0
 22 25  1  0  0  0
 25 26  1  0  0  0
 25 27  2  0  0  0
 25 28  2  0  0  0
 22 23  1  0  0  0
 23 24  2  0  0  0
 18  1  1  0  0  0
  1  2  1  0  0  0
  2  5  1  0  0  0
  5  6  1  0  0  0
  6  7  2  0  0  0
  7  8  1  0  0  0
  8  9  1  0  0  0
  9 10  2  0  0  0
 10 11  1  0  0  0
  8 12  1  0  0  0
  7 13  1  0  0  0
 13 14  2  0  0  0
 14 15  1  0  0  0
 14 16  1  0  0  0
  2  3  2  0  0  0
 24 19  1  0  0  0
 16  5  2  0  0  0
 10  6  1  0  0  0
 26 29  1  0  0  0
 26 30  1  0  0  0
  1  4  1  0  0  0
M  END
>  <minimizedAffinity>
-3.12199

>  <minimizedRMSD>
1.48787

$$$$
CSC047594792 54394456 CSSS00047594792 LN00449410 MCULE-7509669468 MolPort-028-604-942 PubChem-71704385 ZINC000054394456


 28 30  0  0  0  0  0  0  0  0999 V2000
   17.1029   -9.4387   13.6748 N   0  0  0  0  0  0  0  0  0  0  0  0
   17.7708   -9.8141   12.4657 C   0  0  0  0  0  0  0  0  0  0  0  0
   18.9342  -10.2935   12.5166 O   0  0  0  0  0  0  0  0  0  0  0  0
   16.1658   -9.1416   13.6221 H   0  0  0  0  0  0  0  0  0  0  0  0
   17.0642   -9.6924   11.1763 C   0  0  0  0  0  0  0  0  0  0  0  0
   15.7254  -10.1253   11.0864 C   0  0  0  0  0  0  0  0  0  0  0  0
   15.0309  -10.0623    9.8597 C   0  0  0  0  0  0  0  0  0  0  0  0
   13.6225  -10.5299    9.7862 C   0  0  0  0  0  0  0  0  0  0  0  0
   15.6437   -9.5759    8.7410 N   0  0  0  0  0  0  0  0  0  0  0  0
   16.9261   -9.1488    8.8307 C   0  0  0  0  0  0  0  0  0  0  0  0
   17.6422   -8.6256    7.8702 O   0  0  0  0  0  0  0  0  0  0  0  0
   18.8172   -8.2882    8.3274 N   0  0  0  0  0  0  0  0  0  0  0  0
   18.8551   -8.6168    9.6407 C   0  0  0  0  0  0  0  0  0  0  0  0
   20.0140   -8.2986   10.5178 C   0  0  0  0  0  0  0  0  0  0  0  0
   17.6417   -9.1896    9.9955 C   0  0  0  0  0  0  0  0  0  0  0  0
   17.7490   -9.4769   14.9800 C   0  0  0  0  0  0  0  0  0  0  0  0
   15.1275   -7.9333   18.0068 C   0  0  0  0  0  0  0  0  0  0  0  0
   16.2262   -8.7225   18.3650 C   0  0  0  0  0  0  0  0  0  0  0  0
   17.0758   -9.2308   17.3782 C   0  0  0  0  0  0  0  0  0  0  0  0
   16.8292   -8.9517   16.0298 C   0  0  0  0  0  0  0  0  0  0  0  0
   15.7349   -8.1569   15.6711 C   0  0  0  0  0  0  0  0  0  0  0  0
   14.8854   -7.6489   16.6583 C   0  0  0  0  0  0  0  0  0  0  0  0
   14.0692   -7.2854   19.2462 S   0  0  0  0  0  0  0  0  0  0  0  0
   12.7484   -8.3677   19.5100 N   0  0  0  0  0  0  0  0  0  0  0  0
   13.5417   -5.9485   18.8088 O   0  0  0  0  0  0  0  0  0  0  0  0
   14.8317   -7.1290   20.5317 O   0  0  0  0  0  0  0  0  0  0  0  0
   12.1358   -7.9871   20.2312 H   0  0  0  0  0  0  0  0  0  0  0  0
   13.1065   -9.2740   19.8115 H   0  0  0  0  0  0  0  0  0  0  0  0
 23 24  1  0  0  0
 23 25  2  0  0  0
 23 26  2  0  0  0
 23 17  1  0  0  0
 17 18  2  0  0  0
 18 19  1  0  0  0
 19 20  2  0  0  0
 20 21  1  0  0  0
 21 22  2  0  0  0
 20 16  1  0  0  0
 16  1  1  0  0  0
  1  2  1  0  0  0
  2  3  2  0  0  0
  2  5  1  0  0  0
  5  6  2  0  0  0
  6  7  1  0  0  0
  7  8  1  0  0  0
  7  9  2  0  0  0
  9 10  1  0  0  0
 10 11  1  0  0  0
 11 12  1  0  0  0
 12 13  2  0  0  0
 13 14  1  0  0  0
 13 15  1  0  0  0
 22 17  1  0  0  0
 15  5  1  0  0  0
 15 10  2  0  0  0
 24 27  1  0  0  0
 24 28  1  0  0  0
  1  4  1  0  0  0
M  END
>  <minimizedAffinity>
-3.11649

>  <minimizedRMSD>
2.53069

$$$$
CSSS01498597098 PubChem-166229547 Z1359501645


 32 35  0  0  0  0  0  0  0  0999 V2000
   17.4924   -9.2128   11.2414 N   0  0  0  0  0  0  0  0  0  0  0  0
   16.6639   -8.9172   10.7992 H   0  0  0  0  0  0  0  0  0  0  0  0
   17.4442   -9.5508   12.6296 C   0  0  0  0  0  0  0  0  0  0  0  0
   17.8791  -10.7661   13.0610 N   0  0  0  0  0  0  0  0  0  0  0  0
   17.8362  -11.0968   14.3758 C   0  0  0  0  0  0  0  0  0  0  0  0
   17.3327  -10.1748   15.3163 C   0  0  0  0  0  0  0  0  0  0  0  0
   17.2902  -10.5211   16.6739 C   0  0  0  0  0  0  0  0  0  0  0  0
   17.7461  -11.7756   17.0904 C   0  0  0  0  0  0  0  0  0  0  0  0
   18.2453  -12.6876   16.1547 C   0  0  0  0  0  0  0  0  0  0  0  0
   18.2906  -12.3490   14.7989 C   0  0  0  0  0  0  0  0  0  0  0  0
   16.8874   -8.9299   14.8525 C   0  0  0  0  0  0  0  0  0  0  0  0
   16.9542   -8.6500   13.5217 N   0  0  0  0  0  0  0  0  0  0  0  0
   16.3669   -7.9597   15.7663 N   0  0  0  0  0  0  0  0  0  0  0  0
   16.9170   -7.1749   15.9914 H   0  0  0  0  0  0  0  0  0  0  0  0
   15.0536   -8.0940   16.3734 C   0  0  0  0  0  0  0  0  0  0  0  0
   15.1577   -7.8378   17.8616 C   0  0  0  0  0  0  0  0  0  0  0  0
   14.1839   -6.9166   18.2434 O   0  0  0  0  0  0  0  0  0  0  0  0
   14.3186   -6.0855   17.7618 H   0  0  0  0  0  0  0  0  0  0  0  0
   18.7144   -9.2871   10.4539 C   0  0  0  0  0  0  0  0  0  0  0  0
   19.4313   -7.9471   10.4711 C   0  0  0  0  0  0  0  0  0  0  0  0
   19.4719   -7.3869    9.1282 N   0  0  0  0  0  0  0  0  0  0  0  0
   19.9563   -6.5414    8.9878 H   0  0  0  0  0  0  0  0  0  0  0  0
   16.1187  -10.4871    7.1274 C   0  0  0  0  0  0  0  0  0  0  0  0
   17.2261   -9.5055    6.9941 C   0  0  0  0  0  0  0  0  0  0  0  0
   17.6829   -9.1622    5.7532 N   0  0  0  0  0  0  0  0  0  0  0  0
   18.6936   -8.2639    5.6593 C   0  0  0  0  0  0  0  0  0  0  0  0
   19.2530   -7.8243    4.5213 N   0  0  0  0  0  0  0  0  0  0  0  0
   20.1917   -6.9600    4.9975 C   0  0  0  0  0  0  0  0  0  0  0  0
   20.1917   -6.8879    6.3536 N   0  0  0  0  0  0  0  0  0  0  0  0
   19.2427   -7.7157    6.7398 N   0  0  0  0  0  0  0  0  0  0  0  0
   18.8412   -8.0062    8.0012 C   0  0  0  0  0  0  0  0  0  0  0  0
   17.7963   -8.9351    8.1501 C   0  0  0  0  0  0  0  0  0  0  0  0
 23 24  1  0  0  0
 24 25  2  0  0  0
 25 26  1  0  0  0
 26 27  2  0  0  0
 27 28  1  0  0  0
 28 29  2  0  0  0
 29 30  1  0  0  0
 30 31  1  0  0  0
 31 21  1  0  0  0
 21 20  1  0  0  0
 20 19  1  0  0  0
 19  1  1  0  0  0
  1  3  1  0  0  0
  3  4  2  0  0  0
  4  5  1  0  0  0
  5  6  2  0  0  0
  6  7  1  0  0  0
  7  8  2  0  0  0
  8  9  1  0  0  0
  9 10  2  0  0  0
  6 11  1  0  0  0
 11 13  1  0  0  0
 13 15  1  0  0  0
 15 16  1  0  0  0
 16 17  1  0  0  0
 11 12  2  0  0  0
 31 32  2  0  0  0
 32 24  1  0  0  0
 30 26  1  0  0  0
 12  3  1  0  0  0
 10  5  1  0  0  0
 21 22  1  0  0  0
  1  2  1  0  0  0
 13 14  1  0  0  0
 17 18  1  0  0  0
M  END
>  <minimizedAffinity>
-3.09854

>  <minimizedRMSD>
2.75238

$$$$
CSC027972879 23153697 CSSS00027972879 LN01390621 MCULE-1246225012 MolPort-008-010-602 PubChem-30877189 Z1041113998 ZINC000023153697


 33 36  0  0  0  0  0  0  0  0999 V2000
   19.4185   -7.8675    6.8587 N   0  0  0  0  0  0  0  0  0  0  0  0
   20.1465   -7.3036    7.8200 N   0  0  0  0  0  0  0  0  0  0  0  0
   19.6454   -7.6491    9.0361 C   0  0  0  0  0  0  0  0  0  0  0  0
   18.5607   -8.4695    8.8011 C   0  0  0  0  0  0  0  0  0  0  0  0
   17.6570   -9.1170    9.6313 C   0  0  0  0  0  0  0  0  0  0  0  0
   16.6712   -9.8587    9.0406 N   0  0  0  0  0  0  0  0  0  0  0  0
   16.5761   -9.9596    7.6759 C   0  0  0  0  0  0  0  0  0  0  0  0
   17.4724   -9.3166    6.8678 N   0  0  0  0  0  0  0  0  0  0  0  0
   18.4522   -8.5861    7.4559 C   0  0  0  0  0  0  0  0  0  0  0  0
   19.6833   -7.7452    5.4443 C   0  0  0  0  0  0  0  0  0  0  0  0
   19.7902   -8.9056    4.6593 C   0  0  0  0  0  0  0  0  0  0  0  0
   20.0620   -8.8274    3.2924 C   0  0  0  0  0  0  0  0  0  0  0  0
   20.1707  -10.0695    2.4844 C   0  0  0  0  0  0  0  0  0  0  0  0
   20.2320   -7.5834    2.6864 C   0  0  0  0  0  0  0  0  0  0  0  0
   20.1261   -6.4183    3.4472 C   0  0  0  0  0  0  0  0  0  0  0  0
   19.8548   -6.4858    4.8179 C   0  0  0  0  0  0  0  0  0  0  0  0
   19.7173   -5.1986    5.5571 C   0  0  0  0  0  0  0  0  0  0  0  0
   17.7529   -9.0052   11.0515 N   0  0  0  0  0  0  0  0  0  0  0  0
   18.3883   -8.3597   11.4372 H   0  0  0  0  0  0  0  0  0  0  0  0
   16.9413   -9.8151   11.9463 C   0  0  0  0  0  0  0  0  0  0  0  0
   17.7432  -10.1833   13.1852 C   0  0  0  0  0  0  0  0  0  0  0  0
   17.1206   -9.6211   14.4204 C   0  0  0  0  0  0  0  0  0  0  0  0
   16.3469   -8.4550   14.3601 C   0  0  0  0  0  0  0  0  0  0  0  0
   15.7629   -7.9414   15.5216 C   0  0  0  0  0  0  0  0  0  0  0  0
   15.9458   -8.5929   16.7462 C   0  0  0  0  0  0  0  0  0  0  0  0
   16.7145   -9.7610   16.8049 C   0  0  0  0  0  0  0  0  0  0  0  0
   17.2988  -10.2752   15.6437 C   0  0  0  0  0  0  0  0  0  0  0  0
   15.2149   -7.9384   18.2001 S   0  0  0  0  0  0  0  0  0  0  0  0
   13.8074   -7.0290   17.7793 N   0  0  0  0  0  0  0  0  0  0  0  0
   14.8153   -9.0581   19.1203 O   0  0  0  0  0  0  0  0  0  0  0  0
   16.2017   -7.0489   18.9023 O   0  0  0  0  0  0  0  0  0  0  0  0
   13.1402   -7.6359   17.3030 H   0  0  0  0  0  0  0  0  0  0  0  0
   14.0707   -6.2617   17.1609 H   0  0  0  0  0  0  0  0  0  0  0  0
  1 10  1  0  0  0
 10 11  2  0  0  0
 11 12  1  0  0  0
 12 13  1  0  0  0
 12 14  2  0  0  0
 14 15  1  0  0  0
 15 16  2  0  0  0
 16 17  1  0  0  0
  1  2  1  0  0  0
  2  3  2  0  0  0
  3  4  1  0  0  0
  4  5  2  0  0  0
  5  6  1  0  0  0
  6  7  2  0  0  0
  7  8  1  0  0  0
  8  9  2  0  0  0
  5 18  1  0  0  0
 18 20  1  0  0  0
 20 21  1  0  0  0
 21 22  1  0  0  0
 22 23  2  0  0  0
 23 24  1  0  0  0
 24 25  2  0  0  0
 25 26  1  0  0  0
 26 27  2  0  0  0
 25 28  1  0  0  0
 28 29  1  0  0  0
 28 30  2  0  0  0
 28 31  2  0  0  0
  9  1  1  0  0  0
 27 22  1  0  0  0
 16 10  1  0  0  0
  9  4  1  0  0  0
 18 19  1  0  0  0
 29 32  1  0  0  0
 29 33  1  0  0  0
M  END
>  <minimizedAffinity>
-3.08667

>  <minimizedRMSD>
2.33892

$$$$
CSC028218292 32899256 CSSS00028218292 MCULE-8773393786 MolPort-009-459-406 PubChem-40135189 Z238239610 ZINC000032899256 ZINC32899256


 35 38  0  0  0  0  0  0  0  0999 V2000
   17.2423  -11.1150   12.6613 C   0  0  0  0  0  0  0  0  0  0  0  0
   18.0409  -11.7571   13.7435 C   0  0  0  0  0  0  0  0  0  0  0  0
   18.8941  -12.6280   13.4271 O   0  0  0  0  0  0  0  0  0  0  0  0
   17.8899  -11.3728   15.1200 N   0  0  0  0  0  0  0  0  0  0  0  0
   18.7698  -11.8398   16.1910 C   0  0  0  0  0  0  0  0  0  0  0  0
   18.3219  -11.1047   17.4725 C   0  0  0  0  0  0  0  0  0  0  0  0
   17.1821  -10.2717   17.0091 C   0  0  0  0  0  0  0  0  0  0  0  0
   16.3954   -9.4060   17.7677 C   0  0  0  0  0  0  0  0  0  0  0  0
   15.3530   -8.7143   17.1270 C   0  0  0  0  0  0  0  0  0  0  0  0
   15.1201   -8.9068   15.7516 C   0  0  0  0  0  0  0  0  0  0  0  0
   15.9272   -9.7837   15.0111 C   0  0  0  0  0  0  0  0  0  0  0  0
   16.9624  -10.4509   15.6718 C   0  0  0  0  0  0  0  0  0  0  0  0
   14.3383   -7.6075   18.0329 S   0  0  0  0  0  0  0  0  0  0  0  0
   13.1543   -8.5023   18.9168 N   0  0  0  0  0  0  0  0  0  0  0  0
   15.1767   -6.8184   18.9989 O   0  0  0  0  0  0  0  0  0  0  0  0
   13.6556   -6.6624   17.0853 O   0  0  0  0  0  0  0  0  0  0  0  0
   13.6214   -9.1426   19.5588 H   0  0  0  0  0  0  0  0  0  0  0  0
   12.5754   -9.0345   18.2671 H   0  0  0  0  0  0  0  0  0  0  0  0
   18.0747  -10.2348   11.9207 O   0  0  0  0  0  0  0  0  0  0  0  0
   17.5617   -9.1344   11.2316 C   0  0  0  0  0  0  0  0  0  0  0  0
   16.9764   -8.2124   11.8639 O   0  0  0  0  0  0  0  0  0  0  0  0
   16.8037   -9.7065    8.8924 C   0  0  0  0  0  0  0  0  0  0  0  0
   16.9590   -9.6149    7.5436 N   0  0  0  0  0  0  0  0  0  0  0  0
   17.9636   -8.9080    6.9729 C   0  0  0  0  0  0  0  0  0  0  0  0
   18.0655   -8.8501    5.5798 C   0  0  0  0  0  0  0  0  0  0  0  0
   19.0970   -8.1220    4.9816 C   0  0  0  0  0  0  0  0  0  0  0  0
   20.0299   -7.4494    5.7747 C   0  0  0  0  0  0  0  0  0  0  0  0
   19.9330   -7.5040    7.1678 C   0  0  0  0  0  0  0  0  0  0  0  0
   18.9008   -8.2335    7.7815 C   0  0  0  0  0  0  0  0  0  0  0  0
   18.7755   -8.3033    9.1814 C   0  0  0  0  0  0  0  0  0  0  0  0
   19.7428   -7.5470   10.0450 C   0  0  0  0  0  0  0  0  0  0  0  0
   17.7144   -9.0475    9.7554 C   0  0  0  0  0  0  0  0  0  0  0  0
   15.6816  -10.5453    9.4385 C   0  0  0  0  0  0  0  0  0  0  0  0
   14.0894  -10.1877   10.9237 C   0  0  0  0  0  0  0  0  0  0  0  0
   14.5371   -9.7787    9.6685 O   0  0  0  0  0  0  0  0  0  0  0  0
 34 35  1  0  0  0
 35 33  1  0  0  0
 33 22  1  0  0  0
 22 23  2  0  0  0
 23 24  1  0  0  0
 24 25  2  0  0  0
 25 26  1  0  0  0
 26 27  2  0  0  0
 27 28  1  0  0  0
 28 29  2  0  0  0
 29 30  1  0  0  0
 30 31  1  0  0  0
 30 32  2  0  0  0
 32 20  1  0  0  0
 20 21  2  0  0  0
 20 19  1  0  0  0
 19  1  1  0  0  0
  1  2  1  0  0  0
  2  3  2  0  0  0
  2  4  1  0  0  0
  4  5  1  0  0  0
  5  6  1  0  0  0
  6  7  1  0  0  0
  7  8  2  0  0  0
  8  9  1  0  0  0
  9 10  2  0  0  0
 10 11  1  0  0  0
 11 12  2  0  0  0
  9 13  1  0  0  0
 13 14  1  0  0  0
 13 15  2  0  0  0
 13 16  2  0  0  0
 32 22  1  0  0  0
 12  4  1  0  0  0
 29 24  1  0  0  0
 12  7  1  0  0  0
 14 17  1  0  0  0
 14 18  1  0  0  0
M  END
>  <minimizedAffinity>
-3.07225

>  <minimizedRMSD>
2.62199

$$$$
CSSS03496528605 PubChem-166428344 Z5054171605


 29 32  0  0  0  0  0  0  0  0999 V2000
   16.1497   -8.9328   14.4042 C   0  0  0  0  0  0  0  0  0  0  0  0
   16.2804  -10.2002   13.8295 C   0  0  0  0  0  0  0  0  0  0  0  0
   16.4822  -10.3277   12.4532 C   0  0  0  0  0  0  0  0  0  0  0  0
   16.5570   -9.1920   11.6288 C   0  0  0  0  0  0  0  0  0  0  0  0
   16.4210   -7.9252   12.2197 C   0  0  0  0  0  0  0  0  0  0  0  0
   16.2196   -7.7949   13.5960 C   0  0  0  0  0  0  0  0  0  0  0  0
   16.7766   -9.3471   10.1639 C   0  0  0  0  0  0  0  0  0  0  0  0
   17.7704   -8.6571    9.4449 C   0  0  0  0  0  0  0  0  0  0  0  0
   18.7226   -7.7405    9.8390 C   0  0  0  0  0  0  0  0  0  0  0  0
   19.4109   -7.4225    8.6669 C   0  0  0  0  0  0  0  0  0  0  0  0
   18.9221   -8.0979    7.5988 N   0  0  0  0  0  0  0  0  0  0  0  0
   17.9265   -8.8401    8.1007 C   0  0  0  0  0  0  0  0  0  0  0  0
   17.1439   -9.6864    7.3879 N   0  0  0  0  0  0  0  0  0  0  0  0
   16.1628  -10.3840    8.0299 C   0  0  0  0  0  0  0  0  0  0  0  0
   15.9644  -10.2277    9.4163 C   0  0  0  0  0  0  0  0  0  0  0  0
   19.2294   -8.0531    6.6646 H   0  0  0  0  0  0  0  0  0  0  0  0
   15.4286   -7.3782   16.4254 O   0  0  0  0  0  0  0  0  0  0  0  0
   15.9281   -8.7663   16.1396 S   0  0  0  0  0  0  0  0  0  0  0  0
   14.8856   -9.7440   16.6059 O   0  0  0  0  0  0  0  0  0  0  0  0
   17.4096   -9.0226   17.0291 N   0  0  0  0  0  0  0  0  0  0  0  0
   17.1698   -9.2944   17.9825 H   0  0  0  0  0  0  0  0  0  0  0  0
   18.2724  -10.0631   16.4535 C   0  0  0  0  0  0  0  0  0  0  0  0
   18.9506   -9.5829   15.1682 C   0  0  0  0  0  0  0  0  0  0  0  0
   19.8756  -10.6580   14.6098 C   0  0  0  0  0  0  0  0  0  0  0  0
   19.0972  -11.9460   14.3699 C   0  0  0  0  0  0  0  0  0  0  0  0
   18.5202  -12.4522   15.6869 C   0  0  0  0  0  0  0  0  0  0  0  0
   17.5697  -11.4204   16.2883 C   0  0  0  0  0  0  0  0  0  0  0  0
   17.1264  -11.8779   17.5293 O   0  0  0  0  0  0  0  0  0  0  0  0
   17.8862  -11.9952   18.1208 H   0  0  0  0  0  0  0  0  0  0  0  0
 17 18  2  0  0  0
 18 19  2  0  0  0
 18 20  1  0  0  0
 22 20  1  0  0  0
 22 23  1  0  0  0
 23 24  1  0  0  0
 24 25  1  0  0  0
 25 26  1  0  0  0
 26 27  1  0  0  0
 27 28  1  0  0  0
 18  1  1  0  0  0
  1  2  2  0  0  0
  2  3  1  0  0  0
  3  4  2  0  0  0
  4  7  1  0  0  0
  7  8  2  0  0  0
  8  9  1  0  0  0
  9 10  2  0  0  0
 10 11  1  0  0  0
 11 12  1  0  0  0
 12 13  2  0  0  0
 13 14  1  0  0  0
 14 15  2  0  0  0
  4  5  1  0  0  0
  5  6  2  0  0  0
 27 22  1  0  0  0
  6  1  1  0  0  0
 15  7  1  0  0  0
 12  8  1  0  0  0
 20 21  1  0  0  0
 28 29  1  0  0  0
 11 16  1  0  0  0
M  END
>  <minimizedAffinity>
-3.06799

>  <minimizedRMSD>
1.81459

$$$$
CSSS03436960948 MCULE-2236331819 MolPort-047-582-652 PubChem-154829185


 28 31  0  0  0  0  0  0  0  0999 V2000
   16.1447   -9.7548   14.1794 C   0  0  0  0  0  0  0  0  0  0  0  0
   15.5985   -9.3177   12.8682 C   0  0  0  0  0  0  0  0  0  0  0  0
   16.8300   -9.5388   12.0948 N   0  0  0  0  0  0  0  0  0  0  0  0
   17.3804   -9.9852   13.3841 C   0  0  0  0  0  0  0  0  0  0  0  0
   17.2591   -9.3844   10.7356 C   0  0  0  0  0  0  0  0  0  0  0  0
   16.4683   -9.8095    9.6433 C   0  0  0  0  0  0  0  0  0  0  0  0
   15.1325  -10.4469    9.8574 C   0  0  0  0  0  0  0  0  0  0  0  0
   16.9719   -9.6181    8.3294 C   0  0  0  0  0  0  0  0  0  0  0  0
   16.1874  -10.0439    7.1341 C   0  0  0  0  0  0  0  0  0  0  0  0
   18.1917   -9.0368    8.1357 N   0  0  0  0  0  0  0  0  0  0  0  0
   18.9107   -8.6473    9.2138 C   0  0  0  0  0  0  0  0  0  0  0  0
   20.1197   -8.0653    9.1819 N   0  0  0  0  0  0  0  0  0  0  0  0
   20.3716   -7.8916   10.5082 C   0  0  0  0  0  0  0  0  0  0  0  0
   19.3615   -8.3482   11.2911 N   0  0  0  0  0  0  0  0  0  0  0  0
   18.4590   -8.8166   10.4529 N   0  0  0  0  0  0  0  0  0  0  0  0
   16.3267   -8.5431   15.0807 C   0  0  0  0  0  0  0  0  0  0  0  0
   17.2463   -9.9924   16.8922 C   0  0  0  0  0  0  0  0  0  0  0  0
   16.3266   -8.9434   16.4823 N   0  0  0  0  0  0  0  0  0  0  0  0
   15.5197   -8.2600   17.4549 C   0  0  0  0  0  0  0  0  0  0  0  0
   14.2717   -7.8243   17.1274 N   0  0  0  0  0  0  0  0  0  0  0  0
   13.4911   -7.1771   18.0312 C   0  0  0  0  0  0  0  0  0  0  0  0
   12.1325   -6.7185   17.6317 C   0  0  0  0  0  0  0  0  0  0  0  0
   13.9695   -6.9489   19.3240 C   0  0  0  0  0  0  0  0  0  0  0  0
   13.2093   -6.3043   20.2465 F   0  0  0  0  0  0  0  0  0  0  0  0
   15.2510   -7.3999   19.6468 C   0  0  0  0  0  0  0  0  0  0  0  0
   15.7186   -7.2136   20.8006 O   0  0  0  0  0  0  0  0  0  0  0  0
   15.9972   -8.0430   18.7116 N   0  0  0  0  0  0  0  0  0  0  0  0
   16.8999   -8.3581   18.9467 H   0  0  0  0  0  0  0  0  0  0  0  0
 17 18  1  0  0  0
 18 16  1  0  0  0
 16  1  1  0  0  0
  1  2  1  0  0  0
  2  3  1  0  0  0
  3  4  1  0  0  0
  3  5  1  0  0  0
  5  6  2  0  0  0
  6  7  1  0  0  0
  6  8  1  0  0  0
  8  9  1  0  0  0
  8 10  2  0  0  0
 10 11  1  0  0  0
 11 12  2  0  0  0
 12 13  1  0  0  0
 13 14  2  0  0  0
 14 15  1  0  0  0
 18 19  1  0  0  0
 19 20  2  0  0  0
 20 21  1  0  0  0
 21 22  1  0  0  0
 21 23  2  0  0  0
 23 24  1  0  0  0
 23 25  1  0  0  0
 25 26  2  0  0  0
 25 27  1  0  0  0
  4  1  1  0  0  0
 15  5  1  0  0  0
 27 19  1  0  0  0
 15 11  1  0  0  0
 27 28  1  0  0  0
M  END
>  <minimizedAffinity>
-3.06045

>  <minimizedRMSD>
1.90998

$$$$
1875362460 CSSS03437858479 MolPort-047-844-333 PubChem-166331570 Z4969852058


 28 30  0  0  0  0  0  0  0  0999 V2000
   16.5087   -9.7541   11.2728 C   0  0  0  0  0  0  0  0  0  0  0  0
   15.5753  -10.5281   11.6163 O   0  0  0  0  0  0  0  0  0  0  0  0
   17.2947   -9.0961   12.2692 N   0  0  0  0  0  0  0  0  0  0  0  0
   18.0124   -8.4881   11.9785 H   0  0  0  0  0  0  0  0  0  0  0  0
   14.7939  -10.7499    8.7670 C   0  0  0  0  0  0  0  0  0  0  0  0
   16.0555   -9.9592    8.7376 C   0  0  0  0  0  0  0  0  0  0  0  0
   16.6470   -9.5555    7.5907 N   0  0  0  0  0  0  0  0  0  0  0  0
   17.7342   -8.8864    7.9387 N   0  0  0  0  0  0  0  0  0  0  0  0
   18.6301   -8.3025    7.0981 C   0  0  0  0  0  0  0  0  0  0  0  0
   18.4621   -8.3637    5.6189 C   0  0  0  0  0  0  0  0  0  0  0  0
   19.7286   -7.6338    7.6560 C   0  0  0  0  0  0  0  0  0  0  0  0
   19.8721   -7.5860    9.0547 C   0  0  0  0  0  0  0  0  0  0  0  0
   18.9265   -8.2007    9.8892 C   0  0  0  0  0  0  0  0  0  0  0  0
   17.8548   -8.8508    9.2773 C   0  0  0  0  0  0  0  0  0  0  0  0
   16.7927   -9.5310    9.8422 C   0  0  0  0  0  0  0  0  0  0  0  0
   17.0366   -9.3240   13.9667 S   0  0  0  0  0  0  0  0  0  0  0  0
   17.7899   -8.2585   14.7114 O   0  0  0  0  0  0  0  0  0  0  0  0
   15.5683   -9.1988   14.2623 O   0  0  0  0  0  0  0  0  0  0  0  0
   17.6270  -10.9096   14.4553 C   0  0  0  0  0  0  0  0  0  0  0  0
   18.0914  -11.8349   13.5081 C   0  0  0  0  0  0  0  0  0  0  0  0
   18.5225  -13.0422   14.0484 C   0  0  0  0  0  0  0  0  0  0  0  0
   18.3171  -12.9340   15.7132 S   0  0  0  0  0  0  0  0  0  0  0  0
   17.6891  -11.3784   15.7708 C   0  0  0  0  0  0  0  0  0  0  0  0
   17.3010  -10.6911   17.0174 C   0  0  0  0  0  0  0  0  0  0  0  0
   16.5475   -9.6839   16.9965 O   0  0  0  0  0  0  0  0  0  0  0  0
   17.7858  -11.1664   18.2689 N   0  0  0  0  0  0  0  0  0  0  0  0
   18.3764  -11.9534   18.3012 H   0  0  0  0  0  0  0  0  0  0  0  0
   17.5305  -10.7080   19.1019 H   0  0  0  0  0  0  0  0  0  0  0  0
  5  6  1  0  0  0
  6  7  2  0  0  0
  7  8  1  0  0  0
  8  9  1  0  0  0
  9 10  1  0  0  0
  9 11  2  0  0  0
 11 12  1  0  0  0
 12 13  2  0  0  0
 13 14  1  0  0  0
 14 15  2  0  0  0
 15  1  1  0  0  0
  1  2  2  0  0  0
  1  3  1  0  0  0
  3 16  1  0  0  0
 16 17  2  0  0  0
 16 18  2  0  0  0
 16 19  1  0  0  0
 19 20  1  0  0  0
 20 21  2  0  0  0
 21 22  1  0  0  0
 22 23  1  0  0  0
 23 24  1  0  0  0
 24 25  2  0  0  0
 24 26  1  0  0  0
 15  6  1  0  0  0
 23 19  2  0  0  0
 14  8  1  0  0  0
  3  4  1  0  0  0
 26 27  1  0  0  0
 26 28  1  0  0  0
M  END
>  <minimizedAffinity>
-3.02826

>  <minimizedRMSD>
1.68679

$$$$
CSC026381967 9910835 CSSS00026381967 MCULE-4462691242 MolPort-005-796-254 PubChem-16373522 Z30537302 ZINC000009910835 ZINC09910835


 33 36  0  0  0  0  0  0  0  0999 V2000
   14.5862   -9.9767   11.4457 O   0  0  0  0  0  0  0  0  0  0  0  0
   15.7746  -10.3826   11.3524 C   0  0  0  0  0  0  0  0  0  0  0  0
   16.6791  -10.2987   12.4614 N   0  0  0  0  0  0  0  0  0  0  0  0
   17.5932  -10.6322   12.3112 H   0  0  0  0  0  0  0  0  0  0  0  0
   16.3913   -9.7799   13.7664 C   0  0  0  0  0  0  0  0  0  0  0  0
   16.4944  -10.5717   14.9199 C   0  0  0  0  0  0  0  0  0  0  0  0
   16.2043  -10.0314   16.1756 C   0  0  0  0  0  0  0  0  0  0  0  0
   15.8113   -8.6947   16.2892 C   0  0  0  0  0  0  0  0  0  0  0  0
   15.7035   -7.9026   15.1419 C   0  0  0  0  0  0  0  0  0  0  0  0
   15.9935   -8.4442   13.8866 C   0  0  0  0  0  0  0  0  0  0  0  0
   15.4292   -8.0257   17.8655 S   0  0  0  0  0  0  0  0  0  0  0  0
   16.3113   -6.8443   18.1600 O   0  0  0  0  0  0  0  0  0  0  0  0
   15.6628   -9.0736   18.9170 O   0  0  0  0  0  0  0  0  0  0  0  0
   13.7704   -7.5332   17.9054 N   0  0  0  0  0  0  0  0  0  0  0  0
   13.1350   -7.9500   17.2795 H   0  0  0  0  0  0  0  0  0  0  0  0
   13.2936   -6.5434   18.8153 C   0  0  0  0  0  0  0  0  0  0  0  0
   12.6015   -5.4482   18.4436 N   0  0  0  0  0  0  0  0  0  0  0  0
   12.2693   -4.6772   19.5140 C   0  0  0  0  0  0  0  0  0  0  0  0
   12.6985   -5.1553   20.7533 C   0  0  0  0  0  0  0  0  0  0  0  0
   13.5206   -6.6002   20.4703 S   0  0  0  0  0  0  0  0  0  0  0  0
   16.2615  -10.9260   10.0536 C   0  0  0  0  0  0  0  0  0  0  0  0
   16.8142   -9.8247    9.2034 C   0  0  0  0  0  0  0  0  0  0  0  0
   16.0937   -9.3942    8.1340 N   0  0  0  0  0  0  0  0  0  0  0  0
   16.5205   -8.4025    7.3496 N   0  0  0  0  0  0  0  0  0  0  0  0
   17.6961   -7.7635    7.5819 C   0  0  0  0  0  0  0  0  0  0  0  0
   18.0606   -6.8327    6.8133 O   0  0  0  0  0  0  0  0  0  0  0  0
   18.4857   -8.1504    8.6720 C   0  0  0  0  0  0  0  0  0  0  0  0
   19.7039   -7.5145    8.9525 C   0  0  0  0  0  0  0  0  0  0  0  0
   20.4723   -7.9179   10.0475 C   0  0  0  0  0  0  0  0  0  0  0  0
   20.0303   -8.9585   10.8683 C   0  0  0  0  0  0  0  0  0  0  0  0
   18.8185   -9.5986   10.5977 C   0  0  0  0  0  0  0  0  0  0  0  0
   18.0369   -9.2012    9.5018 C   0  0  0  0  0  0  0  0  0  0  0  0
   15.9686   -8.1269    6.5824 H   0  0  0  0  0  0  0  0  0  0  0  0
  1  2  2  0  0  0
  2 21  1  0  0  0
  2  3  1  0  0  0
 21 22  1  0  0  0
 22 23  2  0  0  0
 23 24  1  0  0  0
 24 25  1  0  0  0
 25 26  2  0  0  0
 25 27  1  0  0  0
 27 28  2  0  0  0
 28 29  1  0  0  0
 29 30  2  0  0  0
 30 31  1  0  0  0
 31 32  2  0  0  0
 32 22  1  0  0  0
 32 27  1  0  0  0
  3  5  1  0  0  0
  5  6  2  0  0  0
  6  7  1  0  0  0
  7  8  2  0  0  0
  8  9  1  0  0  0
  8 11  1  0  0  0
  9 10  2  0  0  0
 10  5  1  0  0  0
 11 12  2  0  0  0
 11 13  2  0  0  0
 11 14  1  0  0  0
 14 16  1  0  0  0
 16 17  2  0  0  0
 17 18  1  0  0  0
 18 19  2  0  0  0
 19 20  1  0  0  0
 20 16  1  0  0  0
 24 33  1  0  0  0
  3  4  1  0  0  0
 14 15  1  0  0  0
M  END
>  <minimizedAffinity>
-3.01091

>  <minimizedRMSD>
2.35025

$$$$
CSC028164115 13987755 CSSS00028164115 MCULE-6887471083 MolPort-005-787-223 PubChem-135587939 Z101498594 ZINC000013987755 ZINC13987755


 36 39  0  0  0  0  0  0  0  0999 V2000
   16.3316   -9.8693   12.4526 C   0  0  0  0  0  0  0  0  0  0  0  0
   17.1431  -11.0051   12.3351 C   0  0  0  0  0  0  0  0  0  0  0  0
   18.0527  -11.3345   13.3420 C   0  0  0  0  0  0  0  0  0  0  0  0
   18.1596  -10.5386   14.4856 C   0  0  0  0  0  0  0  0  0  0  0  0
   19.1477  -10.9294   15.5320 C   0  0  0  0  0  0  0  0  0  0  0  0
   17.3388   -9.4018   14.6246 C   0  0  0  0  0  0  0  0  0  0  0  0
   16.4317   -9.0815   13.6076 C   0  0  0  0  0  0  0  0  0  0  0  0
   14.0593  -10.1711    9.3609 C   0  0  0  0  0  0  0  0  0  0  0  0
   15.2888  -10.1981   10.1367 N   0  0  0  0  0  0  0  0  0  0  0  0
   15.3492   -9.5112   11.4025 C   0  0  0  0  0  0  0  0  0  0  0  0
   14.5357   -8.5731   11.6296 O   0  0  0  0  0  0  0  0  0  0  0  0
   16.4408  -10.8721    9.5483 C   0  0  0  0  0  0  0  0  0  0  0  0
   17.3225   -9.8897    8.8537 C   0  0  0  0  0  0  0  0  0  0  0  0
   17.3420   -9.8378    7.4954 N   0  0  0  0  0  0  0  0  0  0  0  0
   18.1223   -8.9376    6.8444 C   0  0  0  0  0  0  0  0  0  0  0  0
   18.1333   -8.8983    5.4475 C   0  0  0  0  0  0  0  0  0  0  0  0
   18.9383   -7.9697    4.7805 C   0  0  0  0  0  0  0  0  0  0  0  0
   19.7321   -7.0769    5.5078 C   0  0  0  0  0  0  0  0  0  0  0  0
   19.7230   -7.1072    6.9053 C   0  0  0  0  0  0  0  0  0  0  0  0
   18.9193   -8.0360    7.5805 C   0  0  0  0  0  0  0  0  0  0  0  0
   18.8751   -8.1043    8.9793 C   0  0  0  0  0  0  0  0  0  0  0  0
   19.5620   -7.3202    9.6870 O   0  0  0  0  0  0  0  0  0  0  0  0
   18.0789   -9.0255    9.5814 N   0  0  0  0  0  0  0  0  0  0  0  0
   18.0489   -9.0682   10.5645 H   0  0  0  0  0  0  0  0  0  0  0  0
   17.4134   -8.3725   16.0531 S   0  0  0  0  0  0  0  0  0  0  0  0
   18.8092   -8.3931   16.6118 O   0  0  0  0  0  0  0  0  0  0  0  0
   17.0526   -6.9619   15.6773 O   0  0  0  0  0  0  0  0  0  0  0  0
   16.2886   -8.9565   17.2325 N   0  0  0  0  0  0  0  0  0  0  0  0
   16.5940   -9.8639   17.5843 H   0  0  0  0  0  0  0  0  0  0  0  0
   16.2472   -7.9920   18.3205 C   0  0  0  0  0  0  0  0  0  0  0  0
   14.8362   -7.7398   18.7245 C   0  0  0  0  0  0  0  0  0  0  0  0
   14.4782   -7.8136   20.0747 C   0  0  0  0  0  0  0  0  0  0  0  0
   13.1585   -7.5643   20.4640 C   0  0  0  0  0  0  0  0  0  0  0  0
   12.1956   -7.2382   19.5037 C   0  0  0  0  0  0  0  0  0  0  0  0
   12.5523   -7.1597   18.1540 C   0  0  0  0  0  0  0  0  0  0  0  0
   13.8720   -7.4082   17.7643 C   0  0  0  0  0  0  0  0  0  0  0  0
  8  9  1  0  0  0
  9 12  1  0  0  0
  9 10  1  0  0  0
 12 13  1  0  0  0
 13 14  2  0  0  0
 14 15  1  0  0  0
 15 16  2  0  0  0
 16 17  1  0  0  0
 17 18  2  0  0  0
 18 19  1  0  0  0
 19 20  2  0  0  0
 20 21  1  0  0  0
 20 15  1  0  0  0
 21 22  2  0  0  0
 21 23  1  0  0  0
 23 13  1  0  0  0
 10 11  2  0  0  0
 10  1  1  0  0  0
  1  2  2  0  0  0
  2  3  1  0  0  0
  3  4  2  0  0  0
  4  5  1  0  0  0
  4  6  1  0  0  0
  6  7  2  0  0  0
  6 25  1  0  0  0
  7  1  1  0  0  0
 25 26  2  0  0  0
 25 27  2  0  0  0
 25 28  1  0  0  0
 28 30  1  0  0  0
 30 31  1  0  0  0
 31 32  2  0  0  0
 32 33  1  0  0  0
 33 34  2  0  0  0
 34 35  1  0  0  0
 35 36  2  0  0  0
 36 31  1  0  0  0
 23 24  1  0  0  0
 28 29  1  0  0  0
M  END
>  <minimizedAffinity>
-2.97002

>  <minimizedRMSD>
1.96122

$$$$
CSC028166091 CSSS00028166091 MCULE-8212013435 MolPort-015-658-011 PubChem-127264996 Z810730576


 31 34  0  0  0  0  0  0  0  0999 V2000
   16.5366  -10.8800   10.6770 C   0  0  0  0  0  0  0  0  0  0  0  0
   15.1577  -11.3606   10.2093 C   0  0  0  0  0  0  0  0  0  0  0  0
   14.0801  -10.3034   10.4511 C   0  0  0  0  0  0  0  0  0  0  0  0
   14.0580   -9.8950   11.9197 C   0  0  0  0  0  0  0  0  0  0  0  0
   15.4154   -9.3263   12.3137 C   0  0  0  0  0  0  0  0  0  0  0  0
   16.4645  -10.3041   12.0218 N   0  0  0  0  0  0  0  0  0  0  0  0
   17.3216  -10.8173   13.0576 C   0  0  0  0  0  0  0  0  0  0  0  0
   17.8020  -11.9780   12.9366 O   0  0  0  0  0  0  0  0  0  0  0  0
   19.1886   -9.3959   11.1345 C   0  0  0  0  0  0  0  0  0  0  0  0
   18.3394   -9.2812    9.9586 N   0  0  0  0  0  0  0  0  0  0  0  0
   17.1702   -9.9213    9.7123 C   0  0  0  0  0  0  0  0  0  0  0  0
   16.6096   -9.5761    8.5210 N   0  0  0  0  0  0  0  0  0  0  0  0
   17.4897   -8.6883    8.0208 C   0  0  0  0  0  0  0  0  0  0  0  0
   17.4112   -8.0071    6.8089 C   0  0  0  0  0  0  0  0  0  0  0  0
   18.4552   -7.1153    6.4982 C   0  0  0  0  0  0  0  0  0  0  0  0
   19.5332   -6.9289    7.3933 C   0  0  0  0  0  0  0  0  0  0  0  0
   19.5821   -7.6319    8.6114 C   0  0  0  0  0  0  0  0  0  0  0  0
   18.5318   -8.5071    8.8837 C   0  0  0  0  0  0  0  0  0  0  0  0
   17.6748  -10.0214   14.2559 C   0  0  0  0  0  0  0  0  0  0  0  0
   19.0167   -9.9124   14.6497 C   0  0  0  0  0  0  0  0  0  0  0  0
   19.3702   -9.1426   15.7606 C   0  0  0  0  0  0  0  0  0  0  0  0
   18.3844   -8.4684   16.4841 C   0  0  0  0  0  0  0  0  0  0  0  0
   17.0383   -8.5591   16.0983 C   0  0  0  0  0  0  0  0  0  0  0  0
   16.6949   -9.3299   14.9835 C   0  0  0  0  0  0  0  0  0  0  0  0
   16.0263   -7.8911   16.7962 O   0  0  0  0  0  0  0  0  0  0  0  0
   15.7246   -8.1403   18.1656 C   0  0  0  0  0  0  0  0  0  0  0  0
   14.4102   -7.5365   18.5249 C   0  0  0  0  0  0  0  0  0  0  0  0
   13.9627   -7.5579   19.8748 N   0  0  0  0  0  0  0  0  0  0  0  0
   13.6882   -7.0213   17.6322 O   0  0  0  0  0  0  0  0  0  0  0  0
   14.5267   -7.9607   20.5740 H   0  0  0  0  0  0  0  0  0  0  0  0
   13.0889   -7.1700   20.1099 H   0  0  0  0  0  0  0  0  0  0  0  0
  9 10  1  0  0  0
 10 11  1  0  0  0
 11 12  2  0  0  0
 12 13  1  0  0  0
 13 14  2  0  0  0
 14 15  1  0  0  0
 15 16  2  0  0  0
 16 17  1  0  0  0
 17 18  2  0  0  0
 11  1  1  0  0  0
  1  2  1  0  0  0
  2  3  1  0  0  0
  3  4  1  0  0  0
  4  5  1  0  0  0
  5  6  1  0  0  0
  6  7  1  0  0  0
  7  8  2  0  0  0
  7 19  1  0  0  0
 19 20  2  0  0  0
 20 21  1  0  0  0
 21 22  2  0  0  0
 22 23  1  0  0  0
 23 25  1  0  0  0
 25 26  1  0  0  0
 26 27  1  0  0  0
 27 28  1  0  0  0
 27 29  2  0  0  0
 23 24  2  0  0  0
 18 10  1  0  0  0
  6  1  1  0  0  0
 24 19  1  0  0  0
 18 13  1  0  0  0
 28 30  1  0  0  0
 28 31  1  0  0  0
M  END
>  <minimizedAffinity>
-2.96455

>  <minimizedRMSD>
1.78392

$$$$
CSC027387251 CSSS00027387251 MCULE-4694754161 MolPort-020-091-551 Z1172204206


 24 27  0  0  0  0  0  0  0  0999 V2000
   16.3514   -9.8941   13.8061 C   0  0  0  0  0  0  0  0  0  0  0  0
   15.2750   -9.6004   12.7608 C   0  0  0  0  0  0  0  0  0  0  0  0
   15.5215  -10.4427   11.5133 C   0  0  0  0  0  0  0  0  0  0  0  0
   16.8820  -10.2142   11.0328 N   0  0  0  0  0  0  0  0  0  0  0  0
   17.9676  -10.4616   11.9796 C   0  0  0  0  0  0  0  0  0  0  0  0
   17.7464   -9.6284   13.2388 C   0  0  0  0  0  0  0  0  0  0  0  0
   17.1033   -9.8037    9.6673 C   0  0  0  0  0  0  0  0  0  0  0  0
   18.1464   -8.9394    9.2824 C   0  0  0  0  0  0  0  0  0  0  0  0
   19.1158   -8.3236   10.0863 C   0  0  0  0  0  0  0  0  0  0  0  0
   19.9971   -7.5131    9.3627 C   0  0  0  0  0  0  0  0  0  0  0  0
   19.5559   -7.5682    7.7282 S   0  0  0  0  0  0  0  0  0  0  0  0
   18.2673   -8.6074    7.9504 C   0  0  0  0  0  0  0  0  0  0  0  0
   17.4241   -9.0737    7.0010 N   0  0  0  0  0  0  0  0  0  0  0  0
   16.4147   -9.9050    7.3777 C   0  0  0  0  0  0  0  0  0  0  0  0
   16.2627  -10.2572    8.6885 N   0  0  0  0  0  0  0  0  0  0  0  0
   16.2920   -9.5145   16.2919 N   0  0  0  0  0  0  0  0  0  0  0  0
   15.9491   -8.4550   17.0441 C   0  0  0  0  0  0  0  0  0  0  0  0
   15.9537   -8.4291   18.8338 S   0  0  0  0  0  0  0  0  0  0  0  0
   15.5945   -7.4027   16.2824 N   0  0  0  0  0  0  0  0  0  0  0  0
   15.7031   -7.7886   15.0181 N   0  0  0  0  0  0  0  0  0  0  0  0
   16.1238   -9.0702   15.0327 C   0  0  0  0  0  0  0  0  0  0  0  0
   16.3585   -9.6394   19.3037 H   0  0  0  0  0  0  0  0  0  0  0  0
   18.2052  -10.9753   16.6990 C   0  0  0  0  0  0  0  0  0  0  0  0
   16.6945  -10.8400   16.7450 C   0  0  0  0  0  0  0  0  0  0  0  0
 23 24  1  0  0  0
 24 16  1  0  0  0
 16 17  1  0  0  0
 17 18  1  0  0  0
 17 19  2  0  0  0
 19 20  1  0  0  0
 20 21  2  0  0  0
 21  1  1  0  0  0
  1  2  1  0  0  0
  2  3  1  0  0  0
  3  4  1  0  0  0
  4  5  1  0  0  0
  5  6  1  0  0  0
  4  7  1  0  0  0
  7  8  2  0  0  0
  8  9  1  0  0  0
  9 10  2  0  0  0
 10 11  1  0  0  0
 11 12  1  0  0  0
 12 13  2  0  0  0
 13 14  1  0  0  0
 14 15  2  0  0  0
 21 16  1  0  0  0
  6  1  1  0  0  0
 15  7  1  0  0  0
 12  8  1  0  0  0
 18 22  1  0  0  0
M  END
>  <minimizedAffinity>
-2.94686

>  <minimizedRMSD>
0.68319

$$$$
CSSS20521995663


 31 34  0  0  0  0  0  0  0  0999 V2000
   17.5708   -9.1240   16.6867 C   0  0  0  0  0  0  0  0  0  0  0  0
   17.4344   -8.6731   15.3632 C   0  0  0  0  0  0  0  0  0  0  0  0
   17.4311   -9.6183   14.3388 C   0  0  0  0  0  0  0  0  0  0  0  0
   17.5536  -10.9609   14.6032 C   0  0  0  0  0  0  0  0  0  0  0  0
   17.5150  -11.7515   13.3533 C   0  0  0  0  0  0  0  0  0  0  0  0
   17.3810  -10.7238   12.3199 N   0  0  0  0  0  0  0  0  0  0  0  0
   17.2970   -9.3760   12.8860 C   0  0  0  0  0  0  0  0  0  0  0  0
   17.1718  -11.0483   10.9345 C   0  0  0  0  0  0  0  0  0  0  0  0
   16.8888  -12.2377   10.6231 O   0  0  0  0  0  0  0  0  0  0  0  0
   17.6859  -11.4349   15.9076 C   0  0  0  0  0  0  0  0  0  0  0  0
   17.6932  -10.5017   16.9565 C   0  0  0  0  0  0  0  0  0  0  0  0
   17.2848  -10.0386    9.8561 C   0  0  0  0  0  0  0  0  0  0  0  0
   18.4318   -9.2411    9.7007 C   0  0  0  0  0  0  0  0  0  0  0  0
   18.4600   -8.3601    8.6739 N   0  0  0  0  0  0  0  0  0  0  0  0
   19.4338   -7.5291    8.3661 N   0  0  0  0  0  0  0  0  0  0  0  0
   19.0291   -6.8448    7.2671 C   0  0  0  0  0  0  0  0  0  0  0  0
   17.7522   -7.2632    6.8697 C   0  0  0  0  0  0  0  0  0  0  0  0
   17.4567   -8.2247    7.8087 C   0  0  0  0  0  0  0  0  0  0  0  0
   16.3327   -8.9738    7.9048 N   0  0  0  0  0  0  0  0  0  0  0  0
   16.2377   -9.8824    8.9191 C   0  0  0  0  0  0  0  0  0  0  0  0
   17.5619   -8.1430   17.8094 C   0  0  0  0  0  0  0  0  0  0  0  0
   15.0573   -7.7440   17.7496 C   0  0  0  0  0  0  0  0  0  0  0  0
   15.1103   -7.3741   16.5467 O   0  0  0  0  0  0  0  0  0  0  0  0
   16.2524   -8.1124   18.4466 N   0  0  0  0  0  0  0  0  0  0  0  0
   16.1862   -8.3558   19.3983 H   0  0  0  0  0  0  0  0  0  0  0  0
   13.6481   -7.6505   19.7426 C   0  0  0  0  0  0  0  0  0  0  0  0
   13.7577   -7.7855   18.4249 C   0  0  0  0  0  0  0  0  0  0  0  0
   11.5980   -6.5529   20.1174 F   0  0  0  0  0  0  0  0  0  0  0  0
   12.3181   -7.6952   20.4169 C   0  0  0  0  0  0  0  0  0  0  0  0
   11.6129   -8.8084   19.9969 F   0  0  0  0  0  0  0  0  0  0  0  0
   12.5059   -7.7670   21.7838 F   0  0  0  0  0  0  0  0  0  0  0  0
 28 29  1  0  0  0
 29 30  1  0  0  0
 29 31  1  0  0  0
 29 26  1  0  0  0
 26 27  2  0  0  0
 27 22  1  0  0  0
 22 23  2  0  0  0
 22 24  1  0  0  0
 24 21  1  0  0  0
 21  1  1  0  0  0
  1  2  2  0  0  0
  2  3  1  0  0  0
  3  4  2  0  0  0
  4  5  1  0  0  0
  5  6  1  0  0  0
  6  7  1  0  0  0
  6  8  1  0  0  0
  8  9  2  0  0  0
  8 12  1  0  0  0
 12 13  2  0  0  0
 13 14  1  0  0  0
 14 15  1  0  0  0
 15 16  2  0  0  0
 16 17  1  0  0  0
 17 18  2  0  0  0
 18 19  1  0  0  0
 19 20  2  0  0  0
  4 10  1  0  0  0
 10 11  2  0  0  0
 11  1  1  0  0  0
  7  3  1  0  0  0
 20 12  1  0  0  0
 18 14  1  0  0  0
 24 25  1  0  0  0
M  END
>  <minimizedAffinity>
-2.92886

>  <minimizedRMSD>
0.81174

$$$$
65393743 CSSS00159767062 MCULE-1825044513 MolPort-016-602-298 PubChem-50958164 ZINC000065393743


 25 28  0  0  0  0  0  0  0  0999 V2000
   17.0151  -10.8703   14.1924 C   0  0  0  0  0  0  0  0  0  0  0  0
   18.2086  -11.0281   13.2503 C   0  0  0  0  0  0  0  0  0  0  0  0
   17.7383  -10.9095   11.8031 C   0  0  0  0  0  0  0  0  0  0  0  0
   17.0996   -9.6120   11.5928 N   0  0  0  0  0  0  0  0  0  0  0  0
   15.8760   -9.5680   12.3934 C   0  0  0  0  0  0  0  0  0  0  0  0
   16.2263   -9.5997   13.8784 C   0  0  0  0  0  0  0  0  0  0  0  0
   18.5422  -10.2491   16.1147 N   0  0  0  0  0  0  0  0  0  0  0  0
   18.4943  -10.5457   17.4235 C   0  0  0  0  0  0  0  0  0  0  0  0
   19.3332  -10.1410   18.2712 O   0  0  0  0  0  0  0  0  0  0  0  0
   17.4422  -11.3254   17.7298 N   0  0  0  0  0  0  0  0  0  0  0  0
   16.7887  -11.5357   16.5942 N   0  0  0  0  0  0  0  0  0  0  0  0
   17.4572  -10.8815   15.6221 C   0  0  0  0  0  0  0  0  0  0  0  0
   17.2041  -11.6715   18.6201 H   0  0  0  0  0  0  0  0  0  0  0  0
   19.5056   -9.4036   15.4208 C   0  0  0  0  0  0  0  0  0  0  0  0
   19.8116   -8.1722   16.2519 C   0  0  0  0  0  0  0  0  0  0  0  0
   16.7005   -9.5625   10.1955 C   0  0  0  0  0  0  0  0  0  0  0  0
   17.7570   -8.8925    9.3791 C   0  0  0  0  0  0  0  0  0  0  0  0
   18.8003   -8.1808   10.0022 C   0  0  0  0  0  0  0  0  0  0  0  0
   19.7968   -7.5423    9.2263 C   0  0  0  0  0  0  0  0  0  0  0  0
   19.7613   -7.6051    7.8189 C   0  0  0  0  0  0  0  0  0  0  0  0
   18.7114   -8.3152    7.2445 C   0  0  0  0  0  0  0  0  0  0  0  0
   18.4461   -8.5234    5.9481 N   0  0  0  0  0  0  0  0  0  0  0  0
   17.3518   -9.2453    5.9523 O   0  0  0  0  0  0  0  0  0  0  0  0
   16.8891   -9.5198    7.1477 N   0  0  0  0  0  0  0  0  0  0  0  0
   17.7545   -8.9278    7.9839 C   0  0  0  0  0  0  0  0  0  0  0  0
  7 14  1  0  0  0
 14 15  1  0  0  0
  7  8  1  0  0  0
  8  9  2  0  0  0
  8 10  1  0  0  0
 10 11  1  0  0  0
 11 12  2  0  0  0
 12  1  1  0  0  0
  1  2  1  0  0  0
  2  3  1  0  0  0
  3  4  1  0  0  0
  4  5  1  0  0  0
  5  6  1  0  0  0
  4 16  1  0  0  0
 16 17  1  0  0  0
 17 18  2  0  0  0
 18 19  1  0  0  0
 19 20  2  0  0  0
 20 21  1  0  0  0
 21 22  2  0  0  0
 22 23  1  0  0  0
 23 24  1  0  0  0
 24 25  2  0  0  0
 12  7  1  0  0  0
  6  1  1  0  0  0
 25 17  1  0  0  0
 25 21  1  0  0  0
 10 13  1  0  0  0
M  END
>  <minimizedAffinity>
-2.87639

>  <minimizedRMSD>
3.15408

$$$$
CSSS00159570879 MCULE-8339942627 MolPort-005-163-061


 35 37  0  0  0  0  0  0  0  0999 V2000
   16.9865  -10.5202   16.0918 N   0  0  0  0  0  0  0  0  0  0  0  0
   16.6840  -10.2516   14.7955 C   0  0  0  0  0  0  0  0  0  0  0  0
   15.8710   -9.1663   14.4500 C   0  0  0  0  0  0  0  0  0  0  0  0
   15.3659   -8.3463   15.4836 C   0  0  0  0  0  0  0  0  0  0  0  0
   14.6308   -7.3595   15.2061 O   0  0  0  0  0  0  0  0  0  0  0  0
   15.6868   -8.6347   16.8288 C   0  0  0  0  0  0  0  0  0  0  0  0
   16.5052   -9.7369   17.0974 C   0  0  0  0  0  0  0  0  0  0  0  0
   15.5809   -8.9274   13.0152 C   0  0  0  0  0  0  0  0  0  0  0  0
   15.6469   -7.7653   12.5293 O   0  0  0  0  0  0  0  0  0  0  0  0
   15.2207  -10.0269   12.1710 N   0  0  0  0  0  0  0  0  0  0  0  0
   15.1393  -10.9220   12.5729 H   0  0  0  0  0  0  0  0  0  0  0  0
   14.9696   -9.8787   10.7442 C   0  0  0  0  0  0  0  0  0  0  0  0
   14.5557  -11.2156   10.1613 C   0  0  0  0  0  0  0  0  0  0  0  0
   16.1944   -9.3753   10.0513 C   0  0  0  0  0  0  0  0  0  0  0  0
   16.2267   -9.1452    8.7128 N   0  0  0  0  0  0  0  0  0  0  0  0
   17.4766   -8.6985    8.5277 C   0  0  0  0  0  0  0  0  0  0  0  0
   18.0695   -8.3036    7.3311 C   0  0  0  0  0  0  0  0  0  0  0  0
   19.4058   -7.8646    7.3846 C   0  0  0  0  0  0  0  0  0  0  0  0
   20.0905   -7.4312    6.1391 C   0  0  0  0  0  0  0  0  0  0  0  0
   20.1005   -7.8328    8.6149 C   0  0  0  0  0  0  0  0  0  0  0  0
   19.4684   -8.2392    9.8049 C   0  0  0  0  0  0  0  0  0  0  0  0
   18.1467   -8.6676    9.7124 C   0  0  0  0  0  0  0  0  0  0  0  0
   17.3535   -9.0932   10.7051 N   0  0  0  0  0  0  0  0  0  0  0  0
   17.5578   -9.1798   11.6643 H   0  0  0  0  0  0  0  0  0  0  0  0
   15.1963   -7.8224   17.9689 C   0  0  0  0  0  0  0  0  0  0  0  0
   14.3092   -6.9424   17.7963 O   0  0  0  0  0  0  0  0  0  0  0  0
   15.7373   -8.0412   19.2805 N   0  0  0  0  0  0  0  0  0  0  0  0
   16.4277   -8.7364   19.3765 H   0  0  0  0  0  0  0  0  0  0  0  0
   15.3433   -7.3128   20.4838 C   0  0  0  0  0  0  0  0  0  0  0  0
   14.7740   -8.2943   21.4859 C   0  0  0  0  0  0  0  0  0  0  0  0
   16.5463   -6.6269   21.1054 C   0  0  0  0  0  0  0  0  0  0  0  0
   14.2784   -6.2826   20.1542 C   0  0  0  0  0  0  0  0  0  0  0  0
   18.5947  -11.4773   17.6836 C   0  0  0  0  0  0  0  0  0  0  0  0
   17.8409  -11.6693   16.3784 C   0  0  0  0  0  0  0  0  0  0  0  0
   18.8149  -11.9230   15.2403 C   0  0  0  0  0  0  0  0  0  0  0  0
 33 34  1  0  0  0
 34 35  1  0  0  0
 34  1  1  0  0  0
  1  2  1  0  0  0
  2  3  2  0  0  0
  3  8  1  0  0  0
  3  4  1  0  0  0
  8  9  2  0  0  0
  8 10  1  0  0  0
 12 10  1  0  0  0
 12 13  1  0  0  0
 12 14  1  0  0  0
 14 15  2  0  0  0
 15 16  1  0  0  0
 16 17  2  0  0  0
 17 18  1  0  0  0
 18 19  1  0  0  0
 18 20  2  0  0  0
 20 21  1  0  0  0
 21 22  2  0  0  0
 22 23  1  0  0  0
 22 16  1  0  0  0
 23 14  1  0  0  0
  4  5  2  0  0  0
  4  6  1  0  0  0
  6  7  2  0  0  0
  6 25  1  0  0  0
  7  1  1  0  0  0
 25 26  2  0  0  0
 25 27  1  0  0  0
 27 29  1  0  0  0
 29 30  1  0  0  0
 29 31  1  0  0  0
 29 32  1  0  0  0
 10 11  1  0  0  0
 23 24  1  0  0  0
 27 28  1  0  0  0
M  END
>  <minimizedAffinity>
-2.87601

>  <minimizedRMSD>
1.61485

$$$$
CSC027342382 14815186 CSSS00027342382 MCULE-6489810105 MolPort-005-745-427 PubChem-16609849 Z235446464 ZINC000014815186


 30 32  0  0  0  0  0  0  0  0999 V2000
   17.9617   -9.9267   12.5278 C   0  0  0  0  0  0  0  0  0  0  0  0
   17.2152  -10.2595   13.6976 N   0  0  0  0  0  0  0  0  0  0  0  0
   19.2199   -9.8582   12.5854 O   0  0  0  0  0  0  0  0  0  0  0  0
   16.2343  -10.3157   13.6348 H   0  0  0  0  0  0  0  0  0  0  0  0
   20.3234   -8.5520   10.6349 C   0  0  0  0  0  0  0  0  0  0  0  0
   19.0815   -8.5245    9.8163 C   0  0  0  0  0  0  0  0  0  0  0  0
   17.8364   -9.0672   10.1299 C   0  0  0  0  0  0  0  0  0  0  0  0
   17.1057   -8.8848    8.9861 C   0  0  0  0  0  0  0  0  0  0  0  0
   15.8436   -9.3566    8.8357 N   0  0  0  0  0  0  0  0  0  0  0  0
   15.2656  -10.0340    9.8699 C   0  0  0  0  0  0  0  0  0  0  0  0
   15.9701  -10.2372   11.0751 C   0  0  0  0  0  0  0  0  0  0  0  0
   17.2818   -9.7443   11.2319 C   0  0  0  0  0  0  0  0  0  0  0  0
   13.8838  -10.5613    9.7268 C   0  0  0  0  0  0  0  0  0  0  0  0
   17.8425   -8.2611    8.0571 N   0  0  0  0  0  0  0  0  0  0  0  0
   17.4343   -7.9176    6.7063 C   0  0  0  0  0  0  0  0  0  0  0  0
   19.0541   -8.0436    8.5490 N   0  0  0  0  0  0  0  0  0  0  0  0
   17.8520  -10.5185   14.9794 C   0  0  0  0  0  0  0  0  0  0  0  0
   18.1366   -9.2047   15.6923 C   0  0  0  0  0  0  0  0  0  0  0  0
   16.9443   -8.7294   16.4552 C   0  0  0  0  0  0  0  0  0  0  0  0
   15.8386   -8.2240   15.7638 C   0  0  0  0  0  0  0  0  0  0  0  0
   14.7185   -7.7723   16.4677 C   0  0  0  0  0  0  0  0  0  0  0  0
   14.7024   -7.8194   17.8661 C   0  0  0  0  0  0  0  0  0  0  0  0
   15.8097   -8.3221   18.5582 C   0  0  0  0  0  0  0  0  0  0  0  0
   16.9299   -8.7741   17.8550 C   0  0  0  0  0  0  0  0  0  0  0  0
   13.2915   -7.2634   18.7471 S   0  0  0  0  0  0  0  0  0  0  0  0
   13.4633   -7.6417   20.4243 N   0  0  0  0  0  0  0  0  0  0  0  0
   12.0625   -7.9371   18.2060 O   0  0  0  0  0  0  0  0  0  0  0  0
   13.1563   -5.7742   18.5974 O   0  0  0  0  0  0  0  0  0  0  0  0
   13.5559   -8.6511   20.5374 H   0  0  0  0  0  0  0  0  0  0  0  0
   12.6405   -7.3167   20.9322 H   0  0  0  0  0  0  0  0  0  0  0  0
  5  6  1  0  0  0
  6  7  1  0  0  0
  7  8  2  0  0  0
  8  9  1  0  0  0
  9 10  2  0  0  0
 10 11  1  0  0  0
 11 12  2  0  0  0
 12  1  1  0  0  0
  1  2  1  0  0  0
  2 17  1  0  0  0
 17 18  1  0  0  0
 18 19  1  0  0  0
 19 20  2  0  0  0
 20 21  1  0  0  0
 21 22  2  0  0  0
 22 25  1  0  0  0
 25 26  1  0  0  0
 25 27  2  0  0  0
 25 28  2  0  0  0
 22 23  1  0  0  0
 23 24  2  0  0  0
  1  3  2  0  0  0
 10 13  1  0  0  0
  8 14  1  0  0  0
 14 15  1  0  0  0
 14 16  1  0  0  0
 16  6  2  0  0  0
 12  7  1  0  0  0
 24 19  1  0  0  0
  2  4  1  0  0  0
 26 29  1  0  0  0
 26 30  1  0  0  0
M  END
>  <minimizedAffinity>
-2.85912

>  <minimizedRMSD>
2.83709

$$$$
CSSS06359879256 MCULE-1252756921 MolPort-047-804-174 PubChem-155975512


 29 31  0  0  0  0  0  0  0  0999 V2000
   17.5471   -9.7605   12.5193 N   0  0  0  0  0  0  0  0  0  0  0  0
   18.1886  -10.9450   13.0847 C   0  0  0  0  0  0  0  0  0  0  0  0
   17.5403  -11.2664   14.4281 C   0  0  0  0  0  0  0  0  0  0  0  0
   17.6054  -10.0894   15.3087 N   0  0  0  0  0  0  0  0  0  0  0  0
   16.8387   -8.9901   14.7151 C   0  0  0  0  0  0  0  0  0  0  0  0
   17.4591   -8.5845   13.3801 C   0  0  0  0  0  0  0  0  0  0  0  0
   18.0348   -8.3383    7.5718 C   0  0  0  0  0  0  0  0  0  0  0  0
   16.7839   -8.9594    7.7151 C   0  0  0  0  0  0  0  0  0  0  0  0
   16.3708   -9.4467    8.9564 C   0  0  0  0  0  0  0  0  0  0  0  0
   15.1491  -10.0225    9.0816 N   0  0  0  0  0  0  0  0  0  0  0  0
   14.7179  -10.4851   10.2817 C   0  0  0  0  0  0  0  0  0  0  0  0
   15.5120  -10.3835   11.3783 N   0  0  0  0  0  0  0  0  0  0  0  0
   16.7551   -9.8293   11.3175 C   0  0  0  0  0  0  0  0  0  0  0  0
   17.2148   -9.3275   10.0801 C   0  0  0  0  0  0  0  0  0  0  0  0
   18.4555   -8.6938    9.9350 C   0  0  0  0  0  0  0  0  0  0  0  0
   18.8732   -8.2011    8.6884 C   0  0  0  0  0  0  0  0  0  0  0  0
   19.0943   -8.6663    5.3580 C   0  0  0  0  0  0  0  0  0  0  0  0
   18.4621   -7.8481    6.3328 O   0  0  0  0  0  0  0  0  0  0  0  0
   20.1147   -7.5739    8.5377 O   0  0  0  0  0  0  0  0  0  0  0  0
   21.2612   -7.9471    9.2900 C   0  0  0  0  0  0  0  0  0  0  0  0
   17.0443  -10.3802   16.6388 C   0  0  0  0  0  0  0  0  0  0  0  0
   17.8817  -11.3666   17.4568 C   0  0  0  0  0  0  0  0  0  0  0  0
   16.7549   -9.1320   17.4227 C   0  0  0  0  0  0  0  0  0  0  0  0
   17.6869   -8.3465   17.7487 O   0  0  0  0  0  0  0  0  0  0  0  0
   15.4041   -8.8323   17.7849 N   0  0  0  0  0  0  0  0  0  0  0  0
   14.6955   -9.4659   17.5288 H   0  0  0  0  0  0  0  0  0  0  0  0
   15.0334   -7.6300   18.5162 C   0  0  0  0  0  0  0  0  0  0  0  0
   13.6382   -7.1898   18.1161 C   0  0  0  0  0  0  0  0  0  0  0  0
   15.0553   -7.9202   20.0019 C   0  0  0  0  0  0  0  0  0  0  0  0
 17 18  1  0  0  0
 18  7  1  0  0  0
  7  8  2  0  0  0
  8  9  1  0  0  0
  9 10  2  0  0  0
 10 11  1  0  0  0
 11 12  2  0  0  0
 12 13  1  0  0  0
 13  1  1  0  0  0
  1  2  1  0  0  0
  2  3  1  0  0  0
  3  4  1  0  0  0
  4  5  1  0  0  0
  5  6  1  0  0  0
  4 21  1  0  0  0
 21 22  1  0  0  0
 21 23  1  0  0  0
 23 24  2  0  0  0
 23 25  1  0  0  0
 25 27  1  0  0  0
 27 28  1  0  0  0
 27 29  1  0  0  0
 13 14  2  0  0  0
 14 15  1  0  0  0
 15 16  2  0  0  0
 16 19  1  0  0  0
 19 20  1  0  0  0
 16  7  1  0  0  0
 14  9  1  0  0  0
  6  1  1  0  0  0
 25 26  1  0  0  0
M  END
>  <minimizedAffinity>
-2.85487

>  <minimizedRMSD>
2.37471

$$$$
CSC027626992 CSSS00027626992 MCULE-6458524522 MolPort-035-751-083 Z1738540819


 32 35  0  0  0  0  0  0  0  0999 V2000
   16.1224  -10.4168   11.2791 N   0  0  0  0  0  0  0  0  0  0  0  0
   15.8834   -9.3109   12.1551 C   0  0  0  0  0  0  0  0  0  0  0  0
   15.2938   -8.2841   11.7189 O   0  0  0  0  0  0  0  0  0  0  0  0
   16.5453  -11.2256   11.6481 H   0  0  0  0  0  0  0  0  0  0  0  0
   16.3175   -9.3606   13.5687 C   0  0  0  0  0  0  0  0  0  0  0  0
   16.0376   -8.2844   14.4287 C   0  0  0  0  0  0  0  0  0  0  0  0
   16.4604   -8.3496   15.7687 C   0  0  0  0  0  0  0  0  0  0  0  0
   17.1341   -9.4414   16.2300 N   0  0  0  0  0  0  0  0  0  0  0  0
   17.3868  -10.4598   15.3721 C   0  0  0  0  0  0  0  0  0  0  0  0
   18.0440  -11.6429   15.6126 C   0  0  0  0  0  0  0  0  0  0  0  0
   18.0178  -12.3085   14.3882 C   0  0  0  0  0  0  0  0  0  0  0  0
   17.3692  -11.5336   13.4821 N   0  0  0  0  0  0  0  0  0  0  0  0
   16.9950  -10.4212   14.0942 N   0  0  0  0  0  0  0  0  0  0  0  0
   18.6466  -12.1194   16.8655 C   0  0  0  0  0  0  0  0  0  0  0  0
   18.3838  -11.4510   18.0949 N   0  0  0  0  0  0  0  0  0  0  0  0
   19.4022  -13.1264   16.8576 O   0  0  0  0  0  0  0  0  0  0  0  0
   17.7942  -10.6628   18.1104 H   0  0  0  0  0  0  0  0  0  0  0  0
   18.7918  -11.7771   18.9294 H   0  0  0  0  0  0  0  0  0  0  0  0
   15.7683  -10.4003    9.8663 C   0  0  0  0  0  0  0  0  0  0  0  0
   15.6780  -11.8231    9.3514 C   0  0  0  0  0  0  0  0  0  0  0  0
   19.5121   -7.7073    6.1482 C   0  0  0  0  0  0  0  0  0  0  0  0
   20.0336   -7.1595    7.3497 C   0  0  0  0  0  0  0  0  0  0  0  0
   19.4743   -7.4929    8.5967 C   0  0  0  0  0  0  0  0  0  0  0  0
   18.3980   -8.3747    8.5985 C   0  0  0  0  0  0  0  0  0  0  0  0
   17.7146   -8.8286    9.6580 N   0  0  0  0  0  0  0  0  0  0  0  0
   16.7893   -9.6419    9.0811 C   0  0  0  0  0  0  0  0  0  0  0  0
   16.8655   -9.7177    7.7269 N   0  0  0  0  0  0  0  0  0  0  0  0
   17.8933   -8.9032    7.4506 C   0  0  0  0  0  0  0  0  0  0  0  0
   18.4210   -8.5962    6.1994 C   0  0  0  0  0  0  0  0  0  0  0  0
   17.8482   -8.6250   10.6119 H   0  0  0  0  0  0  0  0  0  0  0  0
   21.4218   -7.0233    4.7337 C   0  0  0  0  0  0  0  0  0  0  0  0
   20.0579   -7.3845    4.9029 O   0  0  0  0  0  0  0  0  0  0  0  0
 31 32  1  0  0  0
 32 21  1  0  0  0
 21 22  2  0  0  0
 22 23  1  0  0  0
 23 24  2  0  0  0
 24 25  1  0  0  0
 25 26  1  0  0  0
 26 27  2  0  0  0
 27 28  1  0  0  0
 28 29  2  0  0  0
 26 19  1  0  0  0
 19 20  1  0  0  0
 19  1  1  0  0  0
  1  2  1  0  0  0
  2  3  2  0  0  0
  2  5  1  0  0  0
  5  6  2  0  0  0
  6  7  1  0  0  0
  7  8  2  0  0  0
  8  9  1  0  0  0
  9 10  2  0  0  0
 10 11  1  0  0  0
 11 12  2  0  0  0
 12 13  1  0  0  0
 10 14  1  0  0  0
 14 15  1  0  0  0
 14 16  2  0  0  0
 29 21  1  0  0  0
 13  5  1  0  0  0
 28 24  1  0  0  0
 13  9  1  0  0  0
 25 30  1  0  0  0
  1  4  1  0  0  0
 15 17  1  0  0  0
 15 18  1  0  0  0
M  END
>  <minimizedAffinity>
-2.83984

>  <minimizedRMSD>
1.86279

$$$$
952979829 CSSS00159967204 MCULE-9310023204 MolPort-045-961-147 PubChem-131943936 ZINC000952979829


 30 33  0  0  0  0  0  0  0  0999 V2000
   16.1282   -9.3912   14.2730 N   0  0  0  0  0  0  0  0  0  0  0  0
   16.8870   -8.9084   13.1226 C   0  0  0  0  0  0  0  0  0  0  0  0
   16.7226   -9.8954   11.9729 C   0  0  0  0  0  0  0  0  0  0  0  0
   15.2989  -10.1542   11.7609 N   0  0  0  0  0  0  0  0  0  0  0  0
   14.4947  -10.5863   12.9037 C   0  0  0  0  0  0  0  0  0  0  0  0
   14.6982   -9.6195   14.0685 C   0  0  0  0  0  0  0  0  0  0  0  0
   14.7025   -9.9933   10.4664 C   0  0  0  0  0  0  0  0  0  0  0  0
   13.4530  -10.0853   10.3279 O   0  0  0  0  0  0  0  0  0  0  0  0
   16.7182   -9.6878   16.6793 C   0  0  0  0  0  0  0  0  0  0  0  0
   16.8137  -10.0901   15.3218 C   0  0  0  0  0  0  0  0  0  0  0  0
   17.5456  -11.1962   15.0051 N   0  0  0  0  0  0  0  0  0  0  0  0
   18.1699  -11.9510   15.9452 C   0  0  0  0  0  0  0  0  0  0  0  0
   18.0801  -11.6036   17.2897 C   0  0  0  0  0  0  0  0  0  0  0  0
   17.3548  -10.4700   17.6505 C   0  0  0  0  0  0  0  0  0  0  0  0
   15.8569   -8.1804   18.5047 N   0  0  0  0  0  0  0  0  0  0  0  0
   16.0304   -8.4514   17.1153 C   0  0  0  0  0  0  0  0  0  0  0  0
   15.6315   -7.6007   16.2765 O   0  0  0  0  0  0  0  0  0  0  0  0
   15.3993   -7.3575   18.7924 H   0  0  0  0  0  0  0  0  0  0  0  0
   16.1948   -8.8162   19.1762 H   0  0  0  0  0  0  0  0  0  0  0  0
   15.5512   -9.7435    9.2591 C   0  0  0  0  0  0  0  0  0  0  0  0
   16.9538  -10.3089    9.4502 C   0  0  0  0  0  0  0  0  0  0  0  0
   17.9667   -9.2877    9.2211 N   0  0  0  0  0  0  0  0  0  0  0  0
   18.7404   -8.7756   10.1729 N   0  0  0  0  0  0  0  0  0  0  0  0
   19.6354   -7.9313    9.6581 N   0  0  0  0  0  0  0  0  0  0  0  0
   19.4049   -7.9212    8.3311 C   0  0  0  0  0  0  0  0  0  0  0  0
   20.0620   -7.2022    7.3389 C   0  0  0  0  0  0  0  0  0  0  0  0
   19.6140   -7.3844    6.0166 C   0  0  0  0  0  0  0  0  0  0  0  0
   18.5476   -8.2706    5.7303 C   0  0  0  0  0  0  0  0  0  0  0  0
   17.9101   -8.9878    6.7610 C   0  0  0  0  0  0  0  0  0  0  0  0
   18.3812   -8.7736    8.0546 C   0  0  0  0  0  0  0  0  0  0  0  0
 15 16  1  0  0  0
 16 17  2  0  0  0
 16  9  1  0  0  0
  9 10  2  0  0  0
 10 11  1  0  0  0
 11 12  2  0  0  0
 12 13  1  0  0  0
 13 14  2  0  0  0
 10  1  1  0  0  0
  1  2  1  0  0  0
  2  3  1  0  0  0
  3  4  1  0  0  0
  4  5  1  0  0  0
  5  6  1  0  0  0
  4  7  1  0  0  0
  7  8  2  0  0  0
  7 20  1  0  0  0
 20 21  1  0  0  0
 21 22  1  0  0  0
 22 23  1  0  0  0
 23 24  2  0  0  0
 24 25  1  0  0  0
 25 26  2  0  0  0
 26 27  1  0  0  0
 27 28  2  0  0  0
 28 29  1  0  0  0
 29 30  2  0  0  0
 14  9  1  0  0  0
  6  1  1  0  0  0
 30 22  1  0  0  0
 30 25  1  0  0  0
 15 18  1  0  0  0
 15 19  1  0  0  0
M  END
>  <minimizedAffinity>
-2.83640

>  <minimizedRMSD>
2.52899

$$$$
CSC027035934 58018072 CSSS00027035934 MCULE-1637132008 MolPort-009-105-500 PubChem-47079308 Z851047104 ZINC000058018072 ZINC58018072


 29 32  0  0  0  0  0  0  0  0999 V2000
   17.3149  -10.5873   15.1654 C   0  0  0  0  0  0  0  0  0  0  0  0
   17.8032  -11.7162   15.4466 O   0  0  0  0  0  0  0  0  0  0  0  0
   17.1682  -10.1935   13.7989 N   0  0  0  0  0  0  0  0  0  0  0  0
   16.7846   -9.3098   13.5961 H   0  0  0  0  0  0  0  0  0  0  0  0
   15.1756   -8.2747   17.2756 C   0  0  0  0  0  0  0  0  0  0  0  0
   15.6006   -9.1465   16.2590 C   0  0  0  0  0  0  0  0  0  0  0  0
   16.8963   -9.6748   16.2437 C   0  0  0  0  0  0  0  0  0  0  0  0
   17.7867   -9.3264   17.2633 C   0  0  0  0  0  0  0  0  0  0  0  0
   17.3859   -8.4621   18.2813 C   0  0  0  0  0  0  0  0  0  0  0  0
   16.0880   -7.9284   18.3025 C   0  0  0  0  0  0  0  0  0  0  0  0
   12.9455   -7.9727   18.2712 O   0  0  0  0  0  0  0  0  0  0  0  0
   13.8267   -7.7654   17.2354 N   0  0  0  0  0  0  0  0  0  0  0  0
   13.4311   -7.1262   16.2379 O   0  0  0  0  0  0  0  0  0  0  0  0
   15.7046   -7.0405   19.3591 N   0  0  0  0  0  0  0  0  0  0  0  0
   15.7462   -6.0711   19.1924 H   0  0  0  0  0  0  0  0  0  0  0  0
   15.2568   -7.4972   20.6659 C   0  0  0  0  0  0  0  0  0  0  0  0
   14.4832   -6.3861   21.3449 C   0  0  0  0  0  0  0  0  0  0  0  0
   15.9191   -6.6587   21.7385 C   0  0  0  0  0  0  0  0  0  0  0  0
   17.5673  -11.0568   12.6990 C   0  0  0  0  0  0  0  0  0  0  0  0
   17.4423  -10.3199   11.4129 C   0  0  0  0  0  0  0  0  0  0  0  0
   16.2640  -10.4047   10.6638 C   0  0  0  0  0  0  0  0  0  0  0  0
   16.1403   -9.7109    9.4996 N   0  0  0  0  0  0  0  0  0  0  0  0
   17.1435   -8.9188    9.0354 C   0  0  0  0  0  0  0  0  0  0  0  0
   16.9896   -8.2170    7.8365 C   0  0  0  0  0  0  0  0  0  0  0  0
   18.0252   -7.4019    7.3672 C   0  0  0  0  0  0  0  0  0  0  0  0
   19.2152   -7.2864    8.0947 C   0  0  0  0  0  0  0  0  0  0  0  0
   19.3761   -7.9857    9.2953 C   0  0  0  0  0  0  0  0  0  0  0  0
   18.3452   -8.8017    9.7680 C   0  0  0  0  0  0  0  0  0  0  0  0
   18.4856   -9.5068   10.9632 C   0  0  0  0  0  0  0  0  0  0  0  0
 11 12  1  0  0  0
 12 13  2  0  0  0
 12  5  1  0  0  0
  5  6  2  0  0  0
  6  7  1  0  0  0
  7  8  2  0  0  0
  7  1  1  0  0  0
  8  9  1  0  0  0
  9 10  2  0  0  0
 10 14  1  0  0  0
 10  5  1  0  0  0
 14 16  1  0  0  0
 16 17  1  0  0  0
 17 18  1  0  0  0
 18 16  1  0  0  0
  1  2  2  0  0  0
  1  3  1  0  0  0
  3 19  1  0  0  0
 19 20  1  0  0  0
 20 21  2  0  0  0
 21 22  1  0  0  0
 22 23  2  0  0  0
 23 24  1  0  0  0
 24 25  2  0  0  0
 25 26  1  0  0  0
 26 27  2  0  0  0
 27 28  1  0  0  0
 28 29  2  0  0  0
 28 23  1  0  0  0
 29 20  1  0  0  0
 14 15  1  0  0  0
  3  4  1  0  0  0
M  CHG 1  11  -1
M  CHG 1  12   1
M  END
>  <minimizedAffinity>
-2.83226

>  <minimizedRMSD>
2.10543

$$$$
CSC065213648 CSSS00065213648


 30 32  0  0  0  0  0  0  0  0999 V2000
   18.1658  -10.0315   12.0965 N   0  0  0  0  0  0  0  0  0  0  0  0
   19.0247   -9.5576   12.0123 H   0  0  0  0  0  0  0  0  0  0  0  0
   17.1855   -9.8585   11.0705 C   0  0  0  0  0  0  0  0  0  0  0  0
   17.5401   -9.3893    9.8144 C   0  0  0  0  0  0  0  0  0  0  0  0
   18.7443   -9.0388    9.3440 N   0  0  0  0  0  0  0  0  0  0  0  0
   18.4656   -8.6548    8.0672 C   0  0  0  0  0  0  0  0  0  0  0  0
   17.1484   -8.7525    7.7348 N   0  0  0  0  0  0  0  0  0  0  0  0
   16.6013   -9.2196    8.8632 C   0  0  0  0  0  0  0  0  0  0  0  0
   15.2921   -9.4935    9.0775 N   0  0  0  0  0  0  0  0  0  0  0  0
   14.9231   -9.9715   10.3068 C   0  0  0  0  0  0  0  0  0  0  0  0
   15.8651  -10.1356   11.2929 N   0  0  0  0  0  0  0  0  0  0  0  0
   16.7099   -8.5346    6.8808 H   0  0  0  0  0  0  0  0  0  0  0  0
   13.4815  -10.2430   10.6002 C   0  0  0  0  0  0  0  0  0  0  0  0
   12.8051   -9.0437   10.7184 F   0  0  0  0  0  0  0  0  0  0  0  0
   13.3617  -10.9512   11.7825 F   0  0  0  0  0  0  0  0  0  0  0  0
   12.9188  -10.9838    9.5763 F   0  0  0  0  0  0  0  0  0  0  0  0
   18.9259  -12.0442   13.2601 C   0  0  0  0  0  0  0  0  0  0  0  0
   17.9483  -10.8792   13.2614 C   0  0  0  0  0  0  0  0  0  0  0  0
   18.0829  -10.0766   14.5154 C   0  0  0  0  0  0  0  0  0  0  0  0
   19.3438   -9.7338   15.0273 C   0  0  0  0  0  0  0  0  0  0  0  0
   19.4438   -8.9778   16.1986 C   0  0  0  0  0  0  0  0  0  0  0  0
   18.2865   -8.5595   16.8611 C   0  0  0  0  0  0  0  0  0  0  0  0
   17.0267   -8.8938   16.3525 C   0  0  0  0  0  0  0  0  0  0  0  0
   16.9280   -9.6535   15.1816 C   0  0  0  0  0  0  0  0  0  0  0  0
   15.5748   -8.3769   17.1891 S   0  0  0  0  0  0  0  0  0  0  0  0
   15.9858   -7.7825   18.7586 N   0  0  0  0  0  0  0  0  0  0  0  0
   14.9084   -7.2758   16.4132 O   0  0  0  0  0  0  0  0  0  0  0  0
   14.6313   -9.5382   17.3244 O   0  0  0  0  0  0  0  0  0  0  0  0
   16.6264   -6.9941   18.6666 H   0  0  0  0  0  0  0  0  0  0  0  0
   16.4345   -8.5241   19.2963 H   0  0  0  0  0  0  0  0  0  0  0  0
 17 18  1  0  0  0
 18  1  1  0  0  0
  1  3  1  0  0  0
  3  4  2  0  0  0
  4  5  1  0  0  0
  5  6  2  0  0  0
  6  7  1  0  0  0
  7  8  1  0  0  0
  8  9  2  0  0  0
  9 10  1  0  0  0
 10 11  2  0  0  0
 10 13  1  0  0  0
 13 14  1  0  0  0
 13 15  1  0  0  0
 13 16  1  0  0  0
 18 19  1  0  0  0
 19 20  2  0  0  0
 20 21  1  0  0  0
 21 22  2  0  0  0
 22 23  1  0  0  0
 23 24  2  0  0  0
 23 25  1  0  0  0
 25 26  1  0  0  0
 25 27  2  0  0  0
 25 28  2  0  0  0
 11  3  1  0  0  0
 24 19  1  0  0  0
  8  4  1  0  0  0
  1  2  1  0  0  0
  7 12  1  0  0  0
 26 29  1  0  0  0
 26 30  1  0  0  0
M  END
>  <minimizedAffinity>
-2.81621

>  <minimizedRMSD>
1.79204

$$$$
2100547415 CSSS01003823247 MCULE-2937920337 MolPort-047-962-623 PubChem-157017792


 26 28  0  0  0  0  0  0  0  0999 V2000
   18.9252  -11.0007   14.3086 C   0  0  0  0  0  0  0  0  0  0  0  0
   16.1440   -8.8585   16.7769 C   0  0  0  0  0  0  0  0  0  0  0  0
   17.3998   -8.3085   16.4957 C   0  0  0  0  0  0  0  0  0  0  0  0
   18.3084   -9.0080   15.6961 C   0  0  0  0  0  0  0  0  0  0  0  0
   17.9638  -10.2603   15.1752 C   0  0  0  0  0  0  0  0  0  0  0  0
   16.7063  -10.8076   15.4506 C   0  0  0  0  0  0  0  0  0  0  0  0
   15.7980  -10.1078   16.2501 C   0  0  0  0  0  0  0  0  0  0  0  0
   13.6246   -8.9685   18.0993 N   0  0  0  0  0  0  0  0  0  0  0  0
   14.9997   -7.9753   17.7701 S   0  0  0  0  0  0  0  0  0  0  0  0
   14.5597   -6.7338   17.0478 O   0  0  0  0  0  0  0  0  0  0  0  0
   15.6467   -7.5964   19.0726 O   0  0  0  0  0  0  0  0  0  0  0  0
   12.9620   -8.4512   18.6769 H   0  0  0  0  0  0  0  0  0  0  0  0
   13.9230   -9.8092   18.5940 H   0  0  0  0  0  0  0  0  0  0  0  0
   19.1179  -10.2972   13.0476 N   0  0  0  0  0  0  0  0  0  0  0  0
   18.0854  -10.1639   12.0650 C   0  0  0  0  0  0  0  0  0  0  0  0
   16.9688  -10.7196   12.2490 O   0  0  0  0  0  0  0  0  0  0  0  0
   19.9975   -9.8955   12.8628 H   0  0  0  0  0  0  0  0  0  0  0  0
   18.3364   -9.3791   10.8379 C   0  0  0  0  0  0  0  0  0  0  0  0
   19.4792   -8.5644   10.7409 C   0  0  0  0  0  0  0  0  0  0  0  0
   19.7095   -7.8191    9.5694 C   0  0  0  0  0  0  0  0  0  0  0  0
   18.8078   -7.8813    8.4962 C   0  0  0  0  0  0  0  0  0  0  0  0
   17.6951   -8.7028    8.6478 C   0  0  0  0  0  0  0  0  0  0  0  0
   16.7197   -8.8992    7.7452 N   0  0  0  0  0  0  0  0  0  0  0  0
   15.9053   -9.7719    8.3952 C   0  0  0  0  0  0  0  0  0  0  0  0
   16.3694  -10.0846    9.6295 N   0  0  0  0  0  0  0  0  0  0  0  0
   17.4911   -9.4045    9.7673 N   0  0  0  0  0  0  0  0  0  0  0  0
  8  9  1  0  0  0
  9 10  2  0  0  0
  9 11  2  0  0  0
  9  2  1  0  0  0
  2  3  2  0  0  0
  3  4  1  0  0  0
  4  5  2  0  0  0
  5  1  1  0  0  0
  1 14  1  0  0  0
 14 15  1  0  0  0
 15 16  2  0  0  0
 15 18  1  0  0  0
 18 19  2  0  0  0
 19 20  1  0  0  0
 20 21  2  0  0  0
 21 22  1  0  0  0
 22 23  2  0  0  0
 23 24  1  0  0  0
 24 25  2  0  0  0
 25 26  1  0  0  0
  5  6  1  0  0  0
  6  7  2  0  0  0
  7  2  1  0  0  0
 26 18  1  0  0  0
 26 22  1  0  0  0
  8 12  1  0  0  0
  8 13  1  0  0  0
 14 17  1  0  0  0
M  END
>  <minimizedAffinity>
-2.81598

>  <minimizedRMSD>
1.23788

$$$$
CSC027348359 CSSS00027348359 MCULE-4274177986 MolPort-003-139-184 PubChem-16616317 Z237736896


 28 31  0  0  0  0  0  0  0  0999 V2000
   14.8990   -8.5771   15.7417 C   0  0  0  0  0  0  0  0  0  0  0  0
   15.2443   -8.3068   17.1329 N   0  0  0  0  0  0  0  0  0  0  0  0
   16.3586   -8.6922   17.8076 C   0  0  0  0  0  0  0  0  0  0  0  0
   17.7785   -9.7135   17.0379 Br  0  0  0  0  0  0  0  0  0  0  0  0
   16.3611   -8.3063   19.1118 N   0  0  0  0  0  0  0  0  0  0  0  0
   15.1851   -7.6583   19.2282 C   0  0  0  0  0  0  0  0  0  0  0  0
   14.5117   -7.6611   18.0516 C   0  0  0  0  0  0  0  0  0  0  0  0
   13.2662   -7.0510   17.9572 C   0  0  0  0  0  0  0  0  0  0  0  0
   12.6155   -7.0367   16.8797 O   0  0  0  0  0  0  0  0  0  0  0  0
   12.7620   -6.4603   19.0786 N   0  0  0  0  0  0  0  0  0  0  0  0
   13.4531   -6.4640   20.2635 C   0  0  0  0  0  0  0  0  0  0  0  0
   12.9465   -5.9051   21.2735 O   0  0  0  0  0  0  0  0  0  0  0  0
   14.6834   -7.0711   20.3471 N   0  0  0  0  0  0  0  0  0  0  0  0
   15.4357   -7.0905   21.5950 C   0  0  0  0  0  0  0  0  0  0  0  0
   11.8819   -6.0212   19.0366 H   0  0  0  0  0  0  0  0  0  0  0  0
   16.5327   -7.1457   14.5289 C   0  0  0  0  0  0  0  0  0  0  0  0
   16.1446   -8.5722   14.8657 C   0  0  0  0  0  0  0  0  0  0  0  0
   15.8684   -9.3261   13.5783 C   0  0  0  0  0  0  0  0  0  0  0  0
   17.1901  -10.5326   13.2527 S   0  0  0  0  0  0  0  0  0  0  0  0
   17.5979   -9.7887   11.6790 C   0  0  0  0  0  0  0  0  0  0  0  0
   16.7892   -9.8598   10.5942 N   0  0  0  0  0  0  0  0  0  0  0  0
   17.3434   -9.2107    9.5397 C   0  0  0  0  0  0  0  0  0  0  0  0
   16.7509   -9.1060    8.2813 C   0  0  0  0  0  0  0  0  0  0  0  0
   17.4342   -8.4035    7.2744 C   0  0  0  0  0  0  0  0  0  0  0  0
   18.6894   -7.8195    7.5347 C   0  0  0  0  0  0  0  0  0  0  0  0
   19.2771   -7.9308    8.8047 C   0  0  0  0  0  0  0  0  0  0  0  0
   18.5794   -8.6318    9.7844 C   0  0  0  0  0  0  0  0  0  0  0  0
   19.0236   -8.9272   11.3744 S   0  0  0  0  0  0  0  0  0  0  0  0
 17 16  1  0  0  0
 17 18  1  0  0  0
 17  1  1  0  0  0
 18 19  1  0  0  0
 19 20  1  0  0  0
 20 21  2  0  0  0
 21 22  1  0  0  0
 22 23  2  0  0  0
 23 24  1  0  0  0
 24 25  2  0  0  0
 25 26  1  0  0  0
 26 27  2  0  0  0
 27 28  1  0  0  0
 27 22  1  0  0  0
 28 20  1  0  0  0
  1  2  1  0  0  0
  2  3  1  0  0  0
  3  4  1  0  0  0
  3  5  2  0  0  0
  5  6  1  0  0  0
  6  7  2  0  0  0
  7  8  1  0  0  0
  7  2  1  0  0  0
  8  9  2  0  0  0
  8 10  1  0  0  0
 10 11  1  0  0  0
 11 12  2  0  0  0
 11 13  1  0  0  0
 13 14  1  0  0  0
 13  6  1  0  0  0
 10 15  1  0  0  0
M  END
>  <minimizedAffinity>
-2.77690

>  <minimizedRMSD>
3.24397

$$$$
CSC026900564 7272952 CSSS00026900564 MCULE-1728395870 MolPort-005-803-310 PubChem-8373074 Z88253544 ZINC000007272952


 30 33  0  0  0  0  0  0  0  0999 V2000
   17.6250  -11.4248   15.3099 C   0  0  0  0  0  0  0  0  0  0  0  0
   17.1392  -10.1795   14.8736 C   0  0  0  0  0  0  0  0  0  0  0  0
   17.1813   -9.8533   13.5135 C   0  0  0  0  0  0  0  0  0  0  0  0
   17.7006  -10.7549   12.5755 C   0  0  0  0  0  0  0  0  0  0  0  0
   18.1817  -11.9948   13.0126 C   0  0  0  0  0  0  0  0  0  0  0  0
   18.1448  -12.3275   14.3681 C   0  0  0  0  0  0  0  0  0  0  0  0
   17.7410  -10.4014   11.1462 C   0  0  0  0  0  0  0  0  0  0  0  0
   16.5447   -9.9913   10.4750 N   0  0  0  0  0  0  0  0  0  0  0  0
   18.8300  -10.4646   10.5122 O   0  0  0  0  0  0  0  0  0  0  0  0
   15.7001   -9.9843   10.9809 H   0  0  0  0  0  0  0  0  0  0  0  0
   16.5222   -9.5842    9.0771 C   0  0  0  0  0  0  0  0  0  0  0  0
   17.6470   -8.6432    8.7948 C   0  0  0  0  0  0  0  0  0  0  0  0
   18.2447   -8.4920    7.6038 N   0  0  0  0  0  0  0  0  0  0  0  0
   19.1978   -7.5814    7.8356 C   0  0  0  0  0  0  0  0  0  0  0  0
   20.0484   -7.1535    6.8206 C   0  0  0  0  0  0  0  0  0  0  0  0
   19.8599   -7.7207    5.5480 C   0  0  0  0  0  0  0  0  0  0  0  0
   18.8480   -8.6785    5.3298 C   0  0  0  0  0  0  0  0  0  0  0  0
   18.0226   -9.0670    6.3959 C   0  0  0  0  0  0  0  0  0  0  0  0
   19.2023   -7.1757    9.1185 N   0  0  0  0  0  0  0  0  0  0  0  0
   18.2252   -7.8478    9.7232 N   0  0  0  0  0  0  0  0  0  0  0  0
   16.4903   -9.0102   16.0204 S   0  0  0  0  0  0  0  0  0  0  0  0
   15.3633   -9.6435   16.7865 O   0  0  0  0  0  0  0  0  0  0  0  0
   15.9625   -7.8091   15.2847 O   0  0  0  0  0  0  0  0  0  0  0  0
   17.7271   -8.5084   17.1246 N   0  0  0  0  0  0  0  0  0  0  0  0
   18.1099   -9.3202   17.6091 H   0  0  0  0  0  0  0  0  0  0  0  0
   18.7719   -7.8542   16.3545 C   0  0  0  0  0  0  0  0  0  0  0  0
   20.0442   -7.8180   17.1753 C   0  0  0  0  0  0  0  0  0  0  0  0
   19.8831   -8.8474   16.0782 C   0  0  0  0  0  0  0  0  0  0  0  0
   18.7480  -11.7708   17.4905 C   0  0  0  0  0  0  0  0  0  0  0  0
   17.5865  -11.7464   16.6717 O   0  0  0  0  0  0  0  0  0  0  0  0
 29 30  1  0  0  0
 30  1  1  0  0  0
  1  2  2  0  0  0
  2 21  1  0  0  0
 21 24  1  0  0  0
 24 26  1  0  0  0
 26 27  1  0  0  0
 27 28  1  0  0  0
 21 22  2  0  0  0
 21 23  2  0  0  0
  2  3  1  0  0  0
  3  4  2  0  0  0
  4  7  1  0  0  0
  7  8  1  0  0  0
  8 11  1  0  0  0
 11 12  1  0  0  0
 12 13  1  0  0  0
 13 14  1  0  0  0
 14 15  1  0  0  0
 15 16  2  0  0  0
 16 17  1  0  0  0
 17 18  2  0  0  0
 14 19  2  0  0  0
 19 20  1  0  0  0
  7  9  2  0  0  0
  4  5  1  0  0  0
  5  6  2  0  0  0
  6  1  1  0  0  0
 28 26  1  0  0  0
 20 12  2  0  0  0
 18 13  1  0  0  0
 24 25  1  0  0  0
  8 10  1  0  0  0
M  END
>  <minimizedAffinity>
-2.77193

>  <minimizedRMSD>
2.68616

$$$$
1798119 CSSS00159739874 LN00534058 MCULE-2791542412 MolPort-000-690-503 PubChem-1584124 ZINC000001798119 ZINC01798119


 32 35  0  0  0  0  0  0  0  0999 V2000
   15.6928   -9.8657   15.0456 C   0  0  0  0  0  0  0  0  0  0  0  0
   14.5820   -9.9988   14.2966 N   0  0  0  0  0  0  0  0  0  0  0  0
   14.9601   -9.9358   13.0285 N   0  0  0  0  0  0  0  0  0  0  0  0
   16.2934   -9.7502   13.0248 C   0  0  0  0  0  0  0  0  0  0  0  0
   16.7947   -9.7141   14.2782 N   0  0  0  0  0  0  0  0  0  0  0  0
   18.1672   -9.5555   14.6855 C   0  0  0  0  0  0  0  0  0  0  0  0
   19.1752  -10.3575   14.1294 C   0  0  0  0  0  0  0  0  0  0  0  0
   20.5057  -10.2034   14.5285 C   0  0  0  0  0  0  0  0  0  0  0  0
   20.8407   -9.2447   15.4877 C   0  0  0  0  0  0  0  0  0  0  0  0
   19.8456   -8.4399   16.0471 C   0  0  0  0  0  0  0  0  0  0  0  0
   18.5155   -8.5943   15.6470 C   0  0  0  0  0  0  0  0  0  0  0  0
   15.6589   -9.8331   16.8407 S   0  0  0  0  0  0  0  0  0  0  0  0
   15.2163   -8.0680   16.9148 C   0  0  0  0  0  0  0  0  0  0  0  0
   15.0253   -7.8914   19.4279 N   0  0  0  0  0  0  0  0  0  0  0  0
   14.4183   -7.7760   18.1384 C   0  0  0  0  0  0  0  0  0  0  0  0
   13.2187   -7.4086   18.0241 O   0  0  0  0  0  0  0  0  0  0  0  0
   15.9628   -8.1870   19.4819 H   0  0  0  0  0  0  0  0  0  0  0  0
   14.3182   -7.5911   20.6645 C   0  0  0  0  0  0  0  0  0  0  0  0
   12.5663   -5.9883   20.5495 O   0  0  0  0  0  0  0  0  0  0  0  0
   13.9439   -6.1219   20.7137 C   0  0  0  0  0  0  0  0  0  0  0  0
   12.3266   -5.0490   20.5809 H   0  0  0  0  0  0  0  0  0  0  0  0
   17.1077   -9.7219   11.7759 C   0  0  0  0  0  0  0  0  0  0  0  0
   16.1101  -10.3254   10.3842 S   0  0  0  0  0  0  0  0  0  0  0  0
   17.1467   -9.4945    9.1912 C   0  0  0  0  0  0  0  0  0  0  0  0
   17.0454   -9.6904    7.8545 N   0  0  0  0  0  0  0  0  0  0  0  0
   17.9531   -8.9323    7.1897 C   0  0  0  0  0  0  0  0  0  0  0  0
   18.0951   -8.9123    5.8022 C   0  0  0  0  0  0  0  0  0  0  0  0
   19.0774   -8.0792    5.2405 C   0  0  0  0  0  0  0  0  0  0  0  0
   19.8981   -7.2838    6.0641 C   0  0  0  0  0  0  0  0  0  0  0  0
   19.7471   -7.3115    7.4594 C   0  0  0  0  0  0  0  0  0  0  0  0
   18.7668   -8.1452    7.9905 C   0  0  0  0  0  0  0  0  0  0  0  0
   18.3591   -8.3855    9.5996 S   0  0  0  0  0  0  0  0  0  0  0  0
 19 20  1  0  0  0
 20 18  1  0  0  0
 18 14  1  0  0  0
 14 15  1  0  0  0
 15 16  2  0  0  0
 15 13  1  0  0  0
 13 12  1  0  0  0
 12  1  1  0  0  0
  1  2  2  0  0  0
  2  3  1  0  0  0
  3  4  2  0  0  0
  4 22  1  0  0  0
  4  5  1  0  0  0
 22 23  1  0  0  0
 23 24  1  0  0  0
 24 25  2  0  0  0
 25 26  1  0  0  0
 26 27  2  0  0  0
 27 28  1  0  0  0
 28 29  2  0  0  0
 29 30  1  0  0  0
 30 31  2  0  0  0
 31 32  1  0  0  0
 31 26  1  0  0  0
 32 24  1  0  0  0
  5  6  1  0  0  0
  5  1  1  0  0  0
  6  7  2  0  0  0
  7  8  1  0  0  0
  8  9  2  0  0  0
  9 10  1  0  0  0
 10 11  2  0  0  0
 11  6  1  0  0  0
 19 21  1  0  0  0
 14 17  1  0  0  0
M  END
>  <minimizedAffinity>
-2.75173

>  <minimizedRMSD>
2.61257

$$$$
CSC025954041 125010704 CSSS00025954041 MCULE-5854832857 MolPort-035-842-626 PubChem-99608771 Z1425750154 ZINC000125010704


 31 34  0  0  0  0  0  0  0  0999 V2000
   18.3017   -8.5906   10.9901 C   0  0  0  0  0  0  0  0  0  0  0  0
   17.7442   -8.7172    9.6100 C   0  0  0  0  0  0  0  0  0  0  0  0
   18.4146   -8.4169    8.4885 N   0  0  0  0  0  0  0  0  0  0  0  0
   17.5960   -8.7309    7.4708 C   0  0  0  0  0  0  0  0  0  0  0  0
   17.9910   -8.5417    6.1487 C   0  0  0  0  0  0  0  0  0  0  0  0
   19.2728   -8.0129    5.9269 C   0  0  0  0  0  0  0  0  0  0  0  0
   20.1135   -7.6942    7.0104 C   0  0  0  0  0  0  0  0  0  0  0  0
   19.6614   -7.9072    8.3203 C   0  0  0  0  0  0  0  0  0  0  0  0
   16.4126   -9.2358    7.8738 N   0  0  0  0  0  0  0  0  0  0  0  0
   16.5050   -9.2330    9.2288 C   0  0  0  0  0  0  0  0  0  0  0  0
   15.4221   -9.7257   10.1081 C   0  0  0  0  0  0  0  0  0  0  0  0
   15.6167   -9.8868   11.4883 C   0  0  0  0  0  0  0  0  0  0  0  0
   14.5807  -10.3535   12.3023 C   0  0  0  0  0  0  0  0  0  0  0  0
   13.3387  -10.6630   11.7428 C   0  0  0  0  0  0  0  0  0  0  0  0
   13.1334  -10.5053   10.3698 C   0  0  0  0  0  0  0  0  0  0  0  0
   14.1706  -10.0386    9.5571 C   0  0  0  0  0  0  0  0  0  0  0  0
   18.5704   -9.9141   11.5304 N   0  0  0  0  0  0  0  0  0  0  0  0
   18.9967  -10.5835   10.9478 H   0  0  0  0  0  0  0  0  0  0  0  0
   17.6233  -11.0779   15.4694 C   0  0  0  0  0  0  0  0  0  0  0  0
   17.2822   -9.7724   15.0488 C   0  0  0  0  0  0  0  0  0  0  0  0
   17.6022   -9.3940   13.7382 C   0  0  0  0  0  0  0  0  0  0  0  0
   18.2418  -10.2838   12.8707 C   0  0  0  0  0  0  0  0  0  0  0  0
   18.5576  -11.5599   13.3291 C   0  0  0  0  0  0  0  0  0  0  0  0
   18.2467  -11.9245   14.6001 N   0  0  0  0  0  0  0  0  0  0  0  0
   16.6033   -8.7889   15.9272 C   0  0  0  0  0  0  0  0  0  0  0  0
   16.7911   -8.8001   17.3391 N   0  0  0  0  0  0  0  0  0  0  0  0
   15.8413   -7.9197   15.4253 O   0  0  0  0  0  0  0  0  0  0  0  0
   17.3822   -9.4706   17.7518 H   0  0  0  0  0  0  0  0  0  0  0  0
   16.3299   -8.1373   17.9023 H   0  0  0  0  0  0  0  0  0  0  0  0
   18.3344  -11.6865   17.7516 C   0  0  0  0  0  0  0  0  0  0  0  0
   17.3282  -11.5087   16.7656 O   0  0  0  0  0  0  0  0  0  0  0  0
 30 31  1  0  0  0
 31 19  1  0  0  0
 19 20  2  0  0  0
 20 25  1  0  0  0
 25 26  1  0  0  0
 25 27  2  0  0  0
 20 21  1  0  0  0
 21 22  2  0  0  0
 22 17  1  0  0  0
 17  1  1  0  0  0
  1  2  1  0  0  0
  2  3  1  0  0  0
  3  4  1  0  0  0
  4  5  1  0  0  0
  5  6  2  0  0  0
  6  7  1  0  0  0
  7  8  2  0  0  0
  4  9  2  0  0  0
  9 10  1  0  0  0
 10 11  1  0  0  0
 11 12  2  0  0  0
 12 13  1  0  0  0
 13 14  2  0  0  0
 14 15  1  0  0  0
 15 16  2  0  0  0
 22 23  1  0  0  0
 23 24  2  0  0  0
 24 19  1  0  0  0
 10  2  2  0  0  0
 16 11  1  0  0  0
  8  3  1  0  0  0
 26 28  1  0  0  0
 26 29  1  0  0  0
 17 18  1  0  0  0
M  END
>  <minimizedAffinity>
-2.73689

>  <minimizedRMSD>
1.43432

$$$$
CSSS20521990779


 37 41  0  0  0  0  0  0  0  0999 V2000
   17.3232   -9.5343   14.3328 N   0  0  0  0  0  0  0  0  0  0  0  0
   15.9533   -9.8301   14.0257 C   0  0  0  0  0  0  0  0  0  0  0  0
   15.1218  -10.0607   14.9408 O   0  0  0  0  0  0  0  0  0  0  0  0
   17.9154   -9.3616   13.5655 H   0  0  0  0  0  0  0  0  0  0  0  0
   15.4890   -9.8674   12.6020 C   0  0  0  0  0  0  0  0  0  0  0  0
   16.2982  -10.8454   11.7430 C   0  0  0  0  0  0  0  0  0  0  0  0
   17.6683  -10.2759   11.3791 C   0  0  0  0  0  0  0  0  0  0  0  0
   17.5170   -8.9424   10.8032 N   0  0  0  0  0  0  0  0  0  0  0  0
   16.8017   -7.9475   11.6000 C   0  0  0  0  0  0  0  0  0  0  0  0
   15.4155   -8.4736   11.9688 C   0  0  0  0  0  0  0  0  0  0  0  0
   18.2190   -8.5509    9.6059 C   0  0  0  0  0  0  0  0  0  0  0  0
   19.3721   -7.7412    9.6692 C   0  0  0  0  0  0  0  0  0  0  0  0
   20.0176   -7.3769    8.5174 N   0  0  0  0  0  0  0  0  0  0  0  0
   19.5759   -7.7714    7.2871 C   0  0  0  0  0  0  0  0  0  0  0  0
   18.4377   -8.5639    7.2430 C   0  0  0  0  0  0  0  0  0  0  0  0
   17.8101   -9.0536    6.1619 N   0  0  0  0  0  0  0  0  0  0  0  0
   16.7731   -9.7212    6.6654 N   0  0  0  0  0  0  0  0  0  0  0  0
   16.7657   -9.6428    7.9932 N   0  0  0  0  0  0  0  0  0  0  0  0
   17.8077   -8.9223    8.3610 N   0  0  0  0  0  0  0  0  0  0  0  0
   17.0769   -8.7776   17.4909 C   0  0  0  0  0  0  0  0  0  0  0  0
   17.1290  -10.1129   16.7597 C   0  0  0  0  0  0  0  0  0  0  0  0
   17.9395   -9.4606   15.6579 C   0  0  0  0  0  0  0  0  0  0  0  0
   19.3736   -9.9539   15.6334 C   0  0  0  0  0  0  0  0  0  0  0  0
   17.8104   -8.1100   16.3320 C   0  0  0  0  0  0  0  0  0  0  0  0
   15.1724   -7.6623   18.7309 C   0  0  0  0  0  0  0  0  0  0  0  0
   15.8896   -7.5308   19.7605 O   0  0  0  0  0  0  0  0  0  0  0  0
   15.7034   -8.3033   17.5675 N   0  0  0  0  0  0  0  0  0  0  0  0
   15.1160   -8.4286   16.7874 H   0  0  0  0  0  0  0  0  0  0  0  0
   11.6660   -4.6384   20.5999 C   0  0  0  0  0  0  0  0  0  0  0  0
   12.0793   -5.6839   19.6283 C   0  0  0  0  0  0  0  0  0  0  0  0
   13.3911   -6.1672   19.6380 C   0  0  0  0  0  0  0  0  0  0  0  0
   13.7898   -7.1544   18.7245 C   0  0  0  0  0  0  0  0  0  0  0  0
   12.8580   -7.6500   17.8009 C   0  0  0  0  0  0  0  0  0  0  0  0
   11.5465   -7.1665   17.7911 C   0  0  0  0  0  0  0  0  0  0  0  0
   10.6310   -7.6628   16.8735 O   0  0  0  0  0  0  0  0  0  0  0  0
   11.1572   -6.1835   18.7049 C   0  0  0  0  0  0  0  0  0  0  0  0
   10.8921   -8.3219   16.2608 H   0  0  0  0  0  0  0  0  0  0  0  0
 29 30  1  0  0  0
 30 31  2  0  0  0
 31 32  1  0  0  0
 32 33  2  0  0  0
 33 34  1  0  0  0
 34 35  1  0  0  0
 34 36  2  0  0  0
 32 25  1  0  0  0
 25 26  2  0  0  0
 25 27  1  0  0  0
 20 27  1  0  0  0
 20 21  1  0  0  0
 21 22  1  0  0  0
 22 23  1  0  0  0
 22 24  1  0  0  0
 22  1  1  0  0  0
  1  2  1  0  0  0
  2  3  2  0  0  0
  2  5  1  0  0  0
  5  6  1  0  0  0
  6  7  1  0  0  0
  7  8  1  0  0  0
  8  9  1  0  0  0
  9 10  1  0  0  0
  8 11  1  0  0  0
 11 12  2  0  0  0
 12 13  1  0  0  0
 13 14  2  0  0  0
 14 15  1  0  0  0
 15 16  2  0  0  0
 16 17  1  0  0  0
 17 18  2  0  0  0
 18 19  1  0  0  0
 36 30  1  0  0  0
 24 20  1  0  0  0
 10  5  1  0  0  0
 19 11  1  0  0  0
 19 15  1  0  0  0
 35 37  1  0  0  0
 27 28  1  0  0  0
  1  4  1  0  0  0
M  END
>  <minimizedAffinity>
-2.73128

>  <minimizedRMSD>
1.99404

$$$$
CSSS00547317734 PubChem-166201865 Z1174489702


 31 33  0  0  0  0  0  0  0  0999 V2000
   16.2015   -9.5981   10.2349 C   0  0  0  0  0  0  0  0  0  0  0  0
   15.0463  -10.0768   10.3959 O   0  0  0  0  0  0  0  0  0  0  0  0
   16.9429   -9.1076   11.3560 N   0  0  0  0  0  0  0  0  0  0  0  0
   17.8179   -8.6864   11.1942 H   0  0  0  0  0  0  0  0  0  0  0  0
   17.9258   -8.9905    7.1450 C   0  0  0  0  0  0  0  0  0  0  0  0
   17.2190  -10.0989    6.8527 N   0  0  0  0  0  0  0  0  0  0  0  0
   16.5216  -10.4386    7.9224 N   0  0  0  0  0  0  0  0  0  0  0  0
   16.7874   -9.5439    8.8914 C   0  0  0  0  0  0  0  0  0  0  0  0
   17.6840   -8.5898    8.4474 C   0  0  0  0  0  0  0  0  0  0  0  0
   15.9147  -11.2102    7.9971 H   0  0  0  0  0  0  0  0  0  0  0  0
   20.6101   -7.3778    7.7989 C   0  0  0  0  0  0  0  0  0  0  0  0
   19.9950   -7.6174    6.4594 C   0  0  0  0  0  0  0  0  0  0  0  0
   18.8295   -8.3176    6.1902 C   0  0  0  0  0  0  0  0  0  0  0  0
   18.7030   -8.2428    4.8090 C   0  0  0  0  0  0  0  0  0  0  0  0
   19.7311   -7.5447    4.2883 N   0  0  0  0  0  0  0  0  0  0  0  0
   20.5041   -7.1712    5.2950 N   0  0  0  0  0  0  0  0  0  0  0  0
   21.7176   -6.3894    5.1271 C   0  0  0  0  0  0  0  0  0  0  0  0
   17.6133   -8.8300    3.9803 C   0  0  0  0  0  0  0  0  0  0  0  0
   16.4589   -9.2045   12.7257 C   0  0  0  0  0  0  0  0  0  0  0  0
   17.2769  -10.1919   13.4934 C   0  0  0  0  0  0  0  0  0  0  0  0
   17.4737  -11.3343   12.9994 O   0  0  0  0  0  0  0  0  0  0  0  0
   17.8542   -9.8479   14.7620 N   0  0  0  0  0  0  0  0  0  0  0  0
   18.7843  -10.7170   15.4544 C   0  0  0  0  0  0  0  0  0  0  0  0
   19.2017   -9.9650   16.7053 C   0  0  0  0  0  0  0  0  0  0  0  0
   18.7107   -8.5325   16.5366 C   0  0  0  0  0  0  0  0  0  0  0  0
   17.7042   -8.5504   15.3988 C   0  0  0  0  0  0  0  0  0  0  0  0
   16.3145   -8.3821   15.9309 C   0  0  0  0  0  0  0  0  0  0  0  0
   15.3406   -8.4081   15.1313 O   0  0  0  0  0  0  0  0  0  0  0  0
   16.0959   -8.1964   17.3319 N   0  0  0  0  0  0  0  0  0  0  0  0
   14.7627   -8.0403   17.8893 C   0  0  0  0  0  0  0  0  0  0  0  0
   16.8720   -8.1736   17.9371 H   0  0  0  0  0  0  0  0  0  0  0  0
 11 12  1  0  0  0
 12 13  2  0  0  0
 13 14  1  0  0  0
 14 15  2  0  0  0
 15 16  1  0  0  0
 16 17  1  0  0  0
 14 18  1  0  0  0
 13  5  1  0  0  0
  5  6  2  0  0  0
  6  7  1  0  0  0
  7  8  1  0  0  0
  8  9  2  0  0  0
  8  1  1  0  0  0
  1  2  2  0  0  0
  1  3  1  0  0  0
  3 19  1  0  0  0
 19 20  1  0  0  0
 20 21  2  0  0  0
 20 22  1  0  0  0
 22 23  1  0  0  0
 23 24  1  0  0  0
 24 25  1  0  0  0
 25 26  1  0  0  0
 26 27  1  0  0  0
 27 28  2  0  0  0
 27 29  1  0  0  0
 29 30  1  0  0  0
 16 12  1  0  0  0
  9  5  1  0  0  0
 26 22  1  0  0  0
  7 10  1  0  0  0
  3  4  1  0  0  0
 29 31  1  0  0  0
M  END
>  <minimizedAffinity>
-2.69805

>  <minimizedRMSD>
2.28245

$$$$
17075046 CSSS00160648449 MCULE-7955234078 MolPort-001-613-663 PubChem-17255531 ZINC000017075046 ZINC17075046


 29 31  0  0  0  0  0  0  0  0999 V2000
   18.2198  -10.2393   12.2509 C   0  0  0  0  0  0  0  0  0  0  0  0
   18.8160   -9.3670   12.9403 O   0  0  0  0  0  0  0  0  0  0  0  0
   21.1943   -7.6408    8.7177 C   0  0  0  0  0  0  0  0  0  0  0  0
   19.7692   -8.0581    8.7676 C   0  0  0  0  0  0  0  0  0  0  0  0
   19.2847   -8.7512    9.8774 C   0  0  0  0  0  0  0  0  0  0  0  0
   17.9420   -9.1545    9.9444 C   0  0  0  0  0  0  0  0  0  0  0  0
   17.4200   -9.8601   11.0581 C   0  0  0  0  0  0  0  0  0  0  0  0
   16.0687  -10.2260   11.0451 C   0  0  0  0  0  0  0  0  0  0  0  0
   15.2588   -9.9018    9.9595 C   0  0  0  0  0  0  0  0  0  0  0  0
   13.8265  -10.2966    9.9601 C   0  0  0  0  0  0  0  0  0  0  0  0
   15.7745   -9.2261    8.9021 N   0  0  0  0  0  0  0  0  0  0  0  0
   17.0802   -8.8448    8.8595 C   0  0  0  0  0  0  0  0  0  0  0  0
   17.5765   -8.1456    7.7442 C   0  0  0  0  0  0  0  0  0  0  0  0
   16.6971   -7.8051    6.5891 C   0  0  0  0  0  0  0  0  0  0  0  0
   18.9171   -7.7568    7.7052 C   0  0  0  0  0  0  0  0  0  0  0  0
   18.3073  -11.5862   12.6126 O   0  0  0  0  0  0  0  0  0  0  0  0
   19.1153  -12.0247   13.6950 C   0  0  0  0  0  0  0  0  0  0  0  0
   18.2529  -12.3055   14.8799 C   0  0  0  0  0  0  0  0  0  0  0  0
   17.9790  -13.5034   15.1587 O   0  0  0  0  0  0  0  0  0  0  0  0
   17.6968  -11.2081   15.6958 C   0  0  0  0  0  0  0  0  0  0  0  0
   17.2776  -10.0110   15.0954 C   0  0  0  0  0  0  0  0  0  0  0  0
   16.7493   -8.9747   15.8705 C   0  0  0  0  0  0  0  0  0  0  0  0
   16.3394   -7.7972   15.2579 O   0  0  0  0  0  0  0  0  0  0  0  0
   16.6359   -9.1285   17.2579 C   0  0  0  0  0  0  0  0  0  0  0  0
   16.1124   -8.1053   18.0381 O   0  0  0  0  0  0  0  0  0  0  0  0
   17.0514  -10.3174   17.8631 C   0  0  0  0  0  0  0  0  0  0  0  0
   17.5792  -11.3524   17.0860 C   0  0  0  0  0  0  0  0  0  0  0  0
   16.4178   -7.7004   14.3293 H   0  0  0  0  0  0  0  0  0  0  0  0
   15.8326   -7.3063   17.6365 H   0  0  0  0  0  0  0  0  0  0  0  0
  3  4  1  0  0  0
  4  5  2  0  0  0
  5  6  1  0  0  0
  6  7  2  0  0  0
  7  8  1  0  0  0
  7  1  1  0  0  0
  8  9  2  0  0  0
  9 10  1  0  0  0
  9 11  1  0  0  0
 11 12  2  0  0  0
 12 13  1  0  0  0
 12  6  1  0  0  0
 13 14  1  0  0  0
 13 15  2  0  0  0
 15  4  1  0  0  0
  1  2  2  0  0  0
  1 16  1  0  0  0
 16 17  1  0  0  0
 17 18  1  0  0  0
 18 19  2  0  0  0
 18 20  1  0  0  0
 20 21  2  0  0  0
 21 22  1  0  0  0
 22 23  1  0  0  0
 22 24  2  0  0  0
 24 25  1  0  0  0
 24 26  1  0  0  0
 26 27  2  0  0  0
 27 20  1  0  0  0
 23 28  1  0  0  0
 25 29  1  0  0  0
M  END
>  <minimizedAffinity>
-2.64252

>  <minimizedRMSD>
1.44581

$$$$
CSSS00138520331 MCULE-8028525219 MolPort-044-603-324 PubChem-132316393 Z2761553507


 27 30  0  0  0  0  0  0  0  0999 V2000
   16.5988  -10.2702   13.7315 C   0  0  0  0  0  0  0  0  0  0  0  0
   15.8153   -9.6899   14.9154 C   0  0  0  0  0  0  0  0  0  0  0  0
   15.9378   -8.1659   14.9709 C   0  0  0  0  0  0  0  0  0  0  0  0
   15.4589   -7.5453   13.6616 C   0  0  0  0  0  0  0  0  0  0  0  0
   16.2748   -8.0858   12.4917 C   0  0  0  0  0  0  0  0  0  0  0  0
   16.1402   -9.6078   12.4239 C   0  0  0  0  0  0  0  0  0  0  0  0
   16.8851  -10.1321   11.2876 N   0  0  0  0  0  0  0  0  0  0  0  0
   17.2678  -11.0496   11.5160 H   0  0  0  0  0  0  0  0  0  0  0  0
   15.9602  -10.2444   10.1692 C   0  0  0  0  0  0  0  0  0  0  0  0
   16.6207   -9.8053    8.9037 C   0  0  0  0  0  0  0  0  0  0  0  0
   17.6916   -8.9570    8.7554 C   0  0  0  0  0  0  0  0  0  0  0  0
   18.4441   -8.2827    9.7149 C   0  0  0  0  0  0  0  0  0  0  0  0
   19.4927   -7.4721    9.2513 C   0  0  0  0  0  0  0  0  0  0  0  0
   19.7546   -7.3603    7.8720 C   0  0  0  0  0  0  0  0  0  0  0  0
   18.9582   -8.0669    6.9580 C   0  0  0  0  0  0  0  0  0  0  0  0
   17.9561   -8.8382    7.4481 N   0  0  0  0  0  0  0  0  0  0  0  0
   17.1121   -9.5684    6.7398 N   0  0  0  0  0  0  0  0  0  0  0  0
   16.2714  -10.1816    7.6104 C   0  0  0  0  0  0  0  0  0  0  0  0
   18.1075  -10.1388   13.9470 C   0  0  0  0  0  0  0  0  0  0  0  0
   17.8010  -12.6379   15.7638 C   0  0  0  0  0  0  0  0  0  0  0  0
   18.2814  -11.3232   16.1590 N   0  0  0  0  0  0  0  0  0  0  0  0
   18.4417  -10.2253   15.3997 C   0  0  0  0  0  0  0  0  0  0  0  0
   18.8923   -9.1837   16.1292 N   0  0  0  0  0  0  0  0  0  0  0  0
   19.0362   -9.6150   17.3762 N   0  0  0  0  0  0  0  0  0  0  0  0
   18.6626  -10.9076   17.3762 C   0  0  0  0  0  0  0  0  0  0  0  0
   18.6686  -11.6368   18.4031 O   0  0  0  0  0  0  0  0  0  0  0  0
   19.3533   -9.0927   18.1481 H   0  0  0  0  0  0  0  0  0  0  0  0
 20 21  1  0  0  0
 21 22  1  0  0  0
 22 23  2  0  0  0
 23 24  1  0  0  0
 24 25  1  0  0  0
 25 26  2  0  0  0
 22 19  1  0  0  0
  1 19  1  0  0  0
  1  2  1  0  0  0
  2  3  1  0  0  0
  3  4  1  0  0  0
  4  5  1  0  0  0
  5  6  1  0  0  0
  6  7  1  0  0  0
  7  9  1  0  0  0
  9 10  1  0  0  0
 10 11  2  0  0  0
 11 12  1  0  0  0
 12 13  2  0  0  0
 13 14  1  0  0  0
 14 15  2  0  0  0
 15 16  1  0  0  0
 16 17  1  0  0  0
 17 18  2  0  0  0
 25 21  1  0  0  0
  6  1  1  0  0  0
 18 10  1  0  0  0
 16 11  1  0  0  0
 24 27  1  0  0  0
  7  8  1  0  0  0
M  END
>  <minimizedAffinity>
-2.63327

>  <minimizedRMSD>
2.21241

$$$$
CSSS07590203719


 31 33  0  0  0  0  0  0  0  0999 V2000
   18.3494  -11.1913   13.9889 C   0  0  0  0  0  0  0  0  0  0  0  0
   18.5842  -12.6793   14.1724 C   0  0  0  0  0  0  0  0  0  0  0  0
   19.4586  -10.4928   13.2978 C   0  0  0  0  0  0  0  0  0  0  0  0
   18.6825  -10.1301   12.0990 N   0  0  0  0  0  0  0  0  0  0  0  0
   17.5750  -10.8277   12.7770 C   0  0  0  0  0  0  0  0  0  0  0  0
   18.9284   -9.4283   10.8781 C   0  0  0  0  0  0  0  0  0  0  0  0
   20.0806   -8.9632   10.6687 O   0  0  0  0  0  0  0  0  0  0  0  0
   17.8586   -9.2430    9.8697 C   0  0  0  0  0  0  0  0  0  0  0  0
   18.1062   -8.7170    8.5947 C   0  0  0  0  0  0  0  0  0  0  0  0
   19.2675   -8.3052    8.0626 N   0  0  0  0  0  0  0  0  0  0  0  0
   18.8963   -7.9023    6.8176 C   0  0  0  0  0  0  0  0  0  0  0  0
   17.5724   -8.0390    6.5442 N   0  0  0  0  0  0  0  0  0  0  0  0
   17.1068   -8.5560    7.6885 C   0  0  0  0  0  0  0  0  0  0  0  0
   15.8200   -8.8886    7.9536 N   0  0  0  0  0  0  0  0  0  0  0  0
   15.5143   -9.4067    9.1803 C   0  0  0  0  0  0  0  0  0  0  0  0
   16.5217   -9.5914   10.1527 C   0  0  0  0  0  0  0  0  0  0  0  0
   17.0829   -7.8160    5.7197 H   0  0  0  0  0  0  0  0  0  0  0  0
   19.8626   -7.3515    5.8272 C   0  0  0  0  0  0  0  0  0  0  0  0
   19.6154   -6.0059    5.6300 F   0  0  0  0  0  0  0  0  0  0  0  0
   21.1545   -7.5233    6.2872 F   0  0  0  0  0  0  0  0  0  0  0  0
   16.5686  -10.0450   15.4029 C   0  0  0  0  0  0  0  0  0  0  0  0
   15.6779  -10.2606   14.5383 O   0  0  0  0  0  0  0  0  0  0  0  0
   17.9136  -10.4886   15.1891 N   0  0  0  0  0  0  0  0  0  0  0  0
   18.5801  -10.3090   15.8911 H   0  0  0  0  0  0  0  0  0  0  0  0
   16.2069   -9.3212   16.6687 C   0  0  0  0  0  0  0  0  0  0  0  0
   14.5112   -7.6603   16.8389 C   0  0  0  0  0  0  0  0  0  0  0  0
   15.8771   -7.9125   16.4002 N   0  0  0  0  0  0  0  0  0  0  0  0
   15.8526   -7.7035   14.9583 C   0  0  0  0  0  0  0  0  0  0  0  0
   17.3772   -9.4349   17.6468 C   0  0  0  0  0  0  0  0  0  0  0  0
   18.4285   -8.6158   17.2337 O   0  0  0  0  0  0  0  0  0  0  0  0
   18.7266   -8.8919   16.3529 H   0  0  0  0  0  0  0  0  0  0  0  0
 26 27  1  0  0  0
 27 28  1  0  0  0
 27 25  1  0  0  0
 25 29  1  0  0  0
 29 30  1  0  0  0
 25 21  1  0  0  0
 21 22  2  0  0  0
 21 23  1  0  0  0
 23  1  1  0  0  0
  1  2  1  0  0  0
  1  3  1  0  0  0
  3  4  1  0  0  0
  4  5  1  0  0  0
  4  6  1  0  0  0
  6  7  2  0  0  0
  6  8  1  0  0  0
  8  9  2  0  0  0
  9 10  1  0  0  0
 10 11  2  0  0  0
 11 12  1  0  0  0
 12 13  1  0  0  0
 13 14  2  0  0  0
 14 15  1  0  0  0
 15 16  2  0  0  0
 11 18  1  0  0  0
 18 19  1  0  0  0
 18 20  1  0  0  0
  5  1  1  0  0  0
 16  8  1  0  0  0
 13  9  1  0  0  0
 30 31  1  0  0  0
 23 24  1  0  0  0
 12 17  1  0  0  0
M  END
>  <minimizedAffinity>
-2.61607

>  <minimizedRMSD>
1.53717

$$$$
CSSS20447607418


 34 37  0  0  0  0  0  0  0  0999 V2000
   17.0143  -10.1484   11.1768 C   0  0  0  0  0  0  0  0  0  0  0  0
   17.5402   -9.5992    9.8988 C   0  0  0  0  0  0  0  0  0  0  0  0
   17.7332   -8.2114    9.7553 C   0  0  0  0  0  0  0  0  0  0  0  0
   18.2009   -7.7696    8.5233 C   0  0  0  0  0  0  0  0  0  0  0  0
   18.4532   -8.6362    7.5050 C   0  0  0  0  0  0  0  0  0  0  0  0
   18.2657   -9.9744    7.6211 N   0  0  0  0  0  0  0  0  0  0  0  0
   17.8072  -10.4673    8.8121 C   0  0  0  0  0  0  0  0  0  0  0  0
   18.8879   -7.9627    6.4291 N   0  0  0  0  0  0  0  0  0  0  0  0
   18.9241   -6.6662    6.7281 N   0  0  0  0  0  0  0  0  0  0  0  0
   18.5054   -6.5257    8.0110 C   0  0  0  0  0  0  0  0  0  0  0  0
   18.4012   -5.2224    8.7210 C   0  0  0  0  0  0  0  0  0  0  0  0
   19.2615   -8.5340    5.1423 C   0  0  0  0  0  0  0  0  0  0  0  0
   18.1629   -8.2956    4.1043 C   0  0  0  0  0  0  0  0  0  0  0  0
   18.7607   -8.4934    2.7208 C   0  0  0  0  0  0  0  0  0  0  0  0
   20.4533   -8.0209    2.8828 S   0  0  0  0  0  0  0  0  0  0  0  0
   21.3722   -9.0735    2.3311 O   0  0  0  0  0  0  0  0  0  0  0  0
   20.7179   -6.6881    2.2421 O   0  0  0  0  0  0  0  0  0  0  0  0
   20.5616   -7.9230    4.6401 C   0  0  0  0  0  0  0  0  0  0  0  0
   17.9952   -9.9506   12.2339 N   0  0  0  0  0  0  0  0  0  0  0  0
   18.9035   -9.6685   11.9796 H   0  0  0  0  0  0  0  0  0  0  0  0
   16.9502   -9.1929   14.3602 C   0  0  0  0  0  0  0  0  0  0  0  0
   16.6969   -9.4316   15.7370 C   0  0  0  0  0  0  0  0  0  0  0  0
   17.1969  -10.5932   16.3402 C   0  0  0  0  0  0  0  0  0  0  0  0
   17.9381  -11.5172   15.6126 C   0  0  0  0  0  0  0  0  0  0  0  0
   18.5497  -12.9594   16.3920 Cl  0  0  0  0  0  0  0  0  0  0  0  0
   18.1923  -11.2932   14.2648 C   0  0  0  0  0  0  0  0  0  0  0  0
   17.7103  -10.1443   13.6234 C   0  0  0  0  0  0  0  0  0  0  0  0
   15.9148   -8.4947   16.5825 C   0  0  0  0  0  0  0  0  0  0  0  0
   16.1523   -8.4303   17.9867 N   0  0  0  0  0  0  0  0  0  0  0  0
   15.0345   -7.7451   16.0836 O   0  0  0  0  0  0  0  0  0  0  0  0
   16.8359   -9.0076   18.3973 H   0  0  0  0  0  0  0  0  0  0  0  0
   15.6327   -7.8084   18.5458 H   0  0  0  0  0  0  0  0  0  0  0  0
   15.3670   -7.9460   12.8491 C   0  0  0  0  0  0  0  0  0  0  0  0
   16.4343   -8.0165   13.7839 O   0  0  0  0  0  0  0  0  0  0  0  0
 33 34  1  0  0  0
 34 21  1  0  0  0
 21 22  2  0  0  0
 22 23  1  0  0  0
 23 24  2  0  0  0
 24 25  1  0  0  0
 24 26  1  0  0  0
 26 27  2  0  0  0
 27 19  1  0  0  0
 19  1  1  0  0  0
  1  2  1  0  0  0
  2  3  2  0  0  0
  3  4  1  0  0  0
  4  5  2  0  0  0
  5  6  1  0  0  0
  6  7  2  0  0  0
  5  8  1  0  0  0
  8  9  1  0  0  0
  9 10  2  0  0  0
 10 11  1  0  0  0
  8 12  1  0  0  0
 12 13  1  0  0  0
 13 14  1  0  0  0
 14 15  1  0  0  0
 15 16  2  0  0  0
 15 17  2  0  0  0
 15 18  1  0  0  0
 22 28  1  0  0  0
 28 29  1  0  0  0
 28 30  2  0  0  0
 27 21  1  0  0  0
  7  2  1  0  0  0
 18 12  1  0  0  0
 10  4  1  0  0  0
 19 20  1  0  0  0
 29 31  1  0  0  0
 29 32  1  0  0  0
M  END
>  <minimizedAffinity>
-2.57970

>  <minimizedRMSD>
2.20568

$$$$
CSC028163431 32823940 CSSS00028163431 MCULE-2599600847 MolPort-005-705-580 PubChem-40058898 Z367550700 ZINC000032823940


 28 31  0  0  0  0  0  0  0  0999 V2000
   18.2688   -9.8442   11.9848 N   0  0  0  0  0  0  0  0  0  0  0  0
   19.0218   -9.2211   11.8667 H   0  0  0  0  0  0  0  0  0  0  0  0
   13.5473  -10.7223   11.0238 C   0  0  0  0  0  0  0  0  0  0  0  0
   14.8637  -10.1841   10.5933 C   0  0  0  0  0  0  0  0  0  0  0  0
   14.9959   -9.6280    9.3546 N   0  0  0  0  0  0  0  0  0  0  0  0
   16.2041   -9.1433    8.9814 C   0  0  0  0  0  0  0  0  0  0  0  0
   17.3050   -9.1977    9.8222 C   0  0  0  0  0  0  0  0  0  0  0  0
   18.4299   -8.6390    9.2212 C   0  0  0  0  0  0  0  0  0  0  0  0
   18.1998   -8.1773    7.9747 C   0  0  0  0  0  0  0  0  0  0  0  0
   16.5946   -8.4138    7.5001 S   0  0  0  0  0  0  0  0  0  0  0  0
   19.3811   -7.5836    7.3319 C   0  0  0  0  0  0  0  0  0  0  0  0
   20.4637   -7.7472    8.4227 C   0  0  0  0  0  0  0  0  0  0  0  0
   19.8259   -8.4380    9.6509 C   0  0  0  0  0  0  0  0  0  0  0  0
   17.1616   -9.7673   11.0857 C   0  0  0  0  0  0  0  0  0  0  0  0
   15.9346  -10.2499   11.4421 N   0  0  0  0  0  0  0  0  0  0  0  0
   18.3211  -10.8120   13.0684 C   0  0  0  0  0  0  0  0  0  0  0  0
   18.3274  -10.0998   14.3742 C   0  0  0  0  0  0  0  0  0  0  0  0
   17.1196   -9.7314   14.9761 C   0  0  0  0  0  0  0  0  0  0  0  0
   17.1234   -9.0358   16.1903 C   0  0  0  0  0  0  0  0  0  0  0  0
   18.3396   -8.7095   16.8010 C   0  0  0  0  0  0  0  0  0  0  0  0
   19.5474   -9.0705   16.1964 C   0  0  0  0  0  0  0  0  0  0  0  0
   19.5414   -9.7623   14.9816 C   0  0  0  0  0  0  0  0  0  0  0  0
   15.6072   -8.5884   16.9503 S   0  0  0  0  0  0  0  0  0  0  0  0
   14.4393   -9.8326   16.6853 N   0  0  0  0  0  0  0  0  0  0  0  0
   15.8153   -8.4027   18.4271 O   0  0  0  0  0  0  0  0  0  0  0  0
   15.1088   -7.2978   16.3635 O   0  0  0  0  0  0  0  0  0  0  0  0
   14.7787  -10.7080   17.0840 H   0  0  0  0  0  0  0  0  0  0  0  0
   14.2899   -9.9508   15.6832 H   0  0  0  0  0  0  0  0  0  0  0  0
  3  4  1  0  0  0
  4  5  2  0  0  0
  5  6  1  0  0  0
  6  7  2  0  0  0
  7  8  1  0  0  0
  8  9  2  0  0  0
  9 10  1  0  0  0
  9 11  1  0  0  0
 11 12  1  0  0  0
 12 13  1  0  0  0
  7 14  1  0  0  0
 14  1  1  0  0  0
  1 16  1  0  0  0
 16 17  1  0  0  0
 17 18  2  0  0  0
 18 19  1  0  0  0
 19 23  1  0  0  0
 23 24  1  0  0  0
 23 25  2  0  0  0
 23 26  2  0  0  0
 19 20  2  0  0  0
 20 21  1  0  0  0
 21 22  2  0  0  0
 14 15  2  0  0  0
 15  4  1  0  0  0
 10  6  1  0  0  0
 22 17  1  0  0  0
 13  8  1  0  0  0
  1  2  1  0  0  0
 24 27  1  0  0  0
 24 28  1  0  0  0
M  END
>  <minimizedAffinity>
-2.56282

>  <minimizedRMSD>
1.68700

$$$$
CSC025912090 CSSS00025912090 MCULE-5654616529 MolPort-005-666-255 PubChem-17538662 Z17142803


 32 34  0  0  0  0  0  0  0  0999 V2000
   16.0862   -9.6043   15.7450 N   0  0  0  0  0  0  0  0  0  0  0  0
   16.3705   -9.0182   14.4592 C   0  0  0  0  0  0  0  0  0  0  0  0
   15.4519   -8.4373   13.8214 O   0  0  0  0  0  0  0  0  0  0  0  0
   17.1149  -10.2649   16.5351 C   0  0  0  0  0  0  0  0  0  0  0  0
   17.7324   -9.0765   13.8289 C   0  0  0  0  0  0  0  0  0  0  0  0
   18.8294   -8.8649   14.8550 C   0  0  0  0  0  0  0  0  0  0  0  0
   17.9970  -10.6291   12.9124 S   0  0  0  0  0  0  0  0  0  0  0  0
   16.8532  -10.1731   11.6066 C   0  0  0  0  0  0  0  0  0  0  0  0
   17.2470   -9.4939   10.4389 C   0  0  0  0  0  0  0  0  0  0  0  0
   16.2671   -9.1914    9.5073 C   0  0  0  0  0  0  0  0  0  0  0  0
   16.9163   -8.3831    8.1905 S   0  0  0  0  0  0  0  0  0  0  0  0
   18.4927   -8.4038    8.7950 C   0  0  0  0  0  0  0  0  0  0  0  0
   18.5235   -9.0456   10.0364 C   0  0  0  0  0  0  0  0  0  0  0  0
   19.7866   -9.2197   10.8125 C   0  0  0  0  0  0  0  0  0  0  0  0
   19.6645   -7.8158    8.0877 C   0  0  0  0  0  0  0  0  0  0  0  0
   14.9672   -9.5251    9.6811 N   0  0  0  0  0  0  0  0  0  0  0  0
   14.6034  -10.1846   10.8141 C   0  0  0  0  0  0  0  0  0  0  0  0
   13.1819  -10.5618   11.0269 C   0  0  0  0  0  0  0  0  0  0  0  0
   15.5379  -10.5007   11.7567 N   0  0  0  0  0  0  0  0  0  0  0  0
   14.7523   -9.4983   16.3216 C   0  0  0  0  0  0  0  0  0  0  0  0
   13.4677   -8.0151   17.9080 N   0  0  0  0  0  0  0  0  0  0  0  0
   14.6188   -8.2221   17.0794 C   0  0  0  0  0  0  0  0  0  0  0  0
   15.5334   -7.3598   17.0019 O   0  0  0  0  0  0  0  0  0  0  0  0
   12.8043   -8.7422   17.9277 H   0  0  0  0  0  0  0  0  0  0  0  0
   13.7730   -6.7296   19.9846 C   0  0  0  0  0  0  0  0  0  0  0  0
   13.1776   -6.8608   18.7128 C   0  0  0  0  0  0  0  0  0  0  0  0
   12.3007   -5.8611   18.2630 C   0  0  0  0  0  0  0  0  0  0  0  0
   12.0145   -4.7527   19.0632 C   0  0  0  0  0  0  0  0  0  0  0  0
   12.5993   -4.6338   20.3250 C   0  0  0  0  0  0  0  0  0  0  0  0
   13.4735   -5.6212   20.7845 C   0  0  0  0  0  0  0  0  0  0  0  0
   15.7328   -7.1343   21.4472 C   0  0  0  0  0  0  0  0  0  0  0  0
   14.7049   -7.7664   20.5263 C   0  0  0  0  0  0  0  0  0  0  0  0
 31 32  1  0  0  0
 32 25  1  0  0  0
 25 26  2  0  0  0
 26 21  1  0  0  0
 21 22  1  0  0  0
 22 20  1  0  0  0
 20  1  1  0  0  0
  1  2  1  0  0  0
  2  5  1  0  0  0
  5  7  1  0  0  0
  7  8  1  0  0  0
  8  9  1  0  0  0
  9 10  2  0  0  0
 10 11  1  0  0  0
 11 12  1  0  0  0
 12 13  2  0  0  0
 13 14  1  0  0  0
 12 15  1  0  0  0
 10 16  1  0  0  0
 16 17  2  0  0  0
 17 18  1  0  0  0
 17 19  1  0  0  0
  5  6  1  0  0  0
  2  3  2  0  0  0
  1  4  1  0  0  0
 22 23  2  0  0  0
 26 27  1  0  0  0
 27 28  2  0  0  0
 28 29  1  0  0  0
 29 30  2  0  0  0
 30 25  1  0  0  0
 19  8  2  0  0  0
 13  9  1  0  0  0
 21 24  1  0  0  0
M  END
>  <minimizedAffinity>
-2.49058

>  <minimizedRMSD>
2.24637

$$$$
CSC075809844 CSSS00075809844 MCULE-5281901299 MolPort-046-115-251 PubChem-136553905 Z2640854812


 31 33  0  0  0  0  0  0  0  0999 V2000
   16.9393  -10.7069   14.9334 C   0  0  0  0  0  0  0  0  0  0  0  0
   18.4379  -11.0003   14.8254 C   0  0  0  0  0  0  0  0  0  0  0  0
   18.7967  -11.4467   13.4100 C   0  0  0  0  0  0  0  0  0  0  0  0
   18.3770  -10.3802   12.4041 C   0  0  0  0  0  0  0  0  0  0  0  0
   16.9549  -10.0925   12.5698 N   0  0  0  0  0  0  0  0  0  0  0  0
   16.4861   -9.6850   13.8907 C   0  0  0  0  0  0  0  0  0  0  0  0
   16.0321  -10.2339   11.4797 C   0  0  0  0  0  0  0  0  0  0  0  0
   14.8132   -9.9585   11.6429 O   0  0  0  0  0  0  0  0  0  0  0  0
   16.4763  -10.3524   16.3578 C   0  0  0  0  0  0  0  0  0  0  0  0
   16.1485   -8.7474   18.2677 C   0  0  0  0  0  0  0  0  0  0  0  0
   16.5171   -8.8741   16.7958 C   0  0  0  0  0  0  0  0  0  0  0  0
   15.4436   -8.1409   16.0134 C   0  0  0  0  0  0  0  0  0  0  0  0
   17.8485   -8.2285   16.4950 C   0  0  0  0  0  0  0  0  0  0  0  0
   18.9921   -8.4844   17.3077 N   0  0  0  0  0  0  0  0  0  0  0  0
   17.9615   -7.4529   15.5077 O   0  0  0  0  0  0  0  0  0  0  0  0
   18.9204   -9.0877   18.0824 H   0  0  0  0  0  0  0  0  0  0  0  0
   19.8532   -8.0577   17.0941 H   0  0  0  0  0  0  0  0  0  0  0  0
   16.4829  -10.7411   10.1465 C   0  0  0  0  0  0  0  0  0  0  0  0
   15.7905   -9.9883    9.0166 C   0  0  0  0  0  0  0  0  0  0  0  0
   16.7624   -9.4658    8.0658 N   0  0  0  0  0  0  0  0  0  0  0  0
   16.7540   -9.6338    6.7198 C   0  0  0  0  0  0  0  0  0  0  0  0
   17.8157   -9.0300    6.1127 N   0  0  0  0  0  0  0  0  0  0  0  0
   18.4880   -8.4820    7.1426 C   0  0  0  0  0  0  0  0  0  0  0  0
   19.6608   -7.7408    7.1399 C   0  0  0  0  0  0  0  0  0  0  0  0
   20.3499   -7.4441    5.9306 N   0  0  0  0  0  0  0  0  0  0  0  0
   20.1390   -7.3012    8.3418 N   0  0  0  0  0  0  0  0  0  0  0  0
   19.4833   -7.5826    9.5145 C   0  0  0  0  0  0  0  0  0  0  0  0
   18.3276   -8.3146    9.5064 N   0  0  0  0  0  0  0  0  0  0  0  0
   17.8612   -8.7448    8.3088 C   0  0  0  0  0  0  0  0  0  0  0  0
   19.9957   -7.7664    5.0704 H   0  0  0  0  0  0  0  0  0  0  0  0
   21.1808   -6.9166    5.9542 H   0  0  0  0  0  0  0  0  0  0  0  0
 10 11  1  0  0  0
 11 12  1  0  0  0
 11  9  1  0  0  0
  9  1  1  0  0  0
  1  2  1  0  0  0
  2  3  1  0  0  0
  3  4  1  0  0  0
  4  5  1  0  0  0
  5  6  1  0  0  0
  5  7  1  0  0  0
  7  8  2  0  0  0
  7 18  1  0  0  0
 18 19  1  0  0  0
 19 20  1  0  0  0
 20 21  1  0  0  0
 21 22  2  0  0  0
 22 23  1  0  0  0
 23 24  2  0  0  0
 24 25  1  0  0  0
 24 26  1  0  0  0
 26 27  2  0  0  0
 27 28  1  0  0  0
 28 29  2  0  0  0
 11 13  1  0  0  0
 13 14  1  0  0  0
 13 15  2  0  0  0
  6  1  1  0  0  0
 29 20  1  0  0  0
 29 23  1  0  0  0
 25 30  1  0  0  0
 25 31  1  0  0  0
 14 16  1  0  0  0
 14 17  1  0  0  0
M  END
>  <minimizedAffinity>
-2.45676

>  <minimizedRMSD>
2.69434

$$$$
CSC026130580 58166297 CSSS00026130580 MCULE-5376680127 MolPort-009-152-008 PubChem-47016816 Z220326386 ZINC000058166297 ZINC58166297


 33 38  0  0  0  0  0  0  0  0999 V2000
   17.9474   -9.2676   10.1405 N   0  0  0  0  0  0  0  0  0  0  0  0
   16.5928   -8.8328   10.4748 C   0  0  0  0  0  0  0  0  0  0  0  0
   16.4622   -8.6658   11.9853 C   0  0  0  0  0  0  0  0  0  0  0  0
   16.9019   -9.9471   12.6959 C   0  0  0  0  0  0  0  0  0  0  0  0
   18.3360  -10.3165   12.3135 C   0  0  0  0  0  0  0  0  0  0  0  0
   18.4512  -10.4709   10.8007 C   0  0  0  0  0  0  0  0  0  0  0  0
   16.7792   -9.7984   14.1443 N   0  0  0  0  0  0  0  0  0  0  0  0
   16.1295   -8.8135   14.8101 C   0  0  0  0  0  0  0  0  0  0  0  0
   15.5294   -7.8695   14.2309 O   0  0  0  0  0  0  0  0  0  0  0  0
   16.1796   -8.9297   16.1623 N   0  0  0  0  0  0  0  0  0  0  0  0
   16.9035  -10.0534   16.3304 C   0  0  0  0  0  0  0  0  0  0  0  0
   17.2684  -10.6524   17.5335 C   0  0  0  0  0  0  0  0  0  0  0  0
   18.0329  -11.8323   17.4651 C   0  0  0  0  0  0  0  0  0  0  0  0
   18.4077  -12.3757   16.2158 C   0  0  0  0  0  0  0  0  0  0  0  0
   18.0234  -11.7470   15.0174 C   0  0  0  0  0  0  0  0  0  0  0  0
   17.2667  -10.5800   15.1223 C   0  0  0  0  0  0  0  0  0  0  0  0
   15.7862   -8.3415   16.8467 H   0  0  0  0  0  0  0  0  0  0  0  0
   18.5663   -8.4312    5.5516 N   0  0  0  0  0  0  0  0  0  0  0  0
   17.5317   -9.2490    5.7238 N   0  0  0  0  0  0  0  0  0  0  0  0
   17.3562   -9.4819    7.0510 C   0  0  0  0  0  0  0  0  0  0  0  0
   18.3313   -8.7687    7.7253 C   0  0  0  0  0  0  0  0  0  0  0  0
   18.6670   -8.6176    9.0751 C   0  0  0  0  0  0  0  0  0  0  0  0
   19.7443   -7.8222    9.3598 N   0  0  0  0  0  0  0  0  0  0  0  0
   20.4619   -7.1945    8.3756 C   0  0  0  0  0  0  0  0  0  0  0  0
   20.1207   -7.3491    7.0627 N   0  0  0  0  0  0  0  0  0  0  0  0
   19.0580   -8.1365    6.7674 C   0  0  0  0  0  0  0  0  0  0  0  0
   20.3350   -6.7192    0.5183 F   0  0  0  0  0  0  0  0  0  0  0  0
   19.9099   -7.1304    1.7369 C   0  0  0  0  0  0  0  0  0  0  0  0
   20.4143   -6.5289    2.8924 C   0  0  0  0  0  0  0  0  0  0  0  0
   19.9754   -6.9536    4.1496 C   0  0  0  0  0  0  0  0  0  0  0  0
   19.0280   -7.9837    4.2641 C   0  0  0  0  0  0  0  0  0  0  0  0
   18.5284   -8.5802    3.0961 C   0  0  0  0  0  0  0  0  0  0  0  0
   18.9669   -8.1561    1.8384 C   0  0  0  0  0  0  0  0  0  0  0  0
 27 28  1  0  0  0
 28 29  2  0  0  0
 29 30  1  0  0  0
 30 31  2  0  0  0
 31 32  1  0  0  0
 31 18  1  0  0  0
 32 33  2  0  0  0
 33 28  1  0  0  0
 18 19  1  0  0  0
 19 20  2  0  0  0
 20 21  1  0  0  0
 21 22  2  0  0  0
 22 23  1  0  0  0
 22  1  1  0  0  0
 23 24  2  0  0  0
 24 25  1  0  0  0
 25 26  2  0  0  0
 26 18  1  0  0  0
 26 21  1  0  0  0
  1  2  1  0  0  0
  2  3  1  0  0  0
  3  4  1  0  0  0
  4  5  1  0  0  0
  4  7  1  0  0  0
  5  6  1  0  0  0
  6  1  1  0  0  0
  7  8  1  0  0  0
  8  9  2  0  0  0
  8 10  1  0  0  0
 10 11  1  0  0  0
 11 12  2  0  0  0
 12 13  1  0  0  0
 13 14  2  0  0  0
 14 15  1  0  0  0
 15 16  2  0  0  0
 16  7  1  0  0  0
 16 11  1  0  0  0
 10 17  1  0  0  0
M  END
>  <minimizedAffinity>
-2.43802

>  <minimizedRMSD>
2.73487

$$$$
CSC028232092 29817110 CSSS00028232092 MCULE-6366165266 MolPort-009-626-915 PubChem-37065151 Z284001278 ZINC000029817110 ZINC29817110


 33 36  0  0  0  0  0  0  0  0999 V2000
   17.2706   -9.0685   13.0956 N   0  0  0  0  0  0  0  0  0  0  0  0
   16.6053   -9.5371   11.9154 C   0  0  0  0  0  0  0  0  0  0  0  0
   15.5560  -10.2307   12.0123 O   0  0  0  0  0  0  0  0  0  0  0  0
   17.9392   -8.3545   12.9835 H   0  0  0  0  0  0  0  0  0  0  0  0
   17.1195   -9.1653   10.5865 C   0  0  0  0  0  0  0  0  0  0  0  0
   16.2971   -9.2349    9.4565 C   0  0  0  0  0  0  0  0  0  0  0  0
   16.7795   -8.8950    8.2316 N   0  0  0  0  0  0  0  0  0  0  0  0
   18.0659   -8.4794    8.0469 C   0  0  0  0  0  0  0  0  0  0  0  0
   18.5276   -8.1520    6.7946 N   0  0  0  0  0  0  0  0  0  0  0  0
   19.8012   -7.6542    6.6551 C   0  0  0  0  0  0  0  0  0  0  0  0
   20.2226   -7.2679    5.5313 O   0  0  0  0  0  0  0  0  0  0  0  0
   20.6273   -7.5630    7.7297 N   0  0  0  0  0  0  0  0  0  0  0  0
   20.2245   -7.9250    8.9713 C   0  0  0  0  0  0  0  0  0  0  0  0
   21.0275   -7.8301    9.9381 O   0  0  0  0  0  0  0  0  0  0  0  0
   18.9208   -8.3840    9.1635 C   0  0  0  0  0  0  0  0  0  0  0  0
   18.4396   -8.7334   10.4297 C   0  0  0  0  0  0  0  0  0  0  0  0
   21.5431   -7.2250    7.6026 H   0  0  0  0  0  0  0  0  0  0  0  0
   17.6274   -8.2222    5.6280 C   0  0  0  0  0  0  0  0  0  0  0  0
   18.4193   -8.2175    4.3244 C   0  0  0  0  0  0  0  0  0  0  0  0
   17.8527   -9.5118    4.8457 C   0  0  0  0  0  0  0  0  0  0  0  0
   17.3141  -10.8875   14.7958 C   0  0  0  0  0  0  0  0  0  0  0  0
   17.0749  -11.2927   16.1190 C   0  0  0  0  0  0  0  0  0  0  0  0
   16.6017  -10.3835   17.0665 C   0  0  0  0  0  0  0  0  0  0  0  0
   16.3680   -9.0533   16.7129 C   0  0  0  0  0  0  0  0  0  0  0  0
   16.5976   -8.6457   15.3919 C   0  0  0  0  0  0  0  0  0  0  0  0
   17.0434   -9.5529   14.4252 C   0  0  0  0  0  0  0  0  0  0  0  0
   15.8970   -8.1443   17.7171 N   0  0  0  0  0  0  0  0  0  0  0  0
   14.5530   -7.6761   17.8868 C   0  0  0  0  0  0  0  0  0  0  0  0
   14.2468   -6.7298   18.9906 C   0  0  0  0  0  0  0  0  0  0  0  0
   13.6271   -8.0502   17.1199 O   0  0  0  0  0  0  0  0  0  0  0  0
   16.5659   -7.8070   18.3559 H   0  0  0  0  0  0  0  0  0  0  0  0
   18.3545  -13.0605   14.2163 C   0  0  0  0  0  0  0  0  0  0  0  0
   17.8454  -11.7824   13.8599 O   0  0  0  0  0  0  0  0  0  0  0  0
 32 33  1  0  0  0
 33 21  1  0  0  0
 21 22  2  0  0  0
 22 23  1  0  0  0
 23 24  2  0  0  0
 24 27  1  0  0  0
 24 25  1  0  0  0
 27 28  1  0  0  0
 28 29  1  0  0  0
 28 30  2  0  0  0
 25 26  2  0  0  0
 26  1  1  0  0  0
 26 21  1  0  0  0
  1  2  1  0  0  0
  2  3  2  0  0  0
  2  5  1  0  0  0
  5  6  2  0  0  0
  6  7  1  0  0  0
  7  8  2  0  0  0
  8  9  1  0  0  0
  9 18  1  0  0  0
  9 10  1  0  0  0
 18 19  1  0  0  0
 19 20  1  0  0  0
 20 18  1  0  0  0
 10 11  2  0  0  0
 10 12  1  0  0  0
 12 13  1  0  0  0
 13 14  2  0  0  0
 13 15  1  0  0  0
 15 16  2  0  0  0
 15  8  1  0  0  0
 16  5  1  0  0  0
 27 31  1  0  0  0
  1  4  1  0  0  0
 12 17  1  0  0  0
M  END
>  <minimizedAffinity>
-2.43262

>  <minimizedRMSD>
1.26863

$$$$
CSC027919280 40127774 CSSS00027919280 MCULE-6356935364 MolPort-009-645-896 PubChem-45901750 Z441204922 ZINC000040127774


 32 34  0  0  0  0  0  0  0  0999 V2000
   18.4372   -9.9741   11.9299 C   0  0  0  0  0  0  0  0  0  0  0  0
   17.0523   -9.7593   12.4461 C   0  0  0  0  0  0  0  0  0  0  0  0
   16.0808   -9.8491   11.6476 O   0  0  0  0  0  0  0  0  0  0  0  0
   16.8142   -9.4585   13.8710 C   0  0  0  0  0  0  0  0  0  0  0  0
   17.2568  -10.3461   14.8623 C   0  0  0  0  0  0  0  0  0  0  0  0
   17.0323  -10.0715   16.2143 C   0  0  0  0  0  0  0  0  0  0  0  0
   17.4677  -10.9481   17.1533 F   0  0  0  0  0  0  0  0  0  0  0  0
   16.3599   -8.8984   16.5881 C   0  0  0  0  0  0  0  0  0  0  0  0
   15.9135   -8.0112   15.6029 C   0  0  0  0  0  0  0  0  0  0  0  0
   16.1406   -8.2888   14.2526 C   0  0  0  0  0  0  0  0  0  0  0  0
   16.0843   -8.6025   18.0272 C   0  0  0  0  0  0  0  0  0  0  0  0
   15.0272   -7.5173   18.1646 C   0  0  0  0  0  0  0  0  0  0  0  0
   13.8042   -8.0767   18.7197 N   0  0  0  0  0  0  0  0  0  0  0  0
   12.5186   -7.5488   18.3951 C   0  0  0  0  0  0  0  0  0  0  0  0
   11.3018   -8.1600   18.9897 C   0  0  0  0  0  0  0  0  0  0  0  0
   12.4047   -6.5758   17.6033 O   0  0  0  0  0  0  0  0  0  0  0  0
   13.8652   -8.8413   19.3369 H   0  0  0  0  0  0  0  0  0  0  0  0
   19.2564   -8.3764   11.6505 S   0  0  0  0  0  0  0  0  0  0  0  0
   17.6031   -9.1987    8.0881 C   0  0  0  0  0  0  0  0  0  0  0  0
   18.4590   -8.5590    7.1815 C   0  0  0  0  0  0  0  0  0  0  0  0
   19.5704   -7.8568    7.6929 C   0  0  0  0  0  0  0  0  0  0  0  0
   20.4465   -7.2053    6.8203 C   0  0  0  0  0  0  0  0  0  0  0  0
   20.2213   -7.2495    5.4410 C   0  0  0  0  0  0  0  0  0  0  0  0
   19.1204   -7.9449    4.9307 C   0  0  0  0  0  0  0  0  0  0  0  0
   18.2398   -8.5991    5.7977 C   0  0  0  0  0  0  0  0  0  0  0  0
   19.7873   -7.8156    9.0320 N   0  0  0  0  0  0  0  0  0  0  0  0
   18.9461   -8.4452    9.8932 C   0  0  0  0  0  0  0  0  0  0  0  0
   17.8678   -9.1253    9.4215 N   0  0  0  0  0  0  0  0  0  0  0  0
   16.4620   -9.9246    7.6205 N   0  0  0  0  0  0  0  0  0  0  0  0
   16.2803   -9.9539    6.6534 H   0  0  0  0  0  0  0  0  0  0  0  0
   16.2758  -11.8098    9.1319 C   0  0  0  0  0  0  0  0  0  0  0  0
   15.5622  -10.6200    8.5256 C   0  0  0  0  0  0  0  0  0  0  0  0
 31 32  1  0  0  0
 32 29  1  0  0  0
 29 19  1  0  0  0
 19 20  2  0  0  0
 20 21  1  0  0  0
 21 22  1  0  0  0
 22 23  2  0  0  0
 23 24  1  0  0  0
 24 25  2  0  0  0
 21 26  2  0  0  0
 26 27  1  0  0  0
 27 18  1  0  0  0
 18  1  1  0  0  0
  1  2  1  0  0  0
  2  4  1  0  0  0
  4  5  2  0  0  0
  5  6  1  0  0  0
  6  7  1  0  0  0
  6  8  2  0  0  0
  8 11  1  0  0  0
 11 12  1  0  0  0
 12 13  1  0  0  0
 13 14  1  0  0  0
 14 15  1  0  0  0
 14 16  2  0  0  0
  8  9  1  0  0  0
  9 10  2  0  0  0
  2  3  2  0  0  0
 27 28  2  0  0  0
 28 19  1  0  0  0
 25 20  1  0  0  0
 10  4  1  0  0  0
 29 30  1  0  0  0
 13 17  1  0  0  0
M  END
>  <minimizedAffinity>
-2.40765

>  <minimizedRMSD>
2.40503

$$$$
952862750 CSSS00159684671 MCULE-7824073798 MolPort-045-929-744 PubChem-131929077 ZINC000952862750


 30 33  0  0  0  0  0  0  0  0999 V2000
   16.4448   -9.6776   13.2715 N   0  0  0  0  0  0  0  0  0  0  0  0
   17.4402   -9.4713   12.2588 C   0  0  0  0  0  0  0  0  0  0  0  0
   18.6458   -9.2877   12.5739 O   0  0  0  0  0  0  0  0  0  0  0  0
   15.5163   -9.7787   12.9600 H   0  0  0  0  0  0  0  0  0  0  0  0
   17.0372   -9.4329   10.8382 C   0  0  0  0  0  0  0  0  0  0  0  0
   17.8670   -8.9398    9.8095 C   0  0  0  0  0  0  0  0  0  0  0  0
   19.1700   -8.4745    9.7251 C   0  0  0  0  0  0  0  0  0  0  0  0
   20.1817   -8.3854   10.8127 C   0  0  0  0  0  0  0  0  0  0  0  0
   19.4426   -8.1634    8.4350 N   0  0  0  0  0  0  0  0  0  0  0  0
   18.3737   -8.4213    7.7305 O   0  0  0  0  0  0  0  0  0  0  0  0
   17.4315   -8.8880    8.5076 C   0  0  0  0  0  0  0  0  0  0  0  0
   16.1948   -9.2985    8.1261 N   0  0  0  0  0  0  0  0  0  0  0  0
   15.3699   -9.7895    9.0943 C   0  0  0  0  0  0  0  0  0  0  0  0
   15.7582   -9.8714   10.4210 C   0  0  0  0  0  0  0  0  0  0  0  0
   14.6587  -10.3996   11.2633 C   0  0  0  0  0  0  0  0  0  0  0  0
   13.5212  -10.6845   10.2708 C   0  0  0  0  0  0  0  0  0  0  0  0
   13.9909  -10.2635    8.8718 C   0  0  0  0  0  0  0  0  0  0  0  0
   16.2156   -8.9558   16.9554 C   0  0  0  0  0  0  0  0  0  0  0  0
   17.0964   -9.9212   17.4580 C   0  0  0  0  0  0  0  0  0  0  0  0
   17.7534  -10.7959   16.5903 C   0  0  0  0  0  0  0  0  0  0  0  0
   17.5379  -10.7158   15.2118 C   0  0  0  0  0  0  0  0  0  0  0  0
   18.2563  -11.6664   14.3161 C   0  0  0  0  0  0  0  0  0  0  0  0
   16.6556   -9.7526   14.6907 C   0  0  0  0  0  0  0  0  0  0  0  0
   16.0021   -8.8786   15.5728 C   0  0  0  0  0  0  0  0  0  0  0  0
   15.8478   -8.0221   19.2617 N   0  0  0  0  0  0  0  0  0  0  0  0
   15.5220   -8.0315   17.8693 C   0  0  0  0  0  0  0  0  0  0  0  0
   14.6396   -7.2471   17.4239 O   0  0  0  0  0  0  0  0  0  0  0  0
   16.5384   -8.6400   19.5941 H   0  0  0  0  0  0  0  0  0  0  0  0
   13.9666   -7.8110   20.7732 C   0  0  0  0  0  0  0  0  0  0  0  0
   15.1912   -7.1291   20.2012 C   0  0  0  0  0  0  0  0  0  0  0  0
 29 30  1  0  0  0
 30 25  1  0  0  0
 25 26  1  0  0  0
 26 27  2  0  0  0
 26 18  1  0  0  0
 18 19  2  0  0  0
 19 20  1  0  0  0
 20 21  2  0  0  0
 21 22  1  0  0  0
 21 23  1  0  0  0
 23  1  1  0  0  0
  1  2  1  0  0  0
  2  3  2  0  0  0
  2  5  1  0  0  0
  5  6  2  0  0  0
  6  7  1  0  0  0
  7  8  1  0  0  0
  7  9  2  0  0  0
  9 10  1  0  0  0
 10 11  1  0  0  0
 11 12  2  0  0  0
 12 13  1  0  0  0
 13 14  2  0  0  0
 14 15  1  0  0  0
 15 16  1  0  0  0
 16 17  1  0  0  0
 23 24  2  0  0  0
 24 18  1  0  0  0
 14  5  1  0  0  0
 11  6  1  0  0  0
 17 13  1  0  0  0
 25 28  1  0  0  0
  1  4  1  0  0  0
M  END
>  <minimizedAffinity>
-2.26395

>  <minimizedRMSD>
1.68205

$$$$
668231904 CSSS00133094827 MCULE-4794463695 MolPort-046-114-758 PubChem-136553508 Z2627653770


 26 28  0  0  0  0  0  0  0  0999 V2000
   17.3476   -9.9060   12.0939 C   0  0  0  0  0  0  0  0  0  0  0  0
   18.5979  -10.0241   12.0044 O   0  0  0  0  0  0  0  0  0  0  0  0
   16.7320   -9.8161   13.3823 N   0  0  0  0  0  0  0  0  0  0  0  0
   15.7501   -9.7657   13.4327 H   0  0  0  0  0  0  0  0  0  0  0  0
   13.4943  -10.7084    9.0732 C   0  0  0  0  0  0  0  0  0  0  0  0
   14.7902  -10.2823    9.5663 N   0  0  0  0  0  0  0  0  0  0  0  0
   15.2236  -10.4323   10.8298 C   0  0  0  0  0  0  0  0  0  0  0  0
   16.4999   -9.9003   10.8876 C   0  0  0  0  0  0  0  0  0  0  0  0
   16.7678   -9.4367    9.5987 C   0  0  0  0  0  0  0  0  0  0  0  0
   15.7015   -9.6888    8.8161 N   0  0  0  0  0  0  0  0  0  0  0  0
   17.9603   -8.7285    9.0988 C   0  0  0  0  0  0  0  0  0  0  0  0
   18.1212   -8.2844    7.8028 C   0  0  0  0  0  0  0  0  0  0  0  0
   19.3599   -7.6685    7.7853 C   0  0  0  0  0  0  0  0  0  0  0  0
   19.8688   -7.7736    9.0676 C   0  0  0  0  0  0  0  0  0  0  0  0
   19.0037   -8.4094    9.8198 O   0  0  0  0  0  0  0  0  0  0  0  0
   17.4950   -9.7961   14.6217 C   0  0  0  0  0  0  0  0  0  0  0  0
   17.5747   -8.3588   15.1616 C   0  0  0  0  0  0  0  0  0  0  0  0
   17.8133   -8.3448   16.6695 C   0  0  0  0  0  0  0  0  0  0  0  0
   16.6767   -9.0475   17.4310 C   0  0  0  0  0  0  0  0  0  0  0  0
   15.9335  -10.1002   16.5958 C   0  0  0  0  0  0  0  0  0  0  0  0
   16.8815  -10.7903   15.6191 C   0  0  0  0  0  0  0  0  0  0  0  0
   15.7131   -8.0507   17.9855 C   0  0  0  0  0  0  0  0  0  0  0  0
   15.7987   -7.6759   19.3549 N   0  0  0  0  0  0  0  0  0  0  0  0
   14.8258   -7.5395   17.2515 O   0  0  0  0  0  0  0  0  0  0  0  0
   16.4906   -8.0732   19.9317 H   0  0  0  0  0  0  0  0  0  0  0  0
   15.1659   -7.0192   19.7260 H   0  0  0  0  0  0  0  0  0  0  0  0
  5  6  1  0  0  0
  6  7  1  0  0  0
  7  8  2  0  0  0
  8  1  1  0  0  0
  1  2  2  0  0  0
  1  3  1  0  0  0
  3 16  1  0  0  0
 16 17  1  0  0  0
 17 18  1  0  0  0
 18 19  1  0  0  0
 19 20  1  0  0  0
 20 21  1  0  0  0
 19 22  1  0  0  0
 22 23  1  0  0  0
 22 24  2  0  0  0
  8  9  1  0  0  0
  9 10  2  0  0  0
  9 11  1  0  0  0
 11 12  2  0  0  0
 12 13  1  0  0  0
 13 14  2  0  0  0
 14 15  1  0  0  0
 10  6  1  0  0  0
 15 11  1  0  0  0
 21 16  1  0  0  0
  3  4  1  0  0  0
 23 25  1  0  0  0
 23 26  1  0  0  0
M  END
>  <minimizedAffinity>
-2.25137

>  <minimizedRMSD>
0.97374

$$$$
1158802153 CSSS01823815256 Z4917173983


 25 28  0  0  0  0  0  0  0  0999 V2000
   17.6686   -9.2704   10.8514 N   0  0  0  0  0  0  0  0  0  0  0  0
   18.4658   -8.9444   11.3281 H   0  0  0  0  0  0  0  0  0  0  0  0
   15.6023  -10.9303    6.4526 Cl  0  0  0  0  0  0  0  0  0  0  0  0
   16.7498   -9.9471    7.3350 C   0  0  0  0  0  0  0  0  0  0  0  0
   16.7675   -9.9854    8.7045 N   0  0  0  0  0  0  0  0  0  0  0  0
   17.6508   -9.2300    9.4239 C   0  0  0  0  0  0  0  0  0  0  0  0
   18.5333   -8.4193    8.7210 C   0  0  0  0  0  0  0  0  0  0  0  0
   19.5214   -7.5589    9.1384 C   0  0  0  0  0  0  0  0  0  0  0  0
   20.0422   -7.0495    7.9440 C   0  0  0  0  0  0  0  0  0  0  0  0
   19.4149   -7.5632    6.8550 N   0  0  0  0  0  0  0  0  0  0  0  0
   18.4992   -8.3959    7.3656 C   0  0  0  0  0  0  0  0  0  0  0  0
   17.6226   -9.1457    6.6542 N   0  0  0  0  0  0  0  0  0  0  0  0
   19.5928   -7.3680    5.9066 H   0  0  0  0  0  0  0  0  0  0  0  0
   16.5452   -9.7784   11.6221 C   0  0  0  0  0  0  0  0  0  0  0  0
   16.9014   -9.8112   13.0658 C   0  0  0  0  0  0  0  0  0  0  0  0
   18.0074  -10.5721   13.4989 C   0  0  0  0  0  0  0  0  0  0  0  0
   18.3713  -10.5948   14.8565 C   0  0  0  0  0  0  0  0  0  0  0  0
   17.6140   -9.8442   15.7550 C   0  0  0  0  0  0  0  0  0  0  0  0
   17.8056   -9.7070   17.2355 C   0  0  0  0  0  0  0  0  0  0  0  0
   16.7302   -8.7969   17.6469 N   0  0  0  0  0  0  0  0  0  0  0  0
   15.9908   -8.4499   16.4821 C   0  0  0  0  0  0  0  0  0  0  0  0
   14.9957   -7.6792   16.4872 O   0  0  0  0  0  0  0  0  0  0  0  0
   16.5428   -9.1000   15.3251 C   0  0  0  0  0  0  0  0  0  0  0  0
   16.1565   -9.0550   13.9872 C   0  0  0  0  0  0  0  0  0  0  0  0
   16.5526   -8.4833   18.5631 H   0  0  0  0  0  0  0  0  0  0  0  0
  3  4  1  0  0  0
  4  5  2  0  0  0
  5  6  1  0  0  0
  6  1  1  0  0  0
  1 14  1  0  0  0
 14 15  1  0  0  0
 15 16  2  0  0  0
 16 17  1  0  0  0
 17 18  2  0  0  0
 18 19  1  0  0  0
 19 20  1  0  0  0
 20 21  1  0  0  0
 21 22  2  0  0  0
 21 23  1  0  0  0
 23 24  2  0  0  0
  6  7  2  0  0  0
  7  8  1  0  0  0
  8  9  2  0  0  0
  9 10  1  0  0  0
 10 11  1  0  0  0
 11 12  2  0  0  0
 12  4  1  0  0  0
 24 15  1  0  0  0
 11  7  1  0  0  0
 23 18  1  0  0  0
  1  2  1  0  0  0
 20 25  1  0  0  0
 10 13  1  0  0  0
M  END
>  <minimizedAffinity>
-2.25136

>  <minimizedRMSD>
1.13063

$$$$
19224315 CSSS00159505351 MCULE-4263581458 MolPort-005-086-993 PubChem-28099142 ZINC000019224315 ZINC19224315


 32 35  0  0  0  0  0  0  0  0999 V2000
   17.9914  -10.2984   13.4246 N   0  0  0  0  0  0  0  0  0  0  0  0
   19.2686  -10.9355   13.1422 C   0  0  0  0  0  0  0  0  0  0  0  0
   17.0653  -10.9083   14.3380 C   0  0  0  0  0  0  0  0  0  0  0  0
   17.3454  -12.0094   14.8831 O   0  0  0  0  0  0  0  0  0  0  0  0
   17.6677   -9.0533   12.7378 C   0  0  0  0  0  0  0  0  0  0  0  0
   16.7727   -9.8740    8.5933 C   0  0  0  0  0  0  0  0  0  0  0  0
   17.9076   -9.1142    8.9148 C   0  0  0  0  0  0  0  0  0  0  0  0
   18.7202   -8.6477    7.9263 N   0  0  0  0  0  0  0  0  0  0  0  0
   19.8280   -7.9076    8.1976 C   0  0  0  0  0  0  0  0  0  0  0  0
   20.1636   -7.6033    9.5175 C   0  0  0  0  0  0  0  0  0  0  0  0
   19.3522   -8.0666   10.5530 C   0  0  0  0  0  0  0  0  0  0  0  0
   18.2126   -8.8301   10.2682 C   0  0  0  0  0  0  0  0  0  0  0  0
   17.3734   -9.3111   11.2914 C   0  0  0  0  0  0  0  0  0  0  0  0
   16.2467  -10.0687   10.9591 C   0  0  0  0  0  0  0  0  0  0  0  0
   15.9474  -10.3473    9.6247 C   0  0  0  0  0  0  0  0  0  0  0  0
   17.1708   -9.5252    6.1741 C   0  0  0  0  0  0  0  0  0  0  0  0
   16.4832  -10.1464    7.2513 O   0  0  0  0  0  0  0  0  0  0  0  0
   15.7774  -10.2368   14.6946 C   0  0  0  0  0  0  0  0  0  0  0  0
   15.9294   -9.4916   15.9328 N   0  0  0  0  0  0  0  0  0  0  0  0
   14.9663   -8.7582   16.5168 C   0  0  0  0  0  0  0  0  0  0  0  0
   15.5510   -8.1954   17.6320 C   0  0  0  0  0  0  0  0  0  0  0  0
   16.8659   -8.6109   17.6745 C   0  0  0  0  0  0  0  0  0  0  0  0
   17.0659   -9.4085   16.6068 N   0  0  0  0  0  0  0  0  0  0  0  0
   14.9368   -7.3203   18.5839 N   0  0  0  0  0  0  0  0  0  0  0  0
   13.5251   -7.1791   18.7920 C   0  0  0  0  0  0  0  0  0  0  0  0
   12.7066   -7.8627   18.1191 O   0  0  0  0  0  0  0  0  0  0  0  0
   15.5328   -6.7700   19.1418 H   0  0  0  0  0  0  0  0  0  0  0  0
   13.0275   -6.2288   19.7984 C   0  0  0  0  0  0  0  0  0  0  0  0
   12.8298   -6.5817   21.1292 C   0  0  0  0  0  0  0  0  0  0  0  0
   12.2650   -5.1975   21.8909 S   0  0  0  0  0  0  0  0  0  0  0  0
   12.2622   -4.1540   20.5756 C   0  0  0  0  0  0  0  0  0  0  0  0
   12.7159   -4.8938   19.4911 C   0  0  0  0  0  0  0  0  0  0  0  0
 16 17  1  0  0  0
 17  6  1  0  0  0
  6  7  2  0  0  0
  7  8  1  0  0  0
  8  9  2  0  0  0
  9 10  1  0  0  0
 10 11  2  0  0  0
 11 12  1  0  0  0
 12 13  2  0  0  0
 12  7  1  0  0  0
 13  5  1  0  0  0
 13 14  1  0  0  0
  5  1  1  0  0  0
  1  2  1  0  0  0
  1  3  1  0  0  0
  3  4  2  0  0  0
  3 18  1  0  0  0
 18 19  1  0  0  0
 19 20  1  0  0  0
 20 21  2  0  0  0
 21 24  1  0  0  0
 21 22  1  0  0  0
 24 25  1  0  0  0
 25 26  2  0  0  0
 25 28  1  0  0  0
 28 29  2  0  0  0
 29 30  1  0  0  0
 30 31  1  0  0  0
 31 32  2  0  0  0
 32 28  1  0  0  0
 22 23  2  0  0  0
 23 19  1  0  0  0
 14 15  2  0  0  0
 15  6  1  0  0  0
 24 27  1  0  0  0
M  END
>  <minimizedAffinity>
-2.18947

>  <minimizedRMSD>
2.04053

$$$$
1875247810 CSSS03496537499 MCULE-5022429991 MolPort-047-796-727 PubChem-155916802


 29 31  0  0  0  0  0  0  0  0999 V2000
   15.4511   -8.3695   16.8649 C   0  0  0  0  0  0  0  0  0  0  0  0
   15.7650   -9.5218   15.8987 C   0  0  0  0  0  0  0  0  0  0  0  0
   17.2075  -10.0368   16.0021 C   0  0  0  0  0  0  0  0  0  0  0  0
   18.1660   -8.9384   16.4529 C   0  0  0  0  0  0  0  0  0  0  0  0
   17.7929   -8.4184   17.8459 C   0  0  0  0  0  0  0  0  0  0  0  0
   16.2847   -8.4709   18.1476 C   0  0  0  0  0  0  0  0  0  0  0  0
   15.9276   -7.3967   19.0657 N   0  0  0  0  0  0  0  0  0  0  0  0
   15.2697   -7.6283   20.3126 C   0  0  0  0  0  0  0  0  0  0  0  0
   14.9679   -6.4812   21.2074 C   0  0  0  0  0  0  0  0  0  0  0  0
   14.9367   -8.7929   20.6582 O   0  0  0  0  0  0  0  0  0  0  0  0
   16.1495   -6.4708   18.8156 H   0  0  0  0  0  0  0  0  0  0  0  0
   17.6457  -10.6243   14.7030 C   0  0  0  0  0  0  0  0  0  0  0  0
   17.7259  -11.8760   14.5663 O   0  0  0  0  0  0  0  0  0  0  0  0
   17.9712   -9.7535   13.6180 N   0  0  0  0  0  0  0  0  0  0  0  0
   17.8562   -8.7836   13.7420 H   0  0  0  0  0  0  0  0  0  0  0  0
   18.4656  -10.2380   12.3367 C   0  0  0  0  0  0  0  0  0  0  0  0
   17.4475  -10.0074   11.2675 C   0  0  0  0  0  0  0  0  0  0  0  0
   16.1090  -10.3721   11.3147 C   0  0  0  0  0  0  0  0  0  0  0  0
   15.5071   -9.9657   10.1668 N   0  0  0  0  0  0  0  0  0  0  0  0
   16.4947   -9.3701    9.4700 C   0  0  0  0  0  0  0  0  0  0  0  0
   16.3814   -8.7821    8.2148 C   0  0  0  0  0  0  0  0  0  0  0  0
   17.5032   -8.2254    7.6708 N   0  0  0  0  0  0  0  0  0  0  0  0
   18.7054   -8.2375    8.3252 C   0  0  0  0  0  0  0  0  0  0  0  0
   18.8016   -8.8351    9.5907 C   0  0  0  0  0  0  0  0  0  0  0  0
   17.6716   -9.3788   10.1064 N   0  0  0  0  0  0  0  0  0  0  0  0
   14.0873   -8.3813   17.1681 O   0  0  0  0  0  0  0  0  0  0  0  0
   13.7277   -7.0353   17.2554 C   0  0  0  0  0  0  0  0  0  0  0  0
   12.5318   -5.5074   18.7863 C   0  0  0  0  0  0  0  0  0  0  0  0
   12.5318   -6.8911   18.1723 C   0  0  0  0  0  0  0  0  0  0  0  0
 28 29  1  0  0  0
 29 27  1  0  0  0
 27 26  1  0  0  0
  1 26  1  0  0  0
  1  2  1  0  0  0
  2  3  1  0  0  0
  3  4  1  0  0  0
  4  5  1  0  0  0
  5  6  1  0  0  0
  6  7  1  0  0  0
  7  8  1  0  0  0
  8  9  1  0  0  0
  8 10  2  0  0  0
  3 12  1  0  0  0
 12 13  2  0  0  0
 12 14  1  0  0  0
 14 16  1  0  0  0
 16 17  1  0  0  0
 17 18  2  0  0  0
 18 19  1  0  0  0
 19 20  2  0  0  0
 20 21  1  0  0  0
 21 22  2  0  0  0
 22 23  1  0  0  0
 23 24  2  0  0  0
 24 25  1  0  0  0
  6  1  1  0  0  0
 25 17  1  0  0  0
 25 20  1  0  0  0
  7 11  1  0  0  0
 14 15  1  0  0  0
M  END
>  <minimizedAffinity>
-2.18712

>  <minimizedRMSD>
2.19048

$$$$
CSC027068461 CSSS00027068461 MCULE-1626712571 MolPort-004-236-187 PubChem-17397994 Z112132966


 27 29  0  0  0  0  0  0  0  0999 V2000
   18.0011  -11.3060   13.2382 C   0  0  0  0  0  0  0  0  0  0  0  0
   17.7340  -10.3283   14.2520 N   0  0  0  0  0  0  0  0  0  0  0  0
   18.2043  -12.5124   13.5356 O   0  0  0  0  0  0  0  0  0  0  0  0
   17.6212   -9.3972   13.9526 H   0  0  0  0  0  0  0  0  0  0  0  0
   17.6152  -10.5745   15.6596 C   0  0  0  0  0  0  0  0  0  0  0  0
   16.9257   -9.7656   16.5575 C   0  0  0  0  0  0  0  0  0  0  0  0
   16.9647  -10.2546   17.8739 C   0  0  0  0  0  0  0  0  0  0  0  0
   17.6767  -11.4434   18.0234 C   0  0  0  0  0  0  0  0  0  0  0  0
   18.2552  -11.8779   16.5032 S   0  0  0  0  0  0  0  0  0  0  0  0
   16.2172   -8.5220   16.1992 C   0  0  0  0  0  0  0  0  0  0  0  0
   15.3287   -7.9123   17.1306 N   0  0  0  0  0  0  0  0  0  0  0  0
   16.3874   -7.9865   15.0721 O   0  0  0  0  0  0  0  0  0  0  0  0
   15.1867   -8.3207   18.0151 H   0  0  0  0  0  0  0  0  0  0  0  0
   14.8567   -7.0826   16.8900 H   0  0  0  0  0  0  0  0  0  0  0  0
   19.4642  -10.8449   11.3039 C   0  0  0  0  0  0  0  0  0  0  0  0
   18.0333  -10.8995   11.8017 C   0  0  0  0  0  0  0  0  0  0  0  0
   17.2426   -9.2753   11.5708 S   0  0  0  0  0  0  0  0  0  0  0  0
   17.0878   -9.4838    9.7924 C   0  0  0  0  0  0  0  0  0  0  0  0
   17.9061   -8.7823    8.8939 C   0  0  0  0  0  0  0  0  0  0  0  0
   17.7222   -9.0053    7.5129 C   0  0  0  0  0  0  0  0  0  0  0  0
   18.5184   -8.3296    6.5837 C   0  0  0  0  0  0  0  0  0  0  0  0
   19.4972   -7.4327    7.0223 C   0  0  0  0  0  0  0  0  0  0  0  0
   19.6826   -7.2090    8.3901 C   0  0  0  0  0  0  0  0  0  0  0  0
   18.8899   -7.8814    9.3249 C   0  0  0  0  0  0  0  0  0  0  0  0
   16.7717   -9.8765    7.0881 N   0  0  0  0  0  0  0  0  0  0  0  0
   15.9892  -10.5410    7.9774 C   0  0  0  0  0  0  0  0  0  0  0  0
   16.1495  -10.3422    9.3120 N   0  0  0  0  0  0  0  0  0  0  0  0
 15 16  1  0  0  0
 16  1  1  0  0  0
  1  2  1  0  0  0
  2  5  1  0  0  0
  5  6  2  0  0  0
  6 10  1  0  0  0
 10 11  1  0  0  0
 10 12  2  0  0  0
  6  7  1  0  0  0
  7  8  2  0  0  0
  8  9  1  0  0  0
  1  3  2  0  0  0
 16 17  1  0  0  0
 17 18  1  0  0  0
 18 19  1  0  0  0
 19 20  1  0  0  0
 20 21  2  0  0  0
 21 22  1  0  0  0
 22 23  2  0  0  0
 23 24  1  0  0  0
 20 25  1  0  0  0
 25 26  2  0  0  0
 26 27  1  0  0  0
  9  5  1  0  0  0
 27 18  2  0  0  0
 24 19  2  0  0  0
  2  4  1  0  0  0
 11 13  1  0  0  0
 11 14  1  0  0  0
M  END
>  <minimizedAffinity>
-2.16132

>  <minimizedRMSD>
1.90927

$$$$
CSSS14831857988 Z8607383544


 36 40  0  0  0  0  0  0  0  0999 V2000
   16.6633   -9.6088   16.4028 C   0  0  0  0  0  0  0  0  0  0  0  0
   17.2743  -10.6455   17.1317 C   0  0  0  0  0  0  0  0  0  0  0  0
   17.9914  -11.6530   16.4627 C   0  0  0  0  0  0  0  0  0  0  0  0
   18.1015  -11.6347   15.1039 N   0  0  0  0  0  0  0  0  0  0  0  0
   17.5137  -10.6391   14.3942 C   0  0  0  0  0  0  0  0  0  0  0  0
   17.5483  -10.4750   12.9264 C   0  0  0  0  0  0  0  0  0  0  0  0
   16.7588   -9.2604   12.7243 N   0  0  0  0  0  0  0  0  0  0  0  0
   16.2846   -8.6870   13.9846 C   0  0  0  0  0  0  0  0  0  0  0  0
   16.8034   -9.6344   15.0050 C   0  0  0  0  0  0  0  0  0  0  0  0
   16.6014   -8.5945   11.4612 C   0  0  0  0  0  0  0  0  0  0  0  0
   16.1743   -7.4079   11.4433 O   0  0  0  0  0  0  0  0  0  0  0  0
   16.9035   -9.2796   10.1780 C   0  0  0  0  0  0  0  0  0  0  0  0
   16.3414  -10.5398    9.9380 C   0  0  0  0  0  0  0  0  0  0  0  0
   16.5777  -11.1996    8.7325 C   0  0  0  0  0  0  0  0  0  0  0  0
   15.9780  -12.5372    8.4912 C   0  0  0  0  0  0  0  0  0  0  0  0
   17.3516  -10.6218    7.7781 N   0  0  0  0  0  0  0  0  0  0  0  0
   17.9163   -9.4004    7.9621 C   0  0  0  0  0  0  0  0  0  0  0  0
   18.7118   -8.8478    6.9543 C   0  0  0  0  0  0  0  0  0  0  0  0
   19.3074   -7.5976    7.1363 C   0  0  0  0  0  0  0  0  0  0  0  0
   20.0778   -7.0665    6.1570 F   0  0  0  0  0  0  0  0  0  0  0  0
   19.1131   -6.8962    8.3284 C   0  0  0  0  0  0  0  0  0  0  0  0
   18.3186   -7.4410    9.3406 C   0  0  0  0  0  0  0  0  0  0  0  0
   17.7053   -8.6929    9.1713 C   0  0  0  0  0  0  0  0  0  0  0  0
   15.6826   -8.6780   18.5263 N   0  0  0  0  0  0  0  0  0  0  0  0
   15.9126   -8.5525   17.1156 C   0  0  0  0  0  0  0  0  0  0  0  0
   15.4784   -7.5484   16.4891 O   0  0  0  0  0  0  0  0  0  0  0  0
   16.0480   -9.4763   18.9716 H   0  0  0  0  0  0  0  0  0  0  0  0
   14.4964   -6.5222   21.0249 N   0  0  0  0  0  0  0  0  0  0  0  0
   13.5200   -6.3160   20.1224 C   0  0  0  0  0  0  0  0  0  0  0  0
   13.7876   -7.0969   19.0091 C   0  0  0  0  0  0  0  0  0  0  0  0
   14.9681   -7.7436   19.3434 C   0  0  0  0  0  0  0  0  0  0  0  0
   15.3863   -7.3829   20.5666 N   0  0  0  0  0  0  0  0  0  0  0  0
   14.5847   -5.8709   22.3220 C   0  0  0  0  0  0  0  0  0  0  0  0
   15.7184   -6.4660   23.1406 C   0  0  0  0  0  0  0  0  0  0  0  0
   15.8818   -7.2422   25.1985 C   0  0  0  0  0  0  0  0  0  0  0  0
   15.2236   -7.4571   23.9887 O   0  0  0  0  0  0  0  0  0  0  0  0
 35 36  1  0  0  0
 36 34  1  0  0  0
 34 33  1  0  0  0
 33 28  1  0  0  0
 28 29  1  0  0  0
 29 30  2  0  0  0
 30 31  1  0  0  0
 31 24  1  0  0  0
 24 25  1  0  0  0
 25 26  2  0  0  0
 25  1  1  0  0  0
  1  2  2  0  0  0
  2  3  1  0  0  0
  3  4  2  0  0  0
  4  5  1  0  0  0
  5  6  1  0  0  0
  6  7  1  0  0  0
  7  8  1  0  0  0
  8  9  1  0  0  0
  7 10  1  0  0  0
 10 11  2  0  0  0
 10 12  1  0  0  0
 12 13  2  0  0  0
 13 14  1  0  0  0
 14 15  1  0  0  0
 14 16  2  0  0  0
 16 17  1  0  0  0
 17 18  2  0  0  0
 18 19  1  0  0  0
 19 20  1  0  0  0
 19 21  2  0  0  0
 21 22  1  0  0  0
 22 23  2  0  0  0
 31 32  2  0  0  0
 32 28  1  0  0  0
  9  1  1  0  0  0
 23 12  1  0  0  0
  9  5  2  0  0  0
 23 17  1  0  0  0
 24 27  1  0  0  0
M  END
>  <minimizedAffinity>
-2.14532

>  <minimizedRMSD>
1.24636

$$$$
CSSS00105943262 MCULE-2019703825 MolPort-044-809-247 PubChem-126843689


 30 33  0  0  0  0  0  0  0  0999 V2000
   16.3587   -8.9516    9.1671 C   0  0  0  0  0  0  0  0  0  0  0  0
   17.4225   -8.5715    8.1843 C   0  0  0  0  0  0  0  0  0  0  0  0
   17.3280   -8.8700    6.8624 N   0  0  0  0  0  0  0  0  0  0  0  0
   18.4616   -8.3533    6.3692 C   0  0  0  0  0  0  0  0  0  0  0  0
   18.8968   -8.3670    5.0463 C   0  0  0  0  0  0  0  0  0  0  0  0
   20.1325   -7.7545    4.7661 C   0  0  0  0  0  0  0  0  0  0  0  0
   20.8871   -7.1546    5.7993 C   0  0  0  0  0  0  0  0  0  0  0  0
   20.4149   -7.1601    7.1251 C   0  0  0  0  0  0  0  0  0  0  0  0
   19.1888   -7.7752    7.3647 C   0  0  0  0  0  0  0  0  0  0  0  0
   18.5505   -7.8979    8.5364 N   0  0  0  0  0  0  0  0  0  0  0  0
   18.8277   -7.5810    9.4264 H   0  0  0  0  0  0  0  0  0  0  0  0
   16.9178   -9.0197   10.5102 N   0  0  0  0  0  0  0  0  0  0  0  0
   16.2115   -9.5873   11.6186 C   0  0  0  0  0  0  0  0  0  0  0  0
   15.0708  -10.0976   11.4453 O   0  0  0  0  0  0  0  0  0  0  0  0
   17.8212   -8.6594   10.6626 H   0  0  0  0  0  0  0  0  0  0  0  0
   16.8182   -9.5781   12.9601 C   0  0  0  0  0  0  0  0  0  0  0  0
   16.1600   -8.9589   14.0393 C   0  0  0  0  0  0  0  0  0  0  0  0
   16.7715   -8.9834   15.2482 N   0  0  0  0  0  0  0  0  0  0  0  0
   17.9579   -9.5570   15.4802 C   0  0  0  0  0  0  0  0  0  0  0  0
   18.3327   -9.4353   16.7691 N   0  0  0  0  0  0  0  0  0  0  0  0
   17.3580   -8.7645   17.3804 N   0  0  0  0  0  0  0  0  0  0  0  0
   16.4208   -8.4985   16.4457 C   0  0  0  0  0  0  0  0  0  0  0  0
   15.3525   -7.8725   16.6764 O   0  0  0  0  0  0  0  0  0  0  0  0
   18.6637  -10.1863   14.4604 C   0  0  0  0  0  0  0  0  0  0  0  0
   18.0736  -10.1899   13.1847 C   0  0  0  0  0  0  0  0  0  0  0  0
   17.3269   -8.5112   18.3313 H   0  0  0  0  0  0  0  0  0  0  0  0
   15.7535  -10.3016    8.8045 C   0  0  0  0  0  0  0  0  0  0  0  0
   18.1100  -10.8786    9.2942 C   0  0  0  0  0  0  0  0  0  0  0  0
   16.8270  -11.3695    8.6587 C   0  0  0  0  0  0  0  0  0  0  0  0
   16.3899  -12.6500    9.3442 C   0  0  0  0  0  0  0  0  0  0  0  0
 28 29  1  0  0  0
 29 30  1  0  0  0
 29 27  1  0  0  0
 27  1  1  0  0  0
  1  2  1  0  0  0
  2  3  2  0  0  0
  3  4  1  0  0  0
  4  5  2  0  0  0
  5  6  1  0  0  0
  6  7  2  0  0  0
  7  8  1  0  0  0
  8  9  2  0  0  0
  9 10  1  0  0  0
  1 12  1  0  0  0
 12 13  1  0  0  0
 13 14  2  0  0  0
 13 16  1  0  0  0
 16 17  2  0  0  0
 17 18  1  0  0  0
 18 19  1  0  0  0
 19 20  2  0  0  0
 20 21  1  0  0  0
 21 22  1  0  0  0
 22 23  2  0  0  0
 19 24  1  0  0  0
 24 25  2  0  0  0
 10  2  1  0  0  0
  9  4  1  0  0  0
 25 16  1  0  0  0
 22 18  1  0  0  0
 10 11  1  0  0  0
 12 15  1  0  0  0
 21 26  1  0  0  0
M  END
>  <minimizedAffinity>
-2.13817

>  <minimizedRMSD>
2.13247

$$$$
CSC028159083 19050664 CSSS00028159083 MCULE-4413089341 MolPort-009-375-350 PubChem-28059450 Z97794488 ZINC000019050664


 37 39  0  0  0  0  0  0  0  0999 V2000
   15.9647   -9.2594   15.4163 N   0  0  0  0  0  0  0  0  0  0  0  0
   16.0490   -8.4572   14.2238 C   0  0  0  0  0  0  0  0  0  0  0  0
   15.7908   -7.2246   14.2655 O   0  0  0  0  0  0  0  0  0  0  0  0
   14.1935   -7.5463   18.2070 N   0  0  0  0  0  0  0  0  0  0  0  0
   15.1968   -7.4599   19.1334 C   0  0  0  0  0  0  0  0  0  0  0  0
   14.9989   -6.8982   20.2453 O   0  0  0  0  0  0  0  0  0  0  0  0
   16.4220   -7.9800   18.8642 N   0  0  0  0  0  0  0  0  0  0  0  0
   16.6919   -8.5755   17.6772 C   0  0  0  0  0  0  0  0  0  0  0  0
   17.8381   -9.0563   17.4712 O   0  0  0  0  0  0  0  0  0  0  0  0
   15.6953   -8.6540   16.6938 C   0  0  0  0  0  0  0  0  0  0  0  0
   14.4288   -8.1257   16.9894 C   0  0  0  0  0  0  0  0  0  0  0  0
   13.3987   -8.1685   16.0005 N   0  0  0  0  0  0  0  0  0  0  0  0
   17.1297   -7.9231   19.5463 H   0  0  0  0  0  0  0  0  0  0  0  0
   13.5728   -8.5863   15.1262 H   0  0  0  0  0  0  0  0  0  0  0  0
   12.5148   -7.7802   16.1932 H   0  0  0  0  0  0  0  0  0  0  0  0
   12.8707   -6.9844   18.4955 C   0  0  0  0  0  0  0  0  0  0  0  0
   12.9799   -5.7897   19.4328 C   0  0  0  0  0  0  0  0  0  0  0  0
   12.4523   -5.0275   21.7262 C   0  0  0  0  0  0  0  0  0  0  0  0
   12.0289   -5.9468   20.6039 C   0  0  0  0  0  0  0  0  0  0  0  0
   16.4533   -9.0590   12.9203 C   0  0  0  0  0  0  0  0  0  0  0  0
   15.3183   -9.6359   12.2887 O   0  0  0  0  0  0  0  0  0  0  0  0
   15.3859  -10.1626   10.9978 C   0  0  0  0  0  0  0  0  0  0  0  0
   14.6636  -11.1416   10.6674 O   0  0  0  0  0  0  0  0  0  0  0  0
   16.3047   -9.5739   10.0182 C   0  0  0  0  0  0  0  0  0  0  0  0
   16.0132   -9.4473    8.7010 N   0  0  0  0  0  0  0  0  0  0  0  0
   17.1219   -8.8717    8.2055 C   0  0  0  0  0  0  0  0  0  0  0  0
   18.0634   -8.6442    9.1369 N   0  0  0  0  0  0  0  0  0  0  0  0
   19.2639   -8.0706    8.8557 C   0  0  0  0  0  0  0  0  0  0  0  0
   19.5228   -7.6928    7.5302 C   0  0  0  0  0  0  0  0  0  0  0  0
   18.5471   -7.9189    6.5417 C   0  0  0  0  0  0  0  0  0  0  0  0
   17.3230   -8.5184    6.8731 C   0  0  0  0  0  0  0  0  0  0  0  0
   20.2891   -7.8403    9.9146 C   0  0  0  0  0  0  0  0  0  0  0  0
   17.5720   -9.0837   10.3078 C   0  0  0  0  0  0  0  0  0  0  0  0
   16.1555  -10.7049   15.3459 C   0  0  0  0  0  0  0  0  0  0  0  0
   17.4572  -11.0370   14.6348 C   0  0  0  0  0  0  0  0  0  0  0  0
   18.5392  -10.7621   15.4691 O   0  0  0  0  0  0  0  0  0  0  0  0
   19.4844  -10.1731   14.6309 C   0  0  0  0  0  0  0  0  0  0  0  0
 18 19  1  0  0  0
 19 17  1  0  0  0
 17 16  1  0  0  0
 16  4  1  0  0  0
  4  5  1  0  0  0
  5  6  2  0  0  0
  5  7  1  0  0  0
  7  8  1  0  0  0
  8  9  2  0  0  0
  8 10  1  0  0  0
 10  1  1  0  0  0
  1  2  1  0  0  0
  2 20  1  0  0  0
 20 21  1  0  0  0
 21 22  1  0  0  0
 22 24  1  0  0  0
 24 25  1  0  0  0
 25 26  2  0  0  0
 26 27  1  0  0  0
 27 28  1  0  0  0
 28 29  2  0  0  0
 29 30  1  0  0  0
 30 31  2  0  0  0
 28 32  1  0  0  0
 27 33  1  0  0  0
 22 23  2  0  0  0
  2  3  2  0  0  0
  1 34  1  0  0  0
 34 35  1  0  0  0
 35 36  1  0  0  0
 36 37  1  0  0  0
 10 11  2  0  0  0
 11 12  1  0  0  0
 11  4  1  0  0  0
 33 24  2  0  0  0
 31 26  1  0  0  0
  7 13  1  0  0  0
 12 14  1  0  0  0
 12 15  1  0  0  0
M  END
>  <minimizedAffinity>
-2.13197

>  <minimizedRMSD>
2.72231

$$$$
CSC027984254 3380344 CSSS00027984254 MCULE-3949446743 MolPort-004-278-357 PubChem-2498611 SVBZZUKFHKRKSU-UHFFFAOYSA-N Z27738098 ZINC000003380344 ZINC03380344


 33 36  0  0  0  0  0  0  0  0999 V2000
   17.1419   -9.7716   15.1171 C   0  0  0  0  0  0  0  0  0  0  0  0
   17.9469   -9.1928   16.1041 C   0  0  0  0  0  0  0  0  0  0  0  0
   17.3698   -8.6093   17.2356 C   0  0  0  0  0  0  0  0  0  0  0  0
   15.9802   -8.6023   17.3894 C   0  0  0  0  0  0  0  0  0  0  0  0
   15.1694   -9.1782   16.4059 C   0  0  0  0  0  0  0  0  0  0  0  0
   15.7476   -9.7606   15.2749 C   0  0  0  0  0  0  0  0  0  0  0  0
   16.2774   -9.6340   12.3034 O   0  0  0  0  0  0  0  0  0  0  0  0
   17.3291  -10.2563   12.6068 C   0  0  0  0  0  0  0  0  0  0  0  0
   17.7712  -10.3526   13.9673 N   0  0  0  0  0  0  0  0  0  0  0  0
   18.5922  -10.8715   14.1288 H   0  0  0  0  0  0  0  0  0  0  0  0
   18.1406  -10.8873   11.5261 C   0  0  0  0  0  0  0  0  0  0  0  0
   17.9343  -10.1886   10.2621 N   0  0  0  0  0  0  0  0  0  0  0  0
   16.9168  -10.5972    9.4543 C   0  0  0  0  0  0  0  0  0  0  0  0
   16.6751   -9.9691    8.2746 N   0  0  0  0  0  0  0  0  0  0  0  0
   17.4379   -8.9217    7.8745 C   0  0  0  0  0  0  0  0  0  0  0  0
   17.1739   -8.2862    6.6576 C   0  0  0  0  0  0  0  0  0  0  0  0
   17.9617   -7.2064    6.2471 C   0  0  0  0  0  0  0  0  0  0  0  0
   19.0148   -6.7593    7.0515 C   0  0  0  0  0  0  0  0  0  0  0  0
   19.2842   -7.3904    8.2698 C   0  0  0  0  0  0  0  0  0  0  0  0
   18.4981   -8.4742    8.6880 C   0  0  0  0  0  0  0  0  0  0  0  0
   18.7315   -9.1369    9.9014 C   0  0  0  0  0  0  0  0  0  0  0  0
   19.6744   -8.7648   10.6550 O   0  0  0  0  0  0  0  0  0  0  0  0
   15.2621   -7.8461   18.8002 S   0  0  0  0  0  0  0  0  0  0  0  0
   16.1863   -6.7770   19.3100 O   0  0  0  0  0  0  0  0  0  0  0  0
   15.0480   -8.8619   19.8878 O   0  0  0  0  0  0  0  0  0  0  0  0
   13.7416   -7.1368   18.3716 N   0  0  0  0  0  0  0  0  0  0  0  0
   13.2687   -7.4767   17.5779 H   0  0  0  0  0  0  0  0  0  0  0  0
   13.1459   -6.0783   19.1233 C   0  0  0  0  0  0  0  0  0  0  0  0
   13.1564   -6.1016   20.4844 N   0  0  0  0  0  0  0  0  0  0  0  0
   12.5901   -5.0992   21.2052 C   0  0  0  0  0  0  0  0  0  0  0  0
   11.9875   -4.0260   20.5514 C   0  0  0  0  0  0  0  0  0  0  0  0
   11.9862   -4.0176   19.1575 C   0  0  0  0  0  0  0  0  0  0  0  0
   12.5623   -5.0388   18.4708 N   0  0  0  0  0  0  0  0  0  0  0  0
  7  8  2  0  0  0
  8 11  1  0  0  0
  8  9  1  0  0  0
 11 12  1  0  0  0
 12 13  1  0  0  0
 13 14  2  0  0  0
 14 15  1  0  0  0
 15 16  2  0  0  0
 16 17  1  0  0  0
 17 18  2  0  0  0
 18 19  1  0  0  0
 19 20  2  0  0  0
 20 21  1  0  0  0
 20 15  1  0  0  0
 21 22  2  0  0  0
 21 12  1  0  0  0
  9  1  1  0  0  0
  1  2  2  0  0  0
  2  3  1  0  0  0
  3  4  2  0  0  0
  4  5  1  0  0  0
  4 23  1  0  0  0
  5  6  2  0  0  0
  6  1  1  0  0  0
 23 24  2  0  0  0
 23 25  2  0  0  0
 23 26  1  0  0  0
 26 28  1  0  0  0
 28 29  2  0  0  0
 29 30  1  0  0  0
 30 31  2  0  0  0
 31 32  1  0  0  0
 32 33  2  0  0  0
 33 28  1  0  0  0
  9 10  1  0  0  0
 26 27  1  0  0  0
M  END
>  <minimizedAffinity>
-2.12765

>  <minimizedRMSD>
2.58025

$$$$
CSC027482254 70012974 CSSS00027482254 MCULE-5800904638 MolPort-015-947-200 PubChem-53624671 Z991650148 ZINC000070012974


 33 37  0  0  0  0  0  0  0  0999 V2000
   16.6745  -10.1742   13.5603 N   0  0  0  0  0  0  0  0  0  0  0  0
   16.6304   -9.0620   12.6535 C   0  0  0  0  0  0  0  0  0  0  0  0
   16.7456   -7.8842   13.0883 O   0  0  0  0  0  0  0  0  0  0  0  0
   16.5837  -11.0699   13.1619 H   0  0  0  0  0  0  0  0  0  0  0  0
   16.4474   -9.3011   11.1966 C   0  0  0  0  0  0  0  0  0  0  0  0
   17.4521   -8.9804   10.2432 C   0  0  0  0  0  0  0  0  0  0  0  0
   17.2073   -9.2256    8.8618 C   0  0  0  0  0  0  0  0  0  0  0  0
   18.1857   -8.9229    7.9108 C   0  0  0  0  0  0  0  0  0  0  0  0
   19.4111   -8.3854    8.3095 C   0  0  0  0  0  0  0  0  0  0  0  0
   19.6662   -8.1496    9.6618 C   0  0  0  0  0  0  0  0  0  0  0  0
   18.6951   -8.4469   10.6212 C   0  0  0  0  0  0  0  0  0  0  0  0
   16.0237   -9.7603    8.4572 N   0  0  0  0  0  0  0  0  0  0  0  0
   15.0688  -10.0707    9.3666 C   0  0  0  0  0  0  0  0  0  0  0  0
   15.2512   -9.8597   10.7069 C   0  0  0  0  0  0  0  0  0  0  0  0
   14.0370  -10.2386   11.4716 C   0  0  0  0  0  0  0  0  0  0  0  0
   13.0643  -10.7674   10.4087 C   0  0  0  0  0  0  0  0  0  0  0  0
   13.7436  -10.6315    9.0417 C   0  0  0  0  0  0  0  0  0  0  0  0
   16.3170   -9.1678   17.1678 C   0  0  0  0  0  0  0  0  0  0  0  0
   16.1391   -9.1975   15.7772 C   0  0  0  0  0  0  0  0  0  0  0  0
   16.8367  -10.1206   14.9840 C   0  0  0  0  0  0  0  0  0  0  0  0
   17.7177  -11.0184   15.5947 C   0  0  0  0  0  0  0  0  0  0  0  0
   17.9019  -10.9971   16.9794 C   0  0  0  0  0  0  0  0  0  0  0  0
   17.2040  -10.0749   17.7632 C   0  0  0  0  0  0  0  0  0  0  0  0
   14.8900   -7.2981   17.4357 O   0  0  0  0  0  0  0  0  0  0  0  0
   15.5801   -8.1946   17.9932 C   0  0  0  0  0  0  0  0  0  0  0  0
   15.6544   -8.2754   19.4250 N   0  0  0  0  0  0  0  0  0  0  0  0
   16.2101   -8.9981   19.7967 H   0  0  0  0  0  0  0  0  0  0  0  0
   15.0050   -7.4148   20.3706 C   0  0  0  0  0  0  0  0  0  0  0  0
   15.7594   -6.8681   21.4118 C   0  0  0  0  0  0  0  0  0  0  0  0
   15.1445   -6.0277   22.3427 C   0  0  0  0  0  0  0  0  0  0  0  0
   13.8188   -5.7442   22.2342 N   0  0  0  0  0  0  0  0  0  0  0  0
   13.0613   -6.2626   21.2310 C   0  0  0  0  0  0  0  0  0  0  0  0
   13.6407   -7.1069   20.2815 C   0  0  0  0  0  0  0  0  0  0  0  0
 24 25  2  0  0  0
 25 18  1  0  0  0
 18 19  2  0  0  0
 19 20  1  0  0  0
 20  1  1  0  0  0
  1  2  1  0  0  0
  2  5  1  0  0  0
  5  6  1  0  0  0
  6  7  1  0  0  0
  7  8  2  0  0  0
  8  9  1  0  0  0
  9 10  2  0  0  0
 10 11  1  0  0  0
  7 12  1  0  0  0
 12 13  2  0  0  0
 13 14  1  0  0  0
 14 15  1  0  0  0
 15 16  1  0  0  0
 16 17  1  0  0  0
  2  3  2  0  0  0
 20 21  2  0  0  0
 21 22  1  0  0  0
 22 23  2  0  0  0
 25 26  1  0  0  0
 26 28  1  0  0  0
 28 29  2  0  0  0
 29 30  1  0  0  0
 30 31  2  0  0  0
 31 32  1  0  0  0
 32 33  2  0  0  0
 23 18  1  0  0  0
 33 28  1  0  0  0
 14  5  2  0  0  0
 11  6  2  0  0  0
 17 13  1  0  0  0
  1  4  1  0  0  0
 26 27  1  0  0  0
M  END
>  <minimizedAffinity>
-2.09339

>  <minimizedRMSD>
1.81232

$$$$
CSC046858174 917403 CSSS00046858174 ChemDiv-4606-1779 LN01015179 MCULE-9814718342 MolPort-001-550-285 PubChem-1164340 ZINC000000917403 ZINC00917403


 38 41  0  0  0  0  0  0  0  0999 V2000
   14.8262   -7.7001   16.9177 C   0  0  0  0  0  0  0  0  0  0  0  0
   15.4469   -8.2030   15.7644 C   0  0  0  0  0  0  0  0  0  0  0  0
   16.5278   -9.0837   15.8519 C   0  0  0  0  0  0  0  0  0  0  0  0
   17.0366   -9.4341   17.1185 C   0  0  0  0  0  0  0  0  0  0  0  0
   16.4087   -8.9345   18.2698 C   0  0  0  0  0  0  0  0  0  0  0  0
   15.3036   -8.0777   18.1810 C   0  0  0  0  0  0  0  0  0  0  0  0
   17.1219   -9.5483   14.6334 N   0  0  0  0  0  0  0  0  0  0  0  0
   16.4178  -10.1413   13.5376 C   0  0  0  0  0  0  0  0  0  0  0  0
   15.1640  -10.0535   13.4518 O   0  0  0  0  0  0  0  0  0  0  0  0
   18.0974   -9.4512   14.5424 H   0  0  0  0  0  0  0  0  0  0  0  0
   17.1852  -10.7843   12.4344 C   0  0  0  0  0  0  0  0  0  0  0  0
   16.7887  -10.2183   11.1530 N   0  0  0  0  0  0  0  0  0  0  0  0
   15.5578  -10.2869   10.5882 C   0  0  0  0  0  0  0  0  0  0  0  0
   15.4881   -9.6046    9.4124 N   0  0  0  0  0  0  0  0  0  0  0  0
   16.7306   -9.1010    9.2753 C   0  0  0  0  0  0  0  0  0  0  0  0
   17.5127   -9.4619   10.3155 C   0  0  0  0  0  0  0  0  0  0  0  0
   18.8358   -9.0413   10.3815 C   0  0  0  0  0  0  0  0  0  0  0  0
   19.5753   -9.3777   11.3467 O   0  0  0  0  0  0  0  0  0  0  0  0
   19.3109   -8.2532    9.3629 N   0  0  0  0  0  0  0  0  0  0  0  0
   20.6951   -7.7911    9.3969 C   0  0  0  0  0  0  0  0  0  0  0  0
   18.4948   -7.8944    8.3083 C   0  0  0  0  0  0  0  0  0  0  0  0
   18.9492   -7.1682    7.3794 O   0  0  0  0  0  0  0  0  0  0  0  0
   17.1893   -8.3224    8.2625 N   0  0  0  0  0  0  0  0  0  0  0  0
   16.3100   -7.9533    7.1600 C   0  0  0  0  0  0  0  0  0  0  0  0
   14.6564   -7.5647   19.3558 N   0  0  0  0  0  0  0  0  0  0  0  0
   15.2867   -6.9663   20.4989 C   0  0  0  0  0  0  0  0  0  0  0  0
   16.5403   -6.8354   20.5462 O   0  0  0  0  0  0  0  0  0  0  0  0
   13.6744   -7.6302   19.3800 H   0  0  0  0  0  0  0  0  0  0  0  0
   14.4605   -6.4997   21.6263 C   0  0  0  0  0  0  0  0  0  0  0  0
   13.1082   -6.1835   21.4304 C   0  0  0  0  0  0  0  0  0  0  0  0
   12.3234   -5.7406   22.4993 C   0  0  0  0  0  0  0  0  0  0  0  0
   12.8853   -5.6105   23.7720 C   0  0  0  0  0  0  0  0  0  0  0  0
   14.2318   -5.9233   23.9764 C   0  0  0  0  0  0  0  0  0  0  0  0
   15.0166   -6.3664   22.9076 C   0  0  0  0  0  0  0  0  0  0  0  0
   12.5546   -6.9896   17.6027 C   0  0  0  0  0  0  0  0  0  0  0  0
   13.7358   -6.8270   16.8292 O   0  0  0  0  0  0  0  0  0  0  0  0
   18.1741  -10.2429   17.2209 O   0  0  0  0  0  0  0  0  0  0  0  0
   18.1237  -11.6606   17.1330 C   0  0  0  0  0  0  0  0  0  0  0  0
 35 36  1  0  0  0
 36  1  1  0  0  0
  1  2  2  0  0  0
  2  3  1  0  0  0
  3  7  1  0  0  0
  3  4  2  0  0  0
  7  8  1  0  0  0
  8  9  2  0  0  0
  8 11  1  0  0  0
 11 12  1  0  0  0
 12 13  1  0  0  0
 13 14  2  0  0  0
 14 15  1  0  0  0
 15 16  2  0  0  0
 16 17  1  0  0  0
 16 12  1  0  0  0
 17 18  2  0  0  0
 17 19  1  0  0  0
 19 20  1  0  0  0
 19 21  1  0  0  0
 21 22  2  0  0  0
 21 23  1  0  0  0
 23 24  1  0  0  0
 23 15  1  0  0  0
  4 37  1  0  0  0
  4  5  1  0  0  0
 37 38  1  0  0  0
  5  6  2  0  0  0
  6 25  1  0  0  0
  6  1  1  0  0  0
 25 26  1  0  0  0
 26 27  2  0  0  0
 26 29  1  0  0  0
 29 30  2  0  0  0
 30 31  1  0  0  0
 31 32  2  0  0  0
 32 33  1  0  0  0
 33 34  2  0  0  0
 34 29  1  0  0  0
  7 10  1  0  0  0
 25 28  1  0  0  0
M  END
>  <minimizedAffinity>
-2.07690

>  <minimizedRMSD>
2.50378

$$$$
CSSS07041620790 MCULE-2834233076 MCULE-8947396390 MolPort-051-470-791 PubChem-163309055 PubChem-164184990


 26 29  0  0  0  0  0  0  0  0999 V2000
   16.6117   -9.7152   14.8279 C   0  0  0  0  0  0  0  0  0  0  0  0
   17.8554  -10.4896   15.2676 C   0  0  0  0  0  0  0  0  0  0  0  0
   18.4166  -11.2994   14.1005 C   0  0  0  0  0  0  0  0  0  0  0  0
   18.7543  -10.3694   12.9396 C   0  0  0  0  0  0  0  0  0  0  0  0
   17.5753   -9.5829   12.5903 N   0  0  0  0  0  0  0  0  0  0  0  0
   16.9343   -8.8031   13.6453 C   0  0  0  0  0  0  0  0  0  0  0  0
   17.1133   -9.5169   11.2302 C   0  0  0  0  0  0  0  0  0  0  0  0
   15.8228   -9.9618   10.8535 C   0  0  0  0  0  0  0  0  0  0  0  0
   14.8933  -10.5765   11.8524 C   0  0  0  0  0  0  0  0  0  0  0  0
   15.4427   -9.8589    9.4910 C   0  0  0  0  0  0  0  0  0  0  0  0
   14.0991  -10.3135    9.0287 C   0  0  0  0  0  0  0  0  0  0  0  0
   16.3078   -9.3430    8.5717 N   0  0  0  0  0  0  0  0  0  0  0  0
   17.5333   -8.9362    8.9755 C   0  0  0  0  0  0  0  0  0  0  0  0
   18.5269   -8.3804    8.2025 C   0  0  0  0  0  0  0  0  0  0  0  0
   19.5357   -8.1431    9.1423 C   0  0  0  0  0  0  0  0  0  0  0  0
   19.1364   -8.5396   10.3752 N   0  0  0  0  0  0  0  0  0  0  0  0
   17.9165   -9.0243   10.2490 N   0  0  0  0  0  0  0  0  0  0  0  0
   17.0373  -10.2869   17.8340 C   0  0  0  0  0  0  0  0  0  0  0  0
   16.2557   -9.2018   17.2609 N   0  0  0  0  0  0  0  0  0  0  0  0
   15.5634   -8.2458   17.9031 C   0  0  0  0  0  0  0  0  0  0  0  0
   14.9722   -7.4017   17.0355 N   0  0  0  0  0  0  0  0  0  0  0  0
   15.2760   -7.8267   15.8160 N   0  0  0  0  0  0  0  0  0  0  0  0
   16.0571   -8.9168   15.9629 C   0  0  0  0  0  0  0  0  0  0  0  0
   15.5049   -8.0867   19.3840 C   0  0  0  0  0  0  0  0  0  0  0  0
   16.4440   -7.1394   19.7902 O   0  0  0  0  0  0  0  0  0  0  0  0
   17.3319   -7.4335   19.5333 H   0  0  0  0  0  0  0  0  0  0  0  0
 18 19  1  0  0  0
 19 20  1  0  0  0
 20 24  1  0  0  0
 24 25  1  0  0  0
 20 21  2  0  0  0
 21 22  1  0  0  0
 22 23  2  0  0  0
 23  1  1  0  0  0
  1  2  1  0  0  0
  2  3  1  0  0  0
  3  4  1  0  0  0
  4  5  1  0  0  0
  5  6  1  0  0  0
  5  7  1  0  0  0
  7  8  2  0  0  0
  8  9  1  0  0  0
  8 10  1  0  0  0
 10 11  1  0  0  0
 10 12  2  0  0  0
 12 13  1  0  0  0
 13 14  2  0  0  0
 14 15  1  0  0  0
 15 16  2  0  0  0
 16 17  1  0  0  0
 23 19  1  0  0  0
  6  1  1  0  0  0
 17  7  1  0  0  0
 17 13  1  0  0  0
 25 26  1  0  0  0
M  END
>  <minimizedAffinity>
-2.07478

>  <minimizedRMSD>
2.17939

$$$$
CSC027473886 32810260 CSSS00027473886 MCULE-5700027307 MolPort-005-718-858 PubChem-40043756 Z361018238 ZINC000032810260


 38 41  0  0  0  0  0  0  0  0999 V2000
   16.6401   -9.7481   13.7793 N   0  0  0  0  0  0  0  0  0  0  0  0
   17.9241   -9.7508   13.1464 C   0  0  0  0  0  0  0  0  0  0  0  0
   18.9794   -9.5602   13.8061 O   0  0  0  0  0  0  0  0  0  0  0  0
   15.8720  -10.0167   13.2252 H   0  0  0  0  0  0  0  0  0  0  0  0
   16.7117  -10.1628   16.2542 C   0  0  0  0  0  0  0  0  0  0  0  0
   16.3620   -9.3929   15.1406 C   0  0  0  0  0  0  0  0  0  0  0  0
   15.5143   -8.0319   15.6465 S   0  0  0  0  0  0  0  0  0  0  0  0
   15.5777   -8.3740   17.2915 C   0  0  0  0  0  0  0  0  0  0  0  0
   16.2688   -9.5806   17.4678 C   0  0  0  0  0  0  0  0  0  0  0  0
   16.5060  -10.1898   18.8117 C   0  0  0  0  0  0  0  0  0  0  0  0
   14.9759   -7.5125   18.3285 C   0  0  0  0  0  0  0  0  0  0  0  0
   15.6186   -7.3089   19.5824 N   0  0  0  0  0  0  0  0  0  0  0  0
   13.8749   -6.9435   18.1060 O   0  0  0  0  0  0  0  0  0  0  0  0
   16.4798   -7.7470   19.7710 H   0  0  0  0  0  0  0  0  0  0  0  0
   15.2019   -6.7299   20.2608 H   0  0  0  0  0  0  0  0  0  0  0  0
   17.4618  -11.4418   16.1582 C   0  0  0  0  0  0  0  0  0  0  0  0
   18.3595  -11.7122   17.0027 O   0  0  0  0  0  0  0  0  0  0  0  0
   17.1699  -12.3579   15.1420 O   0  0  0  0  0  0  0  0  0  0  0  0
   19.0529  -12.4716   13.6345 C   0  0  0  0  0  0  0  0  0  0  0  0
   18.1475  -13.2301   14.5866 C   0  0  0  0  0  0  0  0  0  0  0  0
   18.0063   -9.9572   11.6726 C   0  0  0  0  0  0  0  0  0  0  0  0
   17.7340   -8.7411   10.9853 O   0  0  0  0  0  0  0  0  0  0  0  0
   18.1538   -8.5133    9.6731 C   0  0  0  0  0  0  0  0  0  0  0  0
   17.6634   -9.1751    8.5974 N   0  0  0  0  0  0  0  0  0  0  0  0
   18.2938   -8.6737    7.5540 N   0  0  0  0  0  0  0  0  0  0  0  0
   19.1552   -7.7312    7.9502 C   0  0  0  0  0  0  0  0  0  0  0  0
   19.9237   -7.0560    7.0614 N   0  0  0  0  0  0  0  0  0  0  0  0
   19.8172   -7.3456    5.7278 C   0  0  0  0  0  0  0  0  0  0  0  0
   18.9083   -8.3407    5.2984 C   0  0  0  0  0  0  0  0  0  0  0  0
   18.1335   -9.0128    6.2510 C   0  0  0  0  0  0  0  0  0  0  0  0
   17.1615  -10.0609    5.8324 C   0  0  0  0  0  0  0  0  0  0  0  0
   19.1210   -7.5702    9.3196 C   0  0  0  0  0  0  0  0  0  0  0  0
   20.6486   -6.6141    4.7479 C   0  0  0  0  0  0  0  0  0  0  0  0
   21.5831   -7.3052    3.9611 C   0  0  0  0  0  0  0  0  0  0  0  0
   22.3742   -6.6211    3.0336 C   0  0  0  0  0  0  0  0  0  0  0  0
   22.2379   -5.2388    2.8836 C   0  0  0  0  0  0  0  0  0  0  0  0
   21.3110   -4.5403    3.6611 C   0  0  0  0  0  0  0  0  0  0  0  0
   20.5204   -5.2243    4.5885 C   0  0  0  0  0  0  0  0  0  0  0  0
 19 20  1  0  0  0
 20 18  1  0  0  0
 18 16  1  0  0  0
 16  5  1  0  0  0
  5  6  2  0  0  0
  6  1  1  0  0  0
  1  2  1  0  0  0
  2 21  1  0  0  0
 21 22  1  0  0  0
 22 23  1  0  0  0
 23 24  2  0  0  0
 24 25  1  0  0  0
 25 26  1  0  0  0
 26 27  1  0  0  0
 27 28  2  0  0  0
 28 33  1  0  0  0
 33 34  2  0  0  0
 34 35  1  0  0  0
 35 36  2  0  0  0
 36 37  1  0  0  0
 37 38  2  0  0  0
 28 29  1  0  0  0
 29 30  2  0  0  0
 30 31  1  0  0  0
 26 32  2  0  0  0
  2  3  2  0  0  0
  6  7  1  0  0  0
  7  8  1  0  0  0
  8 11  1  0  0  0
 11 12  1  0  0  0
 11 13  2  0  0  0
  8  9  2  0  0  0
  9 10  1  0  0  0
 16 17  2  0  0  0
  9  5  1  0  0  0
 32 23  1  0  0  0
 30 25  1  0  0  0
 38 33  1  0  0  0
  1  4  1  0  0  0
 12 14  1  0  0  0
 12 15  1  0  0  0
M  END
>  <minimizedAffinity>
-2.06741

>  <minimizedRMSD>
5.12274

$$$$
CSSS20447595068


 26 29  0  0  0  0  0  0  0  0999 V2000
   17.5857   -9.1293   10.8622 N   0  0  0  0  0  0  0  0  0  0  0  0
   18.2924   -8.6441   11.3464 H   0  0  0  0  0  0  0  0  0  0  0  0
   15.7952  -10.7911    6.6056 C   0  0  0  0  0  0  0  0  0  0  0  0
   16.7673   -9.9476    7.3482 C   0  0  0  0  0  0  0  0  0  0  0  0
   17.6849   -9.2035    6.6607 N   0  0  0  0  0  0  0  0  0  0  0  0
   18.5545   -8.4472    7.3725 C   0  0  0  0  0  0  0  0  0  0  0  0
   18.5459   -8.4037    8.7273 C   0  0  0  0  0  0  0  0  0  0  0  0
   19.5011   -7.5843    9.2038 N   0  0  0  0  0  0  0  0  0  0  0  0
   20.1286   -7.0991    8.0987 C   0  0  0  0  0  0  0  0  0  0  0  0
   19.5564   -7.6227    6.9412 C   0  0  0  0  0  0  0  0  0  0  0  0
   20.0691   -7.2597    5.1406 Br  0  0  0  0  0  0  0  0  0  0  0  0
   17.6176   -9.1562    9.4349 C   0  0  0  0  0  0  0  0  0  0  0  0
   16.7381   -9.9207    8.7190 N   0  0  0  0  0  0  0  0  0  0  0  0
   19.7018   -7.3807   10.1458 H   0  0  0  0  0  0  0  0  0  0  0  0
   16.5412   -9.7967   11.6222 C   0  0  0  0  0  0  0  0  0  0  0  0
   16.9062   -9.8190   13.0640 C   0  0  0  0  0  0  0  0  0  0  0  0
   16.1606   -9.0642   13.9858 C   0  0  0  0  0  0  0  0  0  0  0  0
   16.5551   -9.0989   15.3217 C   0  0  0  0  0  0  0  0  0  0  0  0
   17.6351   -9.8319   15.7490 C   0  0  0  0  0  0  0  0  0  0  0  0
   17.8343   -9.6853   17.2276 C   0  0  0  0  0  0  0  0  0  0  0  0
   16.7539   -8.7820   17.6407 N   0  0  0  0  0  0  0  0  0  0  0  0
   16.0047   -8.4475   16.4786 C   0  0  0  0  0  0  0  0  0  0  0  0
   15.0032   -7.6849   16.4856 O   0  0  0  0  0  0  0  0  0  0  0  0
   18.3933  -10.5808   14.8499 C   0  0  0  0  0  0  0  0  0  0  0  0
   18.0211  -10.5684   13.4944 C   0  0  0  0  0  0  0  0  0  0  0  0
   16.5792   -8.4651   18.5563 H   0  0  0  0  0  0  0  0  0  0  0  0
  3  4  1  0  0  0
  4  5  2  0  0  0
  5  6  1  0  0  0
  6  7  2  0  0  0
  7  8  1  0  0  0
  8  9  1  0  0  0
  9 10  2  0  0  0
 10 11  1  0  0  0
  7 12  1  0  0  0
 12  1  1  0  0  0
  1 15  1  0  0  0
 15 16  1  0  0  0
 16 17  2  0  0  0
 17 18  1  0  0  0
 18 19  2  0  0  0
 19 20  1  0  0  0
 20 21  1  0  0  0
 21 22  1  0  0  0
 22 23  2  0  0  0
 19 24  1  0  0  0
 24 25  2  0  0  0
 12 13  2  0  0  0
 13  4  1  0  0  0
 10  6  1  0  0  0
 25 16  1  0  0  0
 22 18  1  0  0  0
  8 14  1  0  0  0
  1  2  1  0  0  0
 21 26  1  0  0  0
M  END
>  <minimizedAffinity>
-2.06378

>  <minimizedRMSD>
1.15145

$$$$
CSSS00160177469 MCULE-4461490502 MolPort-044-682-088 PubChem-129610549


 26 29  0  0  0  0  0  0  0  0999 V2000
   20.1573   -8.0042    9.4139 C   0  0  0  0  0  0  0  0  0  0  0  0
   18.7882   -8.2537    8.8886 C   0  0  0  0  0  0  0  0  0  0  0  0
   18.4161   -7.9213    7.6296 N   0  0  0  0  0  0  0  0  0  0  0  0
   17.1935   -8.3430    7.4555 O   0  0  0  0  0  0  0  0  0  0  0  0
   16.7690   -8.9333    8.5417 C   0  0  0  0  0  0  0  0  0  0  0  0
   17.7325   -8.9058    9.5124 C   0  0  0  0  0  0  0  0  0  0  0  0
   17.5081   -9.5091   10.7644 C   0  0  0  0  0  0  0  0  0  0  0  0
   16.2594  -10.1387   10.9426 C   0  0  0  0  0  0  0  0  0  0  0  0
   15.2891  -10.1279    9.9145 C   0  0  0  0  0  0  0  0  0  0  0  0
   15.5655   -9.5287    8.7173 N   0  0  0  0  0  0  0  0  0  0  0  0
   18.4674   -9.5012   11.8868 C   0  0  0  0  0  0  0  0  0  0  0  0
   19.6523   -9.1092   11.7188 O   0  0  0  0  0  0  0  0  0  0  0  0
   18.0272   -9.8860   13.1912 N   0  0  0  0  0  0  0  0  0  0  0  0
   17.0946  -10.1771   13.3127 H   0  0  0  0  0  0  0  0  0  0  0  0
   18.9125   -9.8612   14.3444 C   0  0  0  0  0  0  0  0  0  0  0  0
   19.2161  -11.2795   14.7952 C   0  0  0  0  0  0  0  0  0  0  0  0
   17.7061  -12.1058   15.3892 S   0  0  0  0  0  0  0  0  0  0  0  0
   16.9908  -10.5825   15.9957 C   0  0  0  0  0  0  0  0  0  0  0  0
   16.0457   -9.8884   15.3371 N   0  0  0  0  0  0  0  0  0  0  0  0
   15.8226   -8.8478   16.1654 C   0  0  0  0  0  0  0  0  0  0  0  0
   16.5970   -8.9205   17.2658 N   0  0  0  0  0  0  0  0  0  0  0  0
   17.3325  -10.0128   17.1611 N   0  0  0  0  0  0  0  0  0  0  0  0
   17.9975  -10.3424   17.8081 H   0  0  0  0  0  0  0  0  0  0  0  0
   13.9844  -10.8328   10.1160 C   0  0  0  0  0  0  0  0  0  0  0  0
   13.4583  -10.5673   11.5161 C   0  0  0  0  0  0  0  0  0  0  0  0
   12.8693   -9.8256   10.3386 C   0  0  0  0  0  0  0  0  0  0  0  0
  1  2  1  0  0  0
  2  3  2  0  0  0
  3  4  1  0  0  0
  4  5  1  0  0  0
  5  6  2  0  0  0
  6  7  1  0  0  0
  7  8  2  0  0  0
  8  9  1  0  0  0
  9 10  2  0  0  0
  9 24  1  0  0  0
 24 25  1  0  0  0
 25 26  1  0  0  0
  7 11  1  0  0  0
 11 12  2  0  0  0
 11 13  1  0  0  0
 13 15  1  0  0  0
 15 16  1  0  0  0
 16 17  1  0  0  0
 17 18  1  0  0  0
 18 19  2  0  0  0
 19 20  1  0  0  0
 20 21  2  0  0  0
 21 22  1  0  0  0
  6  2  1  0  0  0
 10  5  1  0  0  0
 26 24  1  0  0  0
 22 18  1  0  0  0
 13 14  1  0  0  0
 22 23  1  0  0  0
M  END
>  <minimizedAffinity>
-2.03340

>  <minimizedRMSD>
1.78177

$$$$
CSSS00159453936 MCULE-4880992336 MolPort-005-018-442 PubChem-45179281


 37 41  0  0  0  0  0  0  0  0999 V2000
   16.1705   -8.6724   14.4401 C   0  0  0  0  0  0  0  0  0  0  0  0
   17.5102   -8.9223   14.7573 C   0  0  0  0  0  0  0  0  0  0  0  0
   17.9644   -8.7902   16.0305 N   0  0  0  0  0  0  0  0  0  0  0  0
   17.1354   -8.4120   17.0371 C   0  0  0  0  0  0  0  0  0  0  0  0
   15.7832   -8.1457   16.7966 C   0  0  0  0  0  0  0  0  0  0  0  0
   15.2947   -8.2781   15.4771 C   0  0  0  0  0  0  0  0  0  0  0  0
   14.0808   -8.0455   15.2259 O   0  0  0  0  0  0  0  0  0  0  0  0
   15.9506  -10.0830   12.3595 N   0  0  0  0  0  0  0  0  0  0  0  0
   15.7341   -8.8328   13.0317 C   0  0  0  0  0  0  0  0  0  0  0  0
   15.1767   -7.8813   12.4195 O   0  0  0  0  0  0  0  0  0  0  0  0
   16.3734  -10.8081   12.8740 H   0  0  0  0  0  0  0  0  0  0  0  0
   14.1342  -10.0213   10.7021 C   0  0  0  0  0  0  0  0  0  0  0  0
   15.5914  -10.3622   10.9692 C   0  0  0  0  0  0  0  0  0  0  0  0
   16.5028   -9.6767    9.9925 C   0  0  0  0  0  0  0  0  0  0  0  0
   16.3574   -9.8173    8.6478 N   0  0  0  0  0  0  0  0  0  0  0  0
   17.3617   -9.0720    8.1662 C   0  0  0  0  0  0  0  0  0  0  0  0
   17.6928   -8.8514    6.8316 C   0  0  0  0  0  0  0  0  0  0  0  0
   18.8019   -8.0256    6.5689 C   0  0  0  0  0  0  0  0  0  0  0  0
   19.5378   -7.4529    7.6307 C   0  0  0  0  0  0  0  0  0  0  0  0
   19.1733   -7.6992    8.9676 C   0  0  0  0  0  0  0  0  0  0  0  0
   18.0706   -8.5203    9.1887 C   0  0  0  0  0  0  0  0  0  0  0  0
   17.5489   -8.8902   10.3660 N   0  0  0  0  0  0  0  0  0  0  0  0
   17.8474   -8.6527   11.2736 H   0  0  0  0  0  0  0  0  0  0  0  0
   14.9273   -7.7410   17.9386 C   0  0  0  0  0  0  0  0  0  0  0  0
   13.6928   -7.5380   17.7786 O   0  0  0  0  0  0  0  0  0  0  0  0
   15.5067   -7.5806   19.2371 N   0  0  0  0  0  0  0  0  0  0  0  0
   16.4725   -7.7354   19.3495 H   0  0  0  0  0  0  0  0  0  0  0  0
   14.7176   -7.1971   20.3957 C   0  0  0  0  0  0  0  0  0  0  0  0
   15.6487   -6.7843   21.5160 C   0  0  0  0  0  0  0  0  0  0  0  0
   15.0049   -8.1539   21.5343 C   0  0  0  0  0  0  0  0  0  0  0  0
   19.3617   -9.0664   16.3253 C   0  0  0  0  0  0  0  0  0  0  0  0
   19.6091  -10.5710   16.4293 C   0  0  0  0  0  0  0  0  0  0  0  0
   20.0665  -11.1729   15.0945 C   0  0  0  0  0  0  0  0  0  0  0  0
   18.9321  -11.1917   14.0704 C   0  0  0  0  0  0  0  0  0  0  0  0
   17.7392  -11.9646   14.6220 C   0  0  0  0  0  0  0  0  0  0  0  0
   17.2469  -11.3147   15.9105 C   0  0  0  0  0  0  0  0  0  0  0  0
   18.3650  -11.2933   16.9533 C   0  0  0  0  0  0  0  0  0  0  0  0
 13 12  1  0  0  0
 13  8  1  0  0  0
 13 14  1  0  0  0
  8  9  1  0  0  0
  9 10  2  0  0  0
  9  1  1  0  0  0
  1  2  2  0  0  0
  2  3  1  0  0  0
  3 31  1  0  0  0
  3  4  1  0  0  0
 31 32  1  0  0  0
 32 33  1  0  0  0
 33 34  1  0  0  0
 34 35  1  0  0  0
 35 36  1  0  0  0
 36 37  1  0  0  0
 37 32  1  0  0  0
  4  5  2  0  0  0
  5 24  1  0  0  0
  5  6  1  0  0  0
 24 25  2  0  0  0
 24 26  1  0  0  0
 26 28  1  0  0  0
 28 29  1  0  0  0
 29 30  1  0  0  0
 30 28  1  0  0  0
  6  7  2  0  0  0
  6  1  1  0  0  0
 14 15  2  0  0  0
 15 16  1  0  0  0
 16 17  2  0  0  0
 17 18  1  0  0  0
 18 19  2  0  0  0
 19 20  1  0  0  0
 20 21  2  0  0  0
 21 22  1  0  0  0
 21 16  1  0  0  0
 22 14  1  0  0  0
  8 11  1  0  0  0
 26 27  1  0  0  0
 22 23  1  0  0  0
M  END
>  <minimizedAffinity>
-2.03295

>  <minimizedRMSD>
2.45379

$$$$
CSSS02495344990 MCULE-8341887819 MolPort-047-529-687 PubChem-154567621


 27 29  0  0  0  0  0  0  0  0999 V2000
   16.2866   -9.3542   12.0465 C   0  0  0  0  0  0  0  0  0  0  0  0
   15.3964  -10.5960   12.0427 C   0  0  0  0  0  0  0  0  0  0  0  0
   15.6360  -11.4189   10.7775 C   0  0  0  0  0  0  0  0  0  0  0  0
   15.3540  -10.5702    9.5408 C   0  0  0  0  0  0  0  0  0  0  0  0
   16.1283   -9.3354    9.6139 N   0  0  0  0  0  0  0  0  0  0  0  0
   16.0017   -8.5058   10.8066 C   0  0  0  0  0  0  0  0  0  0  0  0
   17.0340   -8.9697    8.5686 C   0  0  0  0  0  0  0  0  0  0  0  0
   16.9037   -9.4050    7.2862 N   0  0  0  0  0  0  0  0  0  0  0  0
   17.9555   -8.8177    6.6914 C   0  0  0  0  0  0  0  0  0  0  0  0
   18.3371   -8.9041    5.3552 C   0  0  0  0  0  0  0  0  0  0  0  0
   19.4875   -8.1922    4.9650 C   0  0  0  0  0  0  0  0  0  0  0  0
   20.2138   -7.4256    5.9053 C   0  0  0  0  0  0  0  0  0  0  0  0
   21.6405   -6.5500    5.3951 Cl  0  0  0  0  0  0  0  0  0  0  0  0
   19.7983   -7.3613    7.2488 C   0  0  0  0  0  0  0  0  0  0  0  0
   18.6571   -8.0780    7.5961 C   0  0  0  0  0  0  0  0  0  0  0  0
   18.0773   -8.1781    8.7608 O   0  0  0  0  0  0  0  0  0  0  0  0
   16.0317   -8.5499   13.3105 C   0  0  0  0  0  0  0  0  0  0  0  0
   18.1486  -10.5710   12.8909 C   0  0  0  0  0  0  0  0  0  0  0  0
   18.1439   -9.7543   14.0946 N   0  0  0  0  0  0  0  0  0  0  0  0
   17.1415   -8.7432   14.2959 C   0  0  0  0  0  0  0  0  0  0  0  0
   17.1998   -7.9834   15.2997 O   0  0  0  0  0  0  0  0  0  0  0  0
   19.2473   -9.9187   15.0325 C   0  0  0  0  0  0  0  0  0  0  0  0
   18.7702   -9.7535   16.4358 C   0  0  0  0  0  0  0  0  0  0  0  0
   17.8149  -10.6595   16.9751 N   0  0  0  0  0  0  0  0  0  0  0  0
   19.1993   -8.8020   17.1383 O   0  0  0  0  0  0  0  0  0  0  0  0
   17.4784  -11.4044   16.4263 H   0  0  0  0  0  0  0  0  0  0  0  0
   17.4904  -10.5415   17.8970 H   0  0  0  0  0  0  0  0  0  0  0  0
 18 19  1  0  0  0
 19 22  1  0  0  0
 22 23  1  0  0  0
 23 24  1  0  0  0
 23 25  2  0  0  0
 19 20  1  0  0  0
 20 21  2  0  0  0
 20 17  1  0  0  0
 17  1  1  0  0  0
  1  2  1  0  0  0
  2  3  1  0  0  0
  3  4  1  0  0  0
  4  5  1  0  0  0
  5  6  1  0  0  0
  5  7  1  0  0  0
  7  8  2  0  0  0
  8  9  1  0  0  0
  9 10  2  0  0  0
 10 11  1  0  0  0
 11 12  2  0  0  0
 12 13  1  0  0  0
 12 14  1  0  0  0
 14 15  2  0  0  0
 15 16  1  0  0  0
  6  1  1  0  0  0
 16  7  1  0  0  0
 15  9  1  0  0  0
 24 26  1  0  0  0
 24 27  1  0  0  0
M  END
>  <minimizedAffinity>
-2.01607

>  <minimizedRMSD>
2.40319

$$$$
CSSS00116278241 MCULE-2506487691 PubChem-16377395 Z62866563


 36 39  0  0  0  0  0  0  0  0999 V2000
   17.5012  -10.6595   15.4914 C   0  0  0  0  0  0  0  0  0  0  0  0
   17.0502   -9.5148   14.8107 C   0  0  0  0  0  0  0  0  0  0  0  0
   17.2988   -9.3761   13.4405 C   0  0  0  0  0  0  0  0  0  0  0  0
   17.9930  -10.3664   12.7337 C   0  0  0  0  0  0  0  0  0  0  0  0
   18.4400  -11.5053   13.4140 C   0  0  0  0  0  0  0  0  0  0  0  0
   18.1968  -11.6512   14.7812 C   0  0  0  0  0  0  0  0  0  0  0  0
   18.2483  -10.2119   11.2913 C   0  0  0  0  0  0  0  0  0  0  0  0
   18.7931   -9.1604   10.8565 O   0  0  0  0  0  0  0  0  0  0  0  0
   17.8819  -11.2562   10.3830 N   0  0  0  0  0  0  0  0  0  0  0  0
   17.4945  -12.0838   10.7494 H   0  0  0  0  0  0  0  0  0  0  0  0
   18.0566  -11.1487    8.9415 C   0  0  0  0  0  0  0  0  0  0  0  0
   17.4048   -9.9046    8.4336 C   0  0  0  0  0  0  0  0  0  0  0  0
   16.0926   -9.6155    8.5869 N   0  0  0  0  0  0  0  0  0  0  0  0
   15.8809   -8.4223    8.0360 N   0  0  0  0  0  0  0  0  0  0  0  0
   17.0718   -8.0118    7.5627 C   0  0  0  0  0  0  0  0  0  0  0  0
   18.0371   -8.9092    7.7950 N   0  0  0  0  0  0  0  0  0  0  0  0
   19.3310   -8.7450    7.4238 C   0  0  0  0  0  0  0  0  0  0  0  0
   19.6697   -7.5578    6.7567 C   0  0  0  0  0  0  0  0  0  0  0  0
   18.6708   -6.5959    6.5003 C   0  0  0  0  0  0  0  0  0  0  0  0
   17.3426   -6.8150    6.9060 C   0  0  0  0  0  0  0  0  0  0  0  0
   16.1795   -8.2418   15.6617 S   0  0  0  0  0  0  0  0  0  0  0  0
   14.7221   -8.3169   15.3043 O   0  0  0  0  0  0  0  0  0  0  0  0
   16.7109   -6.8953   15.2534 O   0  0  0  0  0  0  0  0  0  0  0  0
   16.3632   -8.4358   17.3725 N   0  0  0  0  0  0  0  0  0  0  0  0
   17.0900   -7.8087   17.7171 H   0  0  0  0  0  0  0  0  0  0  0  0
   15.0900   -8.1076   17.9945 C   0  0  0  0  0  0  0  0  0  0  0  0
   15.3248   -7.3940   19.3123 C   0  0  0  0  0  0  0  0  0  0  0  0
   14.0349   -7.3301   20.1118 C   0  0  0  0  0  0  0  0  0  0  0  0
   14.0997   -6.2354   21.0645 N   0  0  0  0  0  0  0  0  0  0  0  0
   12.8693   -5.4521   20.9102 C   0  0  0  0  0  0  0  0  0  0  0  0
   12.6826   -4.4778   22.0856 C   0  0  0  0  0  0  0  0  0  0  0  0
   13.8041   -4.4900   22.9364 O   0  0  0  0  0  0  0  0  0  0  0  0
   13.8778   -5.7824   23.4896 C   0  0  0  0  0  0  0  0  0  0  0  0
   14.1364   -6.8371   22.4001 C   0  0  0  0  0  0  0  0  0  0  0  0
   18.0693  -11.5808   17.7195 C   0  0  0  0  0  0  0  0  0  0  0  0
   17.2528  -10.7948   16.8623 O   0  0  0  0  0  0  0  0  0  0  0  0
 35 36  1  0  0  0
 36  1  1  0  0  0
  1  2  2  0  0  0
  2  3  1  0  0  0
  3  4  2  0  0  0
  4  5  1  0  0  0
  5  6  2  0  0  0
  4  7  1  0  0  0
  7  8  2  0  0  0
  7  9  1  0  0  0
  9 11  1  0  0  0
 11 12  1  0  0  0
 12 13  2  0  0  0
 13 14  1  0  0  0
 14 15  2  0  0  0
 15 16  1  0  0  0
 16 17  1  0  0  0
 17 18  2  0  0  0
 18 19  1  0  0  0
 19 20  2  0  0  0
  2 21  1  0  0  0
 21 22  2  0  0  0
 21 23  2  0  0  0
 21 24  1  0  0  0
 24 26  1  0  0  0
 26 27  1  0  0  0
 27 28  1  0  0  0
 28 29  1  0  0  0
 29 30  1  0  0  0
 30 31  1  0  0  0
 31 32  1  0  0  0
 32 33  1  0  0  0
 33 34  1  0  0  0
  6  1  1  0  0  0
 16 12  1  0  0  0
 20 15  1  0  0  0
 34 29  1  0  0  0
  9 10  1  0  0  0
 24 25  1  0  0  0
M  END
>  <minimizedAffinity>
-2.00378

>  <minimizedRMSD>
2.98366

$$$$
CSC027254440 CSSS00027254440 MCULE-5464551474 MolPort-005-605-477 PubChem-17475500 Z198291932


 32 36  0  0  0  0  0  0  0  0999 V2000
   17.5389  -11.3169   14.7679 S   0  0  0  0  0  0  0  0  0  0  0  0
   19.8612  -11.7328   13.3871 C   0  0  0  0  0  0  0  0  0  0  0  0
   18.6742  -10.7913   13.4374 C   0  0  0  0  0  0  0  0  0  0  0  0
   18.0126  -10.7279   12.0924 C   0  0  0  0  0  0  0  0  0  0  0  0
   17.3174  -11.6922   11.6719 O   0  0  0  0  0  0  0  0  0  0  0  0
   18.1797   -9.5480   11.2970 N   0  0  0  0  0  0  0  0  0  0  0  0
   18.7329   -8.8210   11.6641 H   0  0  0  0  0  0  0  0  0  0  0  0
   17.6061   -9.3591   10.0268 N   0  0  0  0  0  0  0  0  0  0  0  0
   16.4298   -9.8423    9.5564 C   0  0  0  0  0  0  0  0  0  0  0  0
   16.1951   -9.4516    8.2737 N   0  0  0  0  0  0  0  0  0  0  0  0
   17.2743   -8.7054    7.9666 C   0  0  0  0  0  0  0  0  0  0  0  0
   17.5465   -8.0558    6.7652 C   0  0  0  0  0  0  0  0  0  0  0  0
   18.7499   -7.3289    6.6812 C   0  0  0  0  0  0  0  0  0  0  0  0
   19.6348   -7.2713    7.7824 C   0  0  0  0  0  0  0  0  0  0  0  0
   19.3290   -7.9397    8.9827 C   0  0  0  0  0  0  0  0  0  0  0  0
   18.1297   -8.6475    9.0251 C   0  0  0  0  0  0  0  0  0  0  0  0
   16.4407   -9.8787   14.5594 C   0  0  0  0  0  0  0  0  0  0  0  0
   16.2347   -9.1813   15.8599 C   0  0  0  0  0  0  0  0  0  0  0  0
   14.9821   -8.7791   16.2160 N   0  0  0  0  0  0  0  0  0  0  0  0
   14.8111   -8.1429   17.3987 C   0  0  0  0  0  0  0  0  0  0  0  0
   15.8624   -7.8904   18.2606 C   0  0  0  0  0  0  0  0  0  0  0  0
   15.4567   -7.2259   19.4278 C   0  0  0  0  0  0  0  0  0  0  0  0
   14.0890   -6.9438   19.4273 C   0  0  0  0  0  0  0  0  0  0  0  0
   13.3685   -6.3185   20.5811 C   0  0  0  0  0  0  0  0  0  0  0  0
   14.3514   -5.5780   21.4936 C   0  0  0  0  0  0  0  0  0  0  0  0
   15.5673   -6.4549   21.8064 C   0  0  0  0  0  0  0  0  0  0  0  0
   16.3619   -6.7542   20.5304 C   0  0  0  0  0  0  0  0  0  0  0  0
   13.3665   -7.5566   18.0265 S   0  0  0  0  0  0  0  0  0  0  0  0
   17.1416   -8.3116   17.8846 C   0  0  0  0  0  0  0  0  0  0  0  0
   18.1407   -8.1140   18.6253 O   0  0  0  0  0  0  0  0  0  0  0  0
   17.2967   -8.9493   16.6898 N   0  0  0  0  0  0  0  0  0  0  0  0
   18.1940   -9.2498   16.4181 H   0  0  0  0  0  0  0  0  0  0  0  0
  3  2  1  0  0  0
  3  1  1  0  0  0
  3  4  1  0  0  0
  1 17  1  0  0  0
 17 18  1  0  0  0
 18 19  2  0  0  0
 19 20  1  0  0  0
 20 21  2  0  0  0
 21 22  1  0  0  0
 21 29  1  0  0  0
 22 23  2  0  0  0
 23 24  1  0  0  0
 23 28  1  0  0  0
 24 25  1  0  0  0
 25 26  1  0  0  0
 26 27  1  0  0  0
 27 22  1  0  0  0
 28 20  1  0  0  0
 29 30  2  0  0  0
 29 31  1  0  0  0
 31 18  1  0  0  0
  4  5  2  0  0  0
  4  6  1  0  0  0
  6  8  1  0  0  0
  8  9  1  0  0  0
  9 10  2  0  0  0
 10 11  1  0  0  0
 11 12  2  0  0  0
 12 13  1  0  0  0
 13 14  2  0  0  0
 14 15  1  0  0  0
 15 16  2  0  0  0
 16  8  1  0  0  0
 16 11  1  0  0  0
 31 32  1  0  0  0
  6  7  1  0  0  0
M  END
>  <minimizedAffinity>
-2.00112

>  <minimizedRMSD>
2.51946

$$$$
CSSS00132647394 LN00403483 MolPort-038-429-957


 30 33  0  0  0  0  0  0  0  0999 V2000
   15.9484   -9.6120   10.4096 N   0  0  0  0  0  0  0  0  0  0  0  0
   16.2019  -10.4132   11.5695 C   0  0  0  0  0  0  0  0  0  0  0  0
   16.3480  -11.6592   11.4425 O   0  0  0  0  0  0  0  0  0  0  0  0
   15.7647   -8.6527   10.5335 H   0  0  0  0  0  0  0  0  0  0  0  0
   16.2879   -9.7644   12.9039 C   0  0  0  0  0  0  0  0  0  0  0  0
   16.9653  -10.3255   14.0155 C   0  0  0  0  0  0  0  0  0  0  0  0
   17.6233  -11.5644   13.9383 C   0  0  0  0  0  0  0  0  0  0  0  0
   18.2871  -12.0944   15.0468 C   0  0  0  0  0  0  0  0  0  0  0  0
   18.3052  -11.3922   16.2523 C   0  0  0  0  0  0  0  0  0  0  0  0
   17.6611  -10.1581   16.3510 C   0  0  0  0  0  0  0  0  0  0  0  0
   16.9928   -9.6176   15.2439 C   0  0  0  0  0  0  0  0  0  0  0  0
   16.3515   -8.3762   15.3368 C   0  0  0  0  0  0  0  0  0  0  0  0
   16.3610   -7.6588   16.5282 O   0  0  0  0  0  0  0  0  0  0  0  0
   15.7138   -7.8615   14.2553 N   0  0  0  0  0  0  0  0  0  0  0  0
   15.6713   -8.5166   13.0669 C   0  0  0  0  0  0  0  0  0  0  0  0
   16.7987   -8.0058   17.2805 H   0  0  0  0  0  0  0  0  0  0  0  0
   15.9495  -10.1486    9.0557 C   0  0  0  0  0  0  0  0  0  0  0  0
   17.9016   -8.5926    8.7113 N   0  0  0  0  0  0  0  0  0  0  0  0
   16.9632   -9.4392    8.2165 C   0  0  0  0  0  0  0  0  0  0  0  0
   17.0477   -9.6136    6.8712 N   0  0  0  0  0  0  0  0  0  0  0  0
   18.0843   -8.8246    6.5311 C   0  0  0  0  0  0  0  0  0  0  0  0
   18.6104   -8.6185    5.2585 C   0  0  0  0  0  0  0  0  0  0  0  0
   19.7037   -7.7390    5.1437 C   0  0  0  0  0  0  0  0  0  0  0  0
   20.2344   -7.0979    6.2858 C   0  0  0  0  0  0  0  0  0  0  0  0
   19.6799   -7.3278    7.5583 C   0  0  0  0  0  0  0  0  0  0  0  0
   18.5993   -8.2061    7.6337 C   0  0  0  0  0  0  0  0  0  0  0  0
   18.0870   -8.1794   10.0988 C   0  0  0  0  0  0  0  0  0  0  0  0
   19.3908   -8.7332   10.6539 C   0  0  0  0  0  0  0  0  0  0  0  0
   19.5869  -10.9238   10.4585 C   0  0  0  0  0  0  0  0  0  0  0  0
   19.1511   -9.9285   11.3321 O   0  0  0  0  0  0  0  0  0  0  0  0
 29 30  1  0  0  0
 30 28  1  0  0  0
 28 27  1  0  0  0
 27 18  1  0  0  0
 18 19  1  0  0  0
 19 17  1  0  0  0
 17  1  1  0  0  0
  1  2  1  0  0  0
  2  3  2  0  0  0
  2  5  1  0  0  0
  5  6  1  0  0  0
  6  7  2  0  0  0
  7  8  1  0  0  0
  8  9  2  0  0  0
  9 10  1  0  0  0
 10 11  2  0  0  0
 11 12  1  0  0  0
 12 13  1  0  0  0
 12 14  2  0  0  0
 14 15  1  0  0  0
 19 20  2  0  0  0
 20 21  1  0  0  0
 21 22  2  0  0  0
 22 23  1  0  0  0
 23 24  2  0  0  0
 24 25  1  0  0  0
 25 26  2  0  0  0
 26 18  1  0  0  0
 15  5  2  0  0  0
 26 21  1  0  0  0
 11  6  1  0  0  0
  1  4  1  0  0  0
 13 16  1  0  0  0
M  END
>  <minimizedAffinity>
-1.96126

>  <minimizedRMSD>
2.10951

$$$$
CSC028066727 9461273 CHEMBL1886872 CSSS00028066727 MCULE-2477605539 MolPort-009-213-288 PubChem-16309419 Z52021703 ZINC000009461273


 33 36  0  0  0  0  0  0  0  0999 V2000
   17.7816   -9.6664   13.3270 C   0  0  0  0  0  0  0  0  0  0  0  0
   17.2360   -8.8156   14.3375 N   0  0  0  0  0  0  0  0  0  0  0  0
   18.7098  -10.4697   13.6166 O   0  0  0  0  0  0  0  0  0  0  0  0
   16.4932   -8.2139   14.1019 H   0  0  0  0  0  0  0  0  0  0  0  0
   18.3467   -8.4466    8.7880 N   0  0  0  0  0  0  0  0  0  0  0  0
   17.4613   -9.0043    9.6271 C   0  0  0  0  0  0  0  0  0  0  0  0
   17.9822   -9.0488   10.8832 C   0  0  0  0  0  0  0  0  0  0  0  0
   17.2571   -9.5938   11.9485 C   0  0  0  0  0  0  0  0  0  0  0  0
   15.9697  -10.0843   11.6479 C   0  0  0  0  0  0  0  0  0  0  0  0
   15.4592  -10.0049   10.3293 C   0  0  0  0  0  0  0  0  0  0  0  0
   16.2247   -9.4731    9.3271 N   0  0  0  0  0  0  0  0  0  0  0  0
   19.2451   -8.4868   10.7848 C   0  0  0  0  0  0  0  0  0  0  0  0
   19.4311   -8.1301    9.4858 N   0  0  0  0  0  0  0  0  0  0  0  0
   18.2769   -9.5050    6.5796 C   0  0  0  0  0  0  0  0  0  0  0  0
   18.2059   -8.2026    7.3559 C   0  0  0  0  0  0  0  0  0  0  0  0
   16.9007   -7.4873    7.0589 C   0  0  0  0  0  0  0  0  0  0  0  0
   14.1058  -10.5641   10.0211 C   0  0  0  0  0  0  0  0  0  0  0  0
   13.2810  -10.6635   11.2929 C   0  0  0  0  0  0  0  0  0  0  0  0
   13.0296   -9.5347   10.3202 C   0  0  0  0  0  0  0  0  0  0  0  0
   17.7400   -8.8080   15.7019 C   0  0  0  0  0  0  0  0  0  0  0  0
   16.8273   -9.6333   16.5967 C   0  0  0  0  0  0  0  0  0  0  0  0
   15.8638   -8.7657   17.3376 C   0  0  0  0  0  0  0  0  0  0  0  0
   14.7640   -8.2236   16.6646 C   0  0  0  0  0  0  0  0  0  0  0  0
   13.8541   -7.4120   17.3486 C   0  0  0  0  0  0  0  0  0  0  0  0
   14.0385   -7.1431   18.7094 C   0  0  0  0  0  0  0  0  0  0  0  0
   15.1360   -7.6890   19.3841 C   0  0  0  0  0  0  0  0  0  0  0  0
   16.0460   -8.5010   18.7008 C   0  0  0  0  0  0  0  0  0  0  0  0
   12.9052   -6.1179   19.5702 S   0  0  0  0  0  0  0  0  0  0  0  0
   12.5359   -4.7296   18.6087 N   0  0  0  0  0  0  0  0  0  0  0  0
   11.6450   -6.8877   19.8529 O   0  0  0  0  0  0  0  0  0  0  0  0
   13.5130   -5.6629   20.8687 O   0  0  0  0  0  0  0  0  0  0  0  0
   12.1228   -5.0281   17.7251 H   0  0  0  0  0  0  0  0  0  0  0  0
   13.3918   -4.2063   18.4242 H   0  0  0  0  0  0  0  0  0  0  0  0
 14 15  1  0  0  0
 15  5  1  0  0  0
  5  6  1  0  0  0
  6  7  2  0  0  0
  7  8  1  0  0  0
  8  1  1  0  0  0
  1  2  1  0  0  0
  2 20  1  0  0  0
 20 21  1  0  0  0
 21 22  1  0  0  0
 22 23  2  0  0  0
 23 24  1  0  0  0
 24 25  2  0  0  0
 25 28  1  0  0  0
 28 29  1  0  0  0
 28 30  2  0  0  0
 28 31  2  0  0  0
 25 26  1  0  0  0
 26 27  2  0  0  0
  1  3  2  0  0  0
  8  9  2  0  0  0
  9 10  1  0  0  0
 10 17  1  0  0  0
 17 18  1  0  0  0
 18 19  1  0  0  0
 10 11  2  0  0  0
  7 12  1  0  0  0
 12 13  2  0  0  0
 15 16  1  0  0  0
 13  5  1  0  0  0
 11  6  1  0  0  0
 27 22  1  0  0  0
 19 17  1  0  0  0
  2  4  1  0  0  0
 29 32  1  0  0  0
 29 33  1  0  0  0
M  END
>  <minimizedAffinity>
-1.95960

>  <minimizedRMSD>
3.32901

$$$$
CSC025859475 25051939 CSSS00025859475 MCULE-4740264291 MolPort-005-746-755 PubChem-32362807 Z295617838 ZINC000025051939 ZINC25051939


 34 38  0  0  0  0  0  0  0  0999 V2000
   18.2960  -10.0463   12.3670 C   0  0  0  0  0  0  0  0  0  0  0  0
   18.8494   -9.0568   12.9210 O   0  0  0  0  0  0  0  0  0  0  0  0
   17.4314   -9.8551   11.1874 C   0  0  0  0  0  0  0  0  0  0  0  0
   17.8405   -9.1588   10.0448 C   0  0  0  0  0  0  0  0  0  0  0  0
   19.0229   -8.5594    9.7942 N   0  0  0  0  0  0  0  0  0  0  0  0
   18.8446   -8.0433    8.5480 C   0  0  0  0  0  0  0  0  0  0  0  0
   19.9098   -7.2841    7.8271 C   0  0  0  0  0  0  0  0  0  0  0  0
   20.2505   -7.9595    6.5055 C   0  0  0  0  0  0  0  0  0  0  0  0
   19.2163   -7.6353    5.4329 C   0  0  0  0  0  0  0  0  0  0  0  0
   17.9399   -8.4507    5.6053 C   0  0  0  0  0  0  0  0  0  0  0  0
   17.0814   -7.8954    6.7337 C   0  0  0  0  0  0  0  0  0  0  0  0
   17.6171   -8.2970    8.0282 N   0  0  0  0  0  0  0  0  0  0  0  0
   17.0030   -8.9991    8.9846 C   0  0  0  0  0  0  0  0  0  0  0  0
   15.7416   -9.4947    8.9594 N   0  0  0  0  0  0  0  0  0  0  0  0
   15.2887  -10.1987   10.0425 C   0  0  0  0  0  0  0  0  0  0  0  0
   16.1218  -10.3762   11.1744 C   0  0  0  0  0  0  0  0  0  0  0  0
   13.8873  -10.7229   10.0613 C   0  0  0  0  0  0  0  0  0  0  0  0
   13.3183  -10.6553   11.4680 C   0  0  0  0  0  0  0  0  0  0  0  0
   12.9208   -9.6159   10.4456 C   0  0  0  0  0  0  0  0  0  0  0  0
   18.4967  -11.3338   12.8689 O   0  0  0  0  0  0  0  0  0  0  0  0
   19.0643  -11.5612   14.1505 C   0  0  0  0  0  0  0  0  0  0  0  0
   17.9759  -11.7908   15.1450 C   0  0  0  0  0  0  0  0  0  0  0  0
   17.6858  -12.9752   15.4624 O   0  0  0  0  0  0  0  0  0  0  0  0
   15.7929   -8.5115   16.8501 C   0  0  0  0  0  0  0  0  0  0  0  0
   15.5424   -8.9182   15.5315 C   0  0  0  0  0  0  0  0  0  0  0  0
   16.2524   -9.9849   14.9743 C   0  0  0  0  0  0  0  0  0  0  0  0
   17.2236  -10.6615   15.7266 C   0  0  0  0  0  0  0  0  0  0  0  0
   17.4722  -10.2524   17.0443 C   0  0  0  0  0  0  0  0  0  0  0  0
   16.7617   -9.1849   17.6004 C   0  0  0  0  0  0  0  0  0  0  0  0
   13.2269   -6.2406   18.6791 C   0  0  0  0  0  0  0  0  0  0  0  0
   13.8198   -7.4844   18.1237 C   0  0  0  0  0  0  0  0  0  0  0  0
   13.2008   -8.5735   18.2514 O   0  0  0  0  0  0  0  0  0  0  0  0
   15.0863   -7.4202   17.4557 N   0  0  0  0  0  0  0  0  0  0  0  0
   15.5155   -6.5355   17.4075 H   0  0  0  0  0  0  0  0  0  0  0  0
 30 31  1  0  0  0
 31 32  2  0  0  0
 31 33  1  0  0  0
 33 24  1  0  0  0
 24 25  2  0  0  0
 25 26  1  0  0  0
 26 27  2  0  0  0
 27 28  1  0  0  0
 27 22  1  0  0  0
 28 29  2  0  0  0
 29 24  1  0  0  0
 22 23  2  0  0  0
 22 21  1  0  0  0
 21 20  1  0  0  0
 20  1  1  0  0  0
  1  2  2  0  0  0
  1  3  1  0  0  0
  3  4  2  0  0  0
  4  5  1  0  0  0
  5  6  2  0  0  0
  6  7  1  0  0  0
  7  8  1  0  0  0
  8  9  1  0  0  0
  9 10  1  0  0  0
 10 11  1  0  0  0
 11 12  1  0  0  0
 12 13  1  0  0  0
 12  6  1  0  0  0
 13 14  2  0  0  0
 13  4  1  0  0  0
 14 15  1  0  0  0
 15 16  2  0  0  0
 15 17  1  0  0  0
 16  3  1  0  0  0
 17 18  1  0  0  0
 18 19  1  0  0  0
 19 17  1  0  0  0
 33 34  1  0  0  0
M  END
>  <minimizedAffinity>
-1.94223

>  <minimizedRMSD>
1.87822

$$$$
CSC028076467 9467919 CSSS00028076467 MCULE-9158361434 MolPort-004-502-879 PubChem-16285293 Z55030459 ZINC000009467919 ZINC09467919


 39 42  0  0  0  0  0  0  0  0999 V2000
   16.4649   -9.5010   16.1895 N   0  0  0  0  0  0  0  0  0  0  0  0
   16.4898   -8.9199   14.8727 C   0  0  0  0  0  0  0  0  0  0  0  0
   16.6034   -7.6728   14.7294 O   0  0  0  0  0  0  0  0  0  0  0  0
   16.4770   -8.6650   17.3619 C   0  0  0  0  0  0  0  0  0  0  0  0
   15.2790   -8.2361   17.9562 C   0  0  0  0  0  0  0  0  0  0  0  0
   14.0289   -8.6437   17.3973 N   0  0  0  0  0  0  0  0  0  0  0  0
   15.3112   -7.4504   19.0767 N   0  0  0  0  0  0  0  0  0  0  0  0
   16.5100   -7.0715   19.6170 C   0  0  0  0  0  0  0  0  0  0  0  0
   16.5504   -6.3371   20.6411 O   0  0  0  0  0  0  0  0  0  0  0  0
   17.6737   -7.4833   19.0530 N   0  0  0  0  0  0  0  0  0  0  0  0
   17.6852   -8.2683   17.9482 C   0  0  0  0  0  0  0  0  0  0  0  0
   18.7868   -8.6232   17.4513 O   0  0  0  0  0  0  0  0  0  0  0  0
   14.0109   -9.2088   16.5913 H   0  0  0  0  0  0  0  0  0  0  0  0
   13.1855   -8.3595   17.8182 H   0  0  0  0  0  0  0  0  0  0  0  0
   18.5283   -7.2056   19.4552 H   0  0  0  0  0  0  0  0  0  0  0  0
   14.0590   -7.0261   19.7070 C   0  0  0  0  0  0  0  0  0  0  0  0
   14.2296   -6.9008   21.1857 C   0  0  0  0  0  0  0  0  0  0  0  0
   14.6716   -7.9957   21.9372 C   0  0  0  0  0  0  0  0  0  0  0  0
   14.8513   -7.8715   23.3181 C   0  0  0  0  0  0  0  0  0  0  0  0
   14.5926   -6.6510   23.9495 C   0  0  0  0  0  0  0  0  0  0  0  0
   14.1554   -5.5546   23.1998 C   0  0  0  0  0  0  0  0  0  0  0  0
   13.9759   -5.6789   21.8188 C   0  0  0  0  0  0  0  0  0  0  0  0
   17.9594  -11.4345   16.2683 C   0  0  0  0  0  0  0  0  0  0  0  0
   16.5225  -10.9521   16.3469 C   0  0  0  0  0  0  0  0  0  0  0  0
   16.4284   -9.7767   13.6526 C   0  0  0  0  0  0  0  0  0  0  0  0
   15.4773   -9.2418   12.7443 O   0  0  0  0  0  0  0  0  0  0  0  0
   15.2558   -9.8099   11.4893 C   0  0  0  0  0  0  0  0  0  0  0  0
   14.3076  -10.6220   11.3100 O   0  0  0  0  0  0  0  0  0  0  0  0
   16.1356   -9.4580   10.3719 C   0  0  0  0  0  0  0  0  0  0  0  0
   17.3698   -8.9212   10.5416 N   0  0  0  0  0  0  0  0  0  0  0  0
   17.8250   -8.7556    9.3160 N   0  0  0  0  0  0  0  0  0  0  0  0
   16.8986   -9.1765    8.4544 C   0  0  0  0  0  0  0  0  0  0  0  0
   15.7948   -9.6376    9.0661 N   0  0  0  0  0  0  0  0  0  0  0  0
   17.0987   -9.1229    7.1149 N   0  0  0  0  0  0  0  0  0  0  0  0
   18.2821   -8.6236    6.6488 C   0  0  0  0  0  0  0  0  0  0  0  0
   18.5277   -8.5533    5.1850 C   0  0  0  0  0  0  0  0  0  0  0  0
   19.2730   -8.1739    7.5454 C   0  0  0  0  0  0  0  0  0  0  0  0
   19.0197   -8.2495    8.9215 C   0  0  0  0  0  0  0  0  0  0  0  0
   20.0346   -7.7862    9.9082 C   0  0  0  0  0  0  0  0  0  0  0  0
 23 24  1  0  0  0
 24  1  1  0  0  0
  1  2  1  0  0  0
  1  4  1  0  0  0
  2  3  2  0  0  0
  2 25  1  0  0  0
 25 26  1  0  0  0
 26 27  1  0  0  0
 27 28  2  0  0  0
 27 29  1  0  0  0
 29 30  2  0  0  0
 30 31  1  0  0  0
 31 32  1  0  0  0
 32 33  2  0  0  0
 32 34  1  0  0  0
 33 29  1  0  0  0
 34 35  2  0  0  0
 35 36  1  0  0  0
 35 37  1  0  0  0
 37 38  2  0  0  0
 38 39  1  0  0  0
 38 31  1  0  0  0
  4  5  2  0  0  0
  5  6  1  0  0  0
  5  7  1  0  0  0
  7 16  1  0  0  0
  7  8  1  0  0  0
 16 17  1  0  0  0
 17 18  2  0  0  0
 18 19  1  0  0  0
 19 20  2  0  0  0
 20 21  1  0  0  0
 21 22  2  0  0  0
 22 17  1  0  0  0
  8  9  2  0  0  0
  8 10  1  0  0  0
 10 11  1  0  0  0
 11 12  2  0  0  0
 11  4  1  0  0  0
  6 13  1  0  0  0
  6 14  1  0  0  0
 10 15  1  0  0  0
M  END
>  <minimizedAffinity>
-1.93458

>  <minimizedRMSD>
2.12421

$$$$
1857705265 CSSS00160609541 MCULE-9405868909 MolPort-047-396-058 PubChem-145943122


 31 33  0  0  0  0  0  0  0  0999 V2000
   17.5424  -10.6136   13.8585 C   0  0  0  0  0  0  0  0  0  0  0  0
   18.0914   -9.3653   14.5570 C   0  0  0  0  0  0  0  0  0  0  0  0
   17.9721   -9.4681   16.0840 C   0  0  0  0  0  0  0  0  0  0  0  0
   18.6256  -10.7560   16.5943 C   0  0  0  0  0  0  0  0  0  0  0  0
   18.0571  -11.9854   15.8885 C   0  0  0  0  0  0  0  0  0  0  0  0
   18.2470  -11.8666   14.3799 C   0  0  0  0  0  0  0  0  0  0  0  0
   17.7170  -13.0004   13.7634 O   0  0  0  0  0  0  0  0  0  0  0  0
   16.7711  -13.0672   13.9675 H   0  0  0  0  0  0  0  0  0  0  0  0
   17.0291   -9.5461   11.6194 C   0  0  0  0  0  0  0  0  0  0  0  0
   16.1535   -8.8129   12.1504 O   0  0  0  0  0  0  0  0  0  0  0  0
   17.7398  -10.4954   12.4206 N   0  0  0  0  0  0  0  0  0  0  0  0
   18.3882  -11.0924   11.9820 H   0  0  0  0  0  0  0  0  0  0  0  0
   19.9278   -7.8877   11.4268 C   0  0  0  0  0  0  0  0  0  0  0  0
   19.4778   -8.0992   10.0247 C   0  0  0  0  0  0  0  0  0  0  0  0
   20.1930   -7.6775    8.9547 N   0  0  0  0  0  0  0  0  0  0  0  0
   19.5745   -8.0863    7.8808 O   0  0  0  0  0  0  0  0  0  0  0  0
   18.5011   -8.7539    8.2142 C   0  0  0  0  0  0  0  0  0  0  0  0
   17.6341   -9.3611    7.3691 N   0  0  0  0  0  0  0  0  0  0  0  0
   16.5786  -10.0513    7.8912 C   0  0  0  0  0  0  0  0  0  0  0  0
   15.6185  -10.7306    6.9831 C   0  0  0  0  0  0  0  0  0  0  0  0
   16.3911  -10.1239    9.2875 C   0  0  0  0  0  0  0  0  0  0  0  0
   17.2869   -9.4821   10.1674 C   0  0  0  0  0  0  0  0  0  0  0  0
   18.3635   -8.7947    9.5748 C   0  0  0  0  0  0  0  0  0  0  0  0
   16.5646   -9.3171   16.5951 C   0  0  0  0  0  0  0  0  0  0  0  0
   15.6355  -10.0512   16.1585 O   0  0  0  0  0  0  0  0  0  0  0  0
   16.2849   -8.3165   17.5752 N   0  0  0  0  0  0  0  0  0  0  0  0
   17.0195   -7.7460   17.8977 H   0  0  0  0  0  0  0  0  0  0  0  0
   14.9482   -8.1147   18.1112 C   0  0  0  0  0  0  0  0  0  0  0  0
   15.0354   -7.6344   19.5471 C   0  0  0  0  0  0  0  0  0  0  0  0
   16.3353   -7.2144   19.8293 O   0  0  0  0  0  0  0  0  0  0  0  0
   16.9488   -7.9554   19.7049 H   0  0  0  0  0  0  0  0  0  0  0  0
 13 14  1  0  0  0
 14 15  2  0  0  0
 15 16  1  0  0  0
 16 17  1  0  0  0
 17 18  2  0  0  0
 18 19  1  0  0  0
 19 20  1  0  0  0
 19 21  2  0  0  0
 21 22  1  0  0  0
 22  9  1  0  0  0
  9 10  2  0  0  0
  9 11  1  0  0  0
  1 11  1  0  0  0
  1  2  1  0  0  0
  2  3  1  0  0  0
  3  4  1  0  0  0
  4  5  1  0  0  0
  5  6  1  0  0  0
  6  7  1  0  0  0
  3 24  1  0  0  0
 24 25  2  0  0  0
 24 26  1  0  0  0
 26 28  1  0  0  0
 28 29  1  0  0  0
 29 30  1  0  0  0
 22 23  2  0  0  0
 23 14  1  0  0  0
 23 17  1  0  0  0
  6  1  1  0  0  0
 11 12  1  0  0  0
  7  8  1  0  0  0
 26 27  1  0  0  0
 30 31  1  0  0  0
M  END
>  <minimizedAffinity>
-1.90838

>  <minimizedRMSD>
1.68953

$$$$
6079512 CSSS00132523496 ChemDiv-3136-2477 LN00686440 MCULE-5753444389 MolPort-002-595-036 PubChem-3726785 ZINC000006079512 ZINC06079512


 32 34  0  0  0  0  0  0  0  0999 V2000
   16.7910   -9.3942   13.4872 C   0  0  0  0  0  0  0  0  0  0  0  0
   15.7029   -8.8956   13.0940 O   0  0  0  0  0  0  0  0  0  0  0  0
   17.1428   -9.4142   14.8768 N   0  0  0  0  0  0  0  0  0  0  0  0
   18.0038   -9.8323   15.1075 H   0  0  0  0  0  0  0  0  0  0  0  0
   16.3721   -8.8892   15.9654 C   0  0  0  0  0  0  0  0  0  0  0  0
   15.2258   -8.1067   15.7556 C   0  0  0  0  0  0  0  0  0  0  0  0
   14.5021   -7.6085   16.8424 C   0  0  0  0  0  0  0  0  0  0  0  0
   14.9175   -7.8887   18.1481 C   0  0  0  0  0  0  0  0  0  0  0  0
   16.0600   -8.6672   18.3622 C   0  0  0  0  0  0  0  0  0  0  0  0
   16.7831   -9.1646   17.2743 C   0  0  0  0  0  0  0  0  0  0  0  0
   14.0102   -7.2523   19.5079 S   0  0  0  0  0  0  0  0  0  0  0  0
   13.1023   -8.3245   20.0404 O   0  0  0  0  0  0  0  0  0  0  0  0
   14.9451   -6.8183   20.6028 O   0  0  0  0  0  0  0  0  0  0  0  0
   13.0621   -5.8964   18.9973 N   0  0  0  0  0  0  0  0  0  0  0  0
   12.0662   -5.3024   19.8306 C   0  0  0  0  0  0  0  0  0  0  0  0
   11.2905   -4.1380   19.3313 C   0  0  0  0  0  0  0  0  0  0  0  0
   11.8387   -5.7543   20.9840 O   0  0  0  0  0  0  0  0  0  0  0  0
   13.2152   -5.5215   18.1000 H   0  0  0  0  0  0  0  0  0  0  0  0
   17.7498   -9.9380   12.4848 C   0  0  0  0  0  0  0  0  0  0  0  0
   15.8504   -9.3004    6.7764 C   0  0  0  0  0  0  0  0  0  0  0  0
   16.8659   -9.0829    7.7990 N   0  0  0  0  0  0  0  0  0  0  0  0
   16.6833   -9.5536    9.0592 C   0  0  0  0  0  0  0  0  0  0  0  0
   17.5986   -9.3698   10.0349 C   0  0  0  0  0  0  0  0  0  0  0  0
   17.1424   -9.9362   11.1617 N   0  0  0  0  0  0  0  0  0  0  0  0
   15.9320  -10.4497   10.8305 C   0  0  0  0  0  0  0  0  0  0  0  0
   15.6166  -10.2335    9.5241 N   0  0  0  0  0  0  0  0  0  0  0  0
   18.7781   -8.6826    9.7741 C   0  0  0  0  0  0  0  0  0  0  0  0
   19.6426   -8.5135   10.6774 O   0  0  0  0  0  0  0  0  0  0  0  0
   18.9732   -8.1998    8.5042 N   0  0  0  0  0  0  0  0  0  0  0  0
   20.1986   -7.4706    8.1918 C   0  0  0  0  0  0  0  0  0  0  0  0
   18.0244   -8.3973    7.5201 C   0  0  0  0  0  0  0  0  0  0  0  0
   18.2203   -7.9453    6.3566 O   0  0  0  0  0  0  0  0  0  0  0  0
 20 21  1  0  0  0
 21 22  1  0  0  0
 22 23  2  0  0  0
 23 24  1  0  0  0
 23 27  1  0  0  0
 24 19  1  0  0  0
 24 25  1  0  0  0
 19  1  1  0  0  0
  1  2  2  0  0  0
  1  3  1  0  0  0
  3  5  1  0  0  0
  5  6  2  0  0  0
  6  7  1  0  0  0
  7  8  2  0  0  0
  8  9  1  0  0  0
  8 11  1  0  0  0
  9 10  2  0  0  0
 10  5  1  0  0  0
 11 12  2  0  0  0
 11 13  2  0  0  0
 11 14  1  0  0  0
 14 15  1  0  0  0
 15 16  1  0  0  0
 15 17  2  0  0  0
 25 26  2  0  0  0
 26 22  1  0  0  0
 27 28  2  0  0  0
 27 29  1  0  0  0
 29 30  1  0  0  0
 29 31  1  0  0  0
 31 32  2  0  0  0
 31 21  1  0  0  0
  3  4  1  0  0  0
 14 18  1  0  0  0
M  END
>  <minimizedAffinity>
-1.87541

>  <minimizedRMSD>
3.09018

$$$$
CSSS00132553259 ChemDiv-6434-3663 MCULE-2866381277 MolPort-002-008-020


 32 36  0  0  0  0  0  0  0  0999 V2000
   17.1928   -9.7987    9.4074 C   0  0  0  0  0  0  0  0  0  0  0  0
   18.3843   -9.0474    9.4072 C   0  0  0  0  0  0  0  0  0  0  0  0
   19.0989   -8.8112   10.5925 C   0  0  0  0  0  0  0  0  0  0  0  0
   20.2915   -8.0876   10.5755 C   0  0  0  0  0  0  0  0  0  0  0  0
   20.7912   -7.5988    9.3695 C   0  0  0  0  0  0  0  0  0  0  0  0
   20.0984   -7.8362    8.1815 C   0  0  0  0  0  0  0  0  0  0  0  0
   18.8913   -8.5560    8.1779 C   0  0  0  0  0  0  0  0  0  0  0  0
   18.1862   -8.8383    6.9823 C   0  0  0  0  0  0  0  0  0  0  0  0
   17.0603   -9.5978    7.0634 N   0  0  0  0  0  0  0  0  0  0  0  0
   16.5862  -10.0575    8.2199 N   0  0  0  0  0  0  0  0  0  0  0  0
   16.6127  -10.3242   10.6166 N   0  0  0  0  0  0  0  0  0  0  0  0
   17.4474  -10.9027   11.6696 C   0  0  0  0  0  0  0  0  0  0  0  0
   17.4859   -9.9504   12.8608 C   0  0  0  0  0  0  0  0  0  0  0  0
   16.1194   -9.5718   13.2168 N   0  0  0  0  0  0  0  0  0  0  0  0
   15.2666   -9.0113   12.1708 C   0  0  0  0  0  0  0  0  0  0  0  0
   15.2427   -9.9637   10.9780 C   0  0  0  0  0  0  0  0  0  0  0  0
   15.6014   -9.8033   14.5350 C   0  0  0  0  0  0  0  0  0  0  0  0
   14.4212   -9.4659   14.8199 O   0  0  0  0  0  0  0  0  0  0  0  0
   16.4270  -10.4820   15.5762 C   0  0  0  0  0  0  0  0  0  0  0  0
   17.5682   -9.2847   16.3266 S   0  0  0  0  0  0  0  0  0  0  0  0
   16.2442   -8.4492   17.1873 C   0  0  0  0  0  0  0  0  0  0  0  0
   15.3244   -7.6867   16.5765 N   0  0  0  0  0  0  0  0  0  0  0  0
   14.5282   -7.2372   17.5299 N   0  0  0  0  0  0  0  0  0  0  0  0
   14.9787   -7.7330   18.6995 C   0  0  0  0  0  0  0  0  0  0  0  0
   16.0687   -8.5065   18.5193 N   0  0  0  0  0  0  0  0  0  0  0  0
   16.6006   -8.9902   19.1919 H   0  0  0  0  0  0  0  0  0  0  0  0
   18.6032   -8.3647    5.6312 C   0  0  0  0  0  0  0  0  0  0  0  0
   19.6688   -7.4678    5.4467 C   0  0  0  0  0  0  0  0  0  0  0  0
   20.0126   -7.0172    4.1689 C   0  0  0  0  0  0  0  0  0  0  0  0
   19.2871   -7.4509    3.0572 C   0  0  0  0  0  0  0  0  0  0  0  0
   18.2166   -8.3316    3.2247 C   0  0  0  0  0  0  0  0  0  0  0  0
   17.8754   -8.7814    4.5034 C   0  0  0  0  0  0  0  0  0  0  0  0
  1  2  1  0  0  0
  2  3  2  0  0  0
  3  4  1  0  0  0
  4  5  2  0  0  0
  5  6  1  0  0  0
  6  7  2  0  0  0
  7  8  1  0  0  0
  8  9  2  0  0  0
  9 10  1  0  0  0
  8 27  1  0  0  0
 27 28  2  0  0  0
 28 29  1  0  0  0
 29 30  2  0  0  0
 30 31  1  0  0  0
 31 32  2  0  0  0
  1 11  1  0  0  0
 11 12  1  0  0  0
 12 13  1  0  0  0
 13 14  1  0  0  0
 14 15  1  0  0  0
 15 16  1  0  0  0
 14 17  1  0  0  0
 17 18  2  0  0  0
 17 19  1  0  0  0
 19 20  1  0  0  0
 20 21  1  0  0  0
 21 22  2  0  0  0
 22 23  1  0  0  0
 23 24  2  0  0  0
 24 25  1  0  0  0
 10  1  2  0  0  0
 32 27  1  0  0  0
 16 11  1  0  0  0
 25 21  1  0  0  0
  7  2  1  0  0  0
 25 26  1  0  0  0
M  END
>  <minimizedAffinity>
-1.87324

>  <minimizedRMSD>
1.94924

$$$$
CSC027538121 71913853 CSSS00027538121 MCULE-7326329680 MolPort-020-056-966 PubChem-56793153 Z1230724586 ZINC000071913853 ZINC71913853


 26 30  0  0  0  0  0  0  0  0999 V2000
   16.9750  -10.1613   12.7947 C   0  0  0  0  0  0  0  0  0  0  0  0
   18.4321  -10.1677   12.3257 C   0  0  0  0  0  0  0  0  0  0  0  0
   18.4999  -10.4971   10.8383 C   0  0  0  0  0  0  0  0  0  0  0  0
   17.6401   -9.5781   10.0958 N   0  0  0  0  0  0  0  0  0  0  0  0
   16.2348   -9.5164   10.4893 C   0  0  0  0  0  0  0  0  0  0  0  0
   16.1353   -9.1791   11.9739 C   0  0  0  0  0  0  0  0  0  0  0  0
   15.8255   -7.8080   14.0980 O   0  0  0  0  0  0  0  0  0  0  0  0
   16.3502   -8.7321   14.7745 C   0  0  0  0  0  0  0  0  0  0  0  0
   16.4174   -8.7004   16.1305 N   0  0  0  0  0  0  0  0  0  0  0  0
   17.0410   -9.8596   16.4174 C   0  0  0  0  0  0  0  0  0  0  0  0
   17.3755  -10.3510   17.6767 C   0  0  0  0  0  0  0  0  0  0  0  0
   18.0296  -11.5960   17.7345 C   0  0  0  0  0  0  0  0  0  0  0  0
   18.3286  -12.3078   16.5510 C   0  0  0  0  0  0  0  0  0  0  0  0
   17.9775  -11.7846   15.2931 C   0  0  0  0  0  0  0  0  0  0  0  0
   17.3306  -10.5490   15.2730 C   0  0  0  0  0  0  0  0  0  0  0  0
   16.8951   -9.8406   14.2179 N   0  0  0  0  0  0  0  0  0  0  0  0
   16.0925   -8.0058   16.7478 H   0  0  0  0  0  0  0  0  0  0  0  0
   18.1334   -8.7268    9.0427 C   0  0  0  0  0  0  0  0  0  0  0  0
   18.9495   -7.6694    9.3432 N   0  0  0  0  0  0  0  0  0  0  0  0
   19.4473   -6.8319    8.3822 C   0  0  0  0  0  0  0  0  0  0  0  0
   19.1221   -7.0477    7.0361 C   0  0  0  0  0  0  0  0  0  0  0  0
   18.3151   -8.0972    6.7596 N   0  0  0  0  0  0  0  0  0  0  0  0
   17.8382   -8.5510    5.5917 C   0  0  0  0  0  0  0  0  0  0  0  0
   17.0663   -9.6395    5.8245 N   0  0  0  0  0  0  0  0  0  0  0  0
   17.0542   -9.8743    7.1340 N   0  0  0  0  0  0  0  0  0  0  0  0
   17.8228   -8.9214    7.6878 C   0  0  0  0  0  0  0  0  0  0  0  0
  7  8  2  0  0  0
  8  9  1  0  0  0
  9 10  1  0  0  0
 10 11  2  0  0  0
 11 12  1  0  0  0
 12 13  2  0  0  0
 13 14  1  0  0  0
 14 15  2  0  0  0
 15 16  1  0  0  0
 15 10  1  0  0  0
 16  1  1  0  0  0
 16  8  1  0  0  0
  1  2  1  0  0  0
  2  3  1  0  0  0
  3  4  1  0  0  0
  4  5  1  0  0  0
  4 18  1  0  0  0
  5  6  1  0  0  0
  6  1  1  0  0  0
 18 19  2  0  0  0
 19 20  1  0  0  0
 20 21  2  0  0  0
 21 22  1  0  0  0
 22 23  1  0  0  0
 23 24  2  0  0  0
 24 25  1  0  0  0
 25 26  2  0  0  0
 26 18  1  0  0  0
 26 22  1  0  0  0
  9 17  1  0  0  0
M  END
>  <minimizedAffinity>
-1.86248

>  <minimizedRMSD>
2.11109

$$$$
CSSS00138533572 MCULE-5390552219 MolPort-046-723-308 PubChem-139010281 Z1752218055


 31 35  0  0  0  0  0  0  0  0999 V2000
   17.8789   -9.9853   12.6879 C   0  0  0  0  0  0  0  0  0  0  0  0
   19.1911  -10.7060   12.3675 C   0  0  0  0  0  0  0  0  0  0  0  0
   19.9862  -10.9572   13.6479 C   0  0  0  0  0  0  0  0  0  0  0  0
   19.1465  -11.7625   14.6358 C   0  0  0  0  0  0  0  0  0  0  0  0
   17.8797  -11.0743   14.8668 N   0  0  0  0  0  0  0  0  0  0  0  0
   17.0537  -10.7784   13.7000 C   0  0  0  0  0  0  0  0  0  0  0  0
   17.4375  -10.7995   16.2080 C   0  0  0  0  0  0  0  0  0  0  0  0
   17.9102  -11.4798   17.1599 O   0  0  0  0  0  0  0  0  0  0  0  0
   16.4536   -9.7336   16.5130 C   0  0  0  0  0  0  0  0  0  0  0  0
   15.7724   -9.0563   15.4891 C   0  0  0  0  0  0  0  0  0  0  0  0
   14.8669   -8.0343   15.7888 C   0  0  0  0  0  0  0  0  0  0  0  0
   14.6343   -7.6776   17.1186 C   0  0  0  0  0  0  0  0  0  0  0  0
   13.7358   -6.6488   17.4239 O   0  0  0  0  0  0  0  0  0  0  0  0
   13.2106   -6.4418   18.7398 C   0  0  0  0  0  0  0  0  0  0  0  0
   14.1596   -6.9135   19.8024 C   0  0  0  0  0  0  0  0  0  0  0  0
   14.0586   -6.4721   20.9759 O   0  0  0  0  0  0  0  0  0  0  0  0
   15.1292   -7.9179   19.4986 N   0  0  0  0  0  0  0  0  0  0  0  0
   15.3244   -8.3336   18.1476 C   0  0  0  0  0  0  0  0  0  0  0  0
   16.2331   -9.3507   17.8452 C   0  0  0  0  0  0  0  0  0  0  0  0
   15.6621   -8.3228   20.2206 H   0  0  0  0  0  0  0  0  0  0  0  0
   15.7710   -9.8896   11.2557 C   0  0  0  0  0  0  0  0  0  0  0  0
   15.3821   -9.5197   10.0059 N   0  0  0  0  0  0  0  0  0  0  0  0
   16.5358   -9.1211    9.4383 C   0  0  0  0  0  0  0  0  0  0  0  0
   16.7199   -8.6285    8.1489 C   0  0  0  0  0  0  0  0  0  0  0  0
   18.0262   -8.2584    7.7769 C   0  0  0  0  0  0  0  0  0  0  0  0
   19.0978   -8.3858    8.6895 C   0  0  0  0  0  0  0  0  0  0  0  0
   18.8779   -8.8860    9.9861 C   0  0  0  0  0  0  0  0  0  0  0  0
   17.5720   -9.2454   10.3179 C   0  0  0  0  0  0  0  0  0  0  0  0
   17.1049   -9.7342   11.4743 N   0  0  0  0  0  0  0  0  0  0  0  0
   13.4402  -10.5869   11.6677 C   0  0  0  0  0  0  0  0  0  0  0  0
   14.8095  -10.3846   12.2859 C   0  0  0  0  0  0  0  0  0  0  0  0
 30 31  1  0  0  0
 31 21  1  0  0  0
 21 22  2  0  0  0
 22 23  1  0  0  0
 23 24  2  0  0  0
 24 25  1  0  0  0
 25 26  2  0  0  0
 26 27  1  0  0  0
 27 28  2  0  0  0
 28 29  1  0  0  0
 29  1  1  0  0  0
  1  2  1  0  0  0
  2  3  1  0  0  0
  3  4  1  0  0  0
  4  5  1  0  0  0
  5  6  1  0  0  0
  5  7  1  0  0  0
  7  8  2  0  0  0
  7  9  1  0  0  0
  9 10  2  0  0  0
 10 11  1  0  0  0
 11 12  2  0  0  0
 12 13  1  0  0  0
 13 14  1  0  0  0
 14 15  1  0  0  0
 15 16  2  0  0  0
 15 17  1  0  0  0
 17 18  1  0  0  0
 18 19  2  0  0  0
 29 21  1  0  0  0
  6  1  1  0  0  0
 19  9  1  0  0  0
 28 23  1  0  0  0
 18 12  1  0  0  0
 17 20  1  0  0  0
M  END
>  <minimizedAffinity>
-1.84398

>  <minimizedRMSD>
2.52556

$$$$
CSSS00518752439


 29 31  0  0  0  0  0  0  0  0999 V2000
   17.9249  -10.2421   15.4075 C   0  0  0  0  0  0  0  0  0  0  0  0
   19.0457   -9.7110   14.7607 C   0  0  0  0  0  0  0  0  0  0  0  0
   19.0687   -9.6113   13.3668 C   0  0  0  0  0  0  0  0  0  0  0  0
   17.9729  -10.0367   12.6083 C   0  0  0  0  0  0  0  0  0  0  0  0
   16.8498  -10.5662   13.2619 C   0  0  0  0  0  0  0  0  0  0  0  0
   16.8254  -10.6669   14.6555 C   0  0  0  0  0  0  0  0  0  0  0  0
   18.0335   -9.9139   11.1811 N   0  0  0  0  0  0  0  0  0  0  0  0
   16.9324   -9.6942   10.2881 C   0  0  0  0  0  0  0  0  0  0  0  0
   15.7558   -9.5905   10.7277 O   0  0  0  0  0  0  0  0  0  0  0  0
   18.9252   -9.9882   10.7704 H   0  0  0  0  0  0  0  0  0  0  0  0
   17.1731   -9.5873    8.8411 C   0  0  0  0  0  0  0  0  0  0  0  0
   18.0560   -8.7652    8.1750 C   0  0  0  0  0  0  0  0  0  0  0  0
   18.9585   -7.8181    8.6482 C   0  0  0  0  0  0  0  0  0  0  0  0
   19.7259   -7.1382    7.6914 C   0  0  0  0  0  0  0  0  0  0  0  0
   19.5616   -7.4286    6.3241 C   0  0  0  0  0  0  0  0  0  0  0  0
   18.6553   -8.3714    5.9375 N   0  0  0  0  0  0  0  0  0  0  0  0
   17.9392   -9.0028    6.8655 N   0  0  0  0  0  0  0  0  0  0  0  0
   17.0314   -9.9327    6.6316 N   0  0  0  0  0  0  0  0  0  0  0  0
   16.5363  -10.3171    7.8349 C   0  0  0  0  0  0  0  0  0  0  0  0
   17.8726  -10.3306   17.1609 S   0  0  0  0  0  0  0  0  0  0  0  0
   18.1830  -11.7356   17.5937 O   0  0  0  0  0  0  0  0  0  0  0  0
   18.9019   -9.4057   17.7493 O   0  0  0  0  0  0  0  0  0  0  0  0
   16.2985   -9.8865   17.7354 N   0  0  0  0  0  0  0  0  0  0  0  0
   15.5823  -10.3367   17.1655 H   0  0  0  0  0  0  0  0  0  0  0  0
   16.1740   -8.4412   17.6335 C   0  0  0  0  0  0  0  0  0  0  0  0
   15.3762   -7.9207   18.8126 C   0  0  0  0  0  0  0  0  0  0  0  0
   15.4706   -8.0813   16.3361 C   0  0  0  0  0  0  0  0  0  0  0  0
   15.8049   -7.5061   14.2336 C   0  0  0  0  0  0  0  0  0  0  0  0
   16.3298   -7.3501   15.5158 O   0  0  0  0  0  0  0  0  0  0  0  0
 28 29  1  0  0  0
 29 27  1  0  0  0
 27 25  1  0  0  0
 25 26  1  0  0  0
 25 23  1  0  0  0
 23 20  1  0  0  0
 20 21  2  0  0  0
 20 22  2  0  0  0
 20  1  1  0  0  0
  1  2  2  0  0  0
  2  3  1  0  0  0
  3  4  2  0  0  0
  4  7  1  0  0  0
  7  8  1  0  0  0
  8  9  2  0  0  0
  8 11  1  0  0  0
 11 12  2  0  0  0
 12 13  1  0  0  0
 13 14  2  0  0  0
 14 15  1  0  0  0
 15 16  2  0  0  0
 16 17  1  0  0  0
 17 18  1  0  0  0
 18 19  2  0  0  0
  4  5  1  0  0  0
  5  6  2  0  0  0
  6  1  1  0  0  0
 19 11  1  0  0  0
 17 12  1  0  0  0
 23 24  1  0  0  0
  7 10  1  0  0  0
M  END
>  <minimizedAffinity>
-1.83989

>  <minimizedRMSD>
1.28946

$$$$
CSC027392051 CSSS00027392051 MCULE-2585383494 MolPort-023-150-291 Z1173726112


 25 28  0  0  0  0  0  0  0  0999 V2000
   16.4084  -10.3861   13.1062 C   0  0  0  0  0  0  0  0  0  0  0  0
   15.6532   -9.2005   12.5023 C   0  0  0  0  0  0  0  0  0  0  0  0
   15.3340   -9.4753   11.0366 C   0  0  0  0  0  0  0  0  0  0  0  0
   16.5632   -9.8223   10.3274 N   0  0  0  0  0  0  0  0  0  0  0  0
   17.3382  -10.9456   10.8473 C   0  0  0  0  0  0  0  0  0  0  0  0
   17.6800  -10.6935   12.3128 C   0  0  0  0  0  0  0  0  0  0  0  0
   17.0390   -9.0810    9.1874 C   0  0  0  0  0  0  0  0  0  0  0  0
   18.3203   -8.5230    9.1195 C   0  0  0  0  0  0  0  0  0  0  0  0
   18.7074   -7.8388    8.0140 C   0  0  0  0  0  0  0  0  0  0  0  0
   19.9612   -7.3889    8.1446 N   0  0  0  0  0  0  0  0  0  0  0  0
   20.3808   -7.7875    9.3421 N   0  0  0  0  0  0  0  0  0  0  0  0
   19.4029   -8.4874    9.9730 C   0  0  0  0  0  0  0  0  0  0  0  0
   17.8962   -7.6637    6.9449 N   0  0  0  0  0  0  0  0  0  0  0  0
   16.6422   -8.2021    6.9949 C   0  0  0  0  0  0  0  0  0  0  0  0
   16.2271   -8.8981    8.1003 N   0  0  0  0  0  0  0  0  0  0  0  0
   20.4719   -6.8663    7.4848 H   0  0  0  0  0  0  0  0  0  0  0  0
   17.3910  -10.9701   15.3647 N   0  0  0  0  0  0  0  0  0  0  0  0
   16.7327  -10.1273   14.5440 C   0  0  0  0  0  0  0  0  0  0  0  0
   16.3894   -8.9920   15.1828 N   0  0  0  0  0  0  0  0  0  0  0  0
   16.8222   -9.1023   16.4316 N   0  0  0  0  0  0  0  0  0  0  0  0
   17.4242  -10.3022   16.5323 C   0  0  0  0  0  0  0  0  0  0  0  0
   18.1406  -10.9259   18.0501 S   0  0  0  0  0  0  0  0  0  0  0  0
   18.0023   -9.9957   19.0325 H   0  0  0  0  0  0  0  0  0  0  0  0
   19.0241  -12.2366   14.0636 C   0  0  0  0  0  0  0  0  0  0  0  0
   17.8925  -12.3078   15.0719 C   0  0  0  0  0  0  0  0  0  0  0  0
 24 25  1  0  0  0
 25 17  1  0  0  0
 17 18  1  0  0  0
 18  1  1  0  0  0
  1  2  1  0  0  0
  2  3  1  0  0  0
  3  4  1  0  0  0
  4  7  1  0  0  0
  7  8  1  0  0  0
  8  9  2  0  0  0
  9 10  1  0  0  0
 10 11  1  0  0  0
 11 12  2  0  0  0
  9 13  1  0  0  0
 13 14  2  0  0  0
 14 15  1  0  0  0
  4  5  1  0  0  0
  5  6  1  0  0  0
 18 19  2  0  0  0
 19 20  1  0  0  0
 20 21  2  0  0  0
 21 22  1  0  0  0
 21 17  1  0  0  0
  6  1  1  0  0  0
 15  7  2  0  0  0
 12  8  1  0  0  0
 10 16  1  0  0  0
 22 23  1  0  0  0
M  END
>  <minimizedAffinity>
-1.82579

>  <minimizedRMSD>
2.83565

$$$$
CSSS03436544525 MolPort-047-767-093 PubChem-155968525 Z4898059571


 37 42  0  0  0  0  0  0  0  0999 V2000
   17.5039   -8.5169   17.2665 C   0  0  0  0  0  0  0  0  0  0  0  0
   17.6500   -9.1609   16.0411 C   0  0  0  0  0  0  0  0  0  0  0  0
   18.9935   -9.4353   15.7320 C   0  0  0  0  0  0  0  0  0  0  0  0
   19.9047   -9.0286   16.7047 C   0  0  0  0  0  0  0  0  0  0  0  0
   19.0247   -8.3166   17.9498 S   0  0  0  0  0  0  0  0  0  0  0  0
   16.5249   -9.4812   15.1288 C   0  0  0  0  0  0  0  0  0  0  0  0
   15.3520   -9.5138   15.5924 O   0  0  0  0  0  0  0  0  0  0  0  0
   16.7307   -9.7310   13.7266 N   0  0  0  0  0  0  0  0  0  0  0  0
   18.0036  -10.2783   13.2411 C   0  0  0  0  0  0  0  0  0  0  0  0
   17.9277  -10.6222   11.7559 C   0  0  0  0  0  0  0  0  0  0  0  0
   17.3180   -9.5121   11.0221 N   0  0  0  0  0  0  0  0  0  0  0  0
   16.0435   -8.9590   11.5026 C   0  0  0  0  0  0  0  0  0  0  0  0
   15.5956   -9.6153   12.8092 C   0  0  0  0  0  0  0  0  0  0  0  0
   17.9655   -8.9180    9.8741 C   0  0  0  0  0  0  0  0  0  0  0  0
   17.6002   -9.2072    8.5452 C   0  0  0  0  0  0  0  0  0  0  0  0
   16.6418  -10.0355    7.9964 C   0  0  0  0  0  0  0  0  0  0  0  0
   16.7352   -9.9233    6.6487 N   0  0  0  0  0  0  0  0  0  0  0  0
   17.7011   -9.0692    6.3288 N   0  0  0  0  0  0  0  0  0  0  0  0
   18.2314   -8.6300    7.4779 C   0  0  0  0  0  0  0  0  0  0  0  0
   19.2726   -7.7211    7.6307 C   0  0  0  0  0  0  0  0  0  0  0  0
   19.6682   -7.4043    8.9402 C   0  0  0  0  0  0  0  0  0  0  0  0
   19.0230   -7.9951   10.0470 C   0  0  0  0  0  0  0  0  0  0  0  0
   17.9751   -8.8085    5.4198 H   0  0  0  0  0  0  0  0  0  0  0  0
   17.0354   -7.2969   19.8901 O   0  0  0  0  0  0  0  0  0  0  0  0
   16.0539   -7.5299   19.1339 C   0  0  0  0  0  0  0  0  0  0  0  0
   16.2511   -8.1230   17.8431 N   0  0  0  0  0  0  0  0  0  0  0  0
   15.4455   -8.2750   17.2980 H   0  0  0  0  0  0  0  0  0  0  0  0
   14.6911   -7.1888   19.5782 C   0  0  0  0  0  0  0  0  0  0  0  0
   14.1173   -7.8436   20.6766 C   0  0  0  0  0  0  0  0  0  0  0  0
   12.8232   -7.5237   21.0941 C   0  0  0  0  0  0  0  0  0  0  0  0
   12.0847   -6.5500   20.4163 C   0  0  0  0  0  0  0  0  0  0  0  0
   10.7114   -6.2054   20.9147 C   0  0  0  0  0  0  0  0  0  0  0  0
    9.8687   -5.5494   19.8263 C   0  0  0  0  0  0  0  0  0  0  0  0
   10.6282   -4.3636   19.2496 C   0  0  0  0  0  0  0  0  0  0  0  0
   11.9008   -4.8319   18.5423 C   0  0  0  0  0  0  0  0  0  0  0  0
   12.6627   -5.8692   19.3224 C   0  0  0  0  0  0  0  0  0  0  0  0
   13.9542   -6.2044   18.9056 C   0  0  0  0  0  0  0  0  0  0  0  0
 24 25  2  0  0  0
 25 26  1  0  0  0
 26  1  1  0  0  0
  1  2  2  0  0  0
  2  3  1  0  0  0
  3  4  2  0  0  0
  4  5  1  0  0  0
  2  6  1  0  0  0
  6  7  2  0  0  0
  6  8  1  0  0  0
  8  9  1  0  0  0
  9 10  1  0  0  0
 10 11  1  0  0  0
 11 12  1  0  0  0
 12 13  1  0  0  0
 11 14  1  0  0  0
 14 15  2  0  0  0
 15 16  1  0  0  0
 16 17  2  0  0  0
 17 18  1  0  0  0
 18 19  1  0  0  0
 19 20  2  0  0  0
 20 21  1  0  0  0
 21 22  2  0  0  0
 25 28  1  0  0  0
 28 29  2  0  0  0
 29 30  1  0  0  0
 30 31  2  0  0  0
 31 32  1  0  0  0
 32 33  1  0  0  0
 33 34  1  0  0  0
 34 35  1  0  0  0
 35 36  1  0  0  0
 36 37  2  0  0  0
  5  1  1  0  0  0
 13  8  1  0  0  0
 22 14  1  0  0  0
 37 28  1  0  0  0
 19 15  1  0  0  0
 36 31  1  0  0  0
 26 27  1  0  0  0
 18 23  1  0  0  0
M  END
>  <minimizedAffinity>
-1.81624

>  <minimizedRMSD>
2.17139

$$$$
CSC028337992 CSSS00028337992 MCULE-6873369579 MolPort-044-377-151 PubChem-3710100 Z49890548 ZINC000254734891


 25 27  0  0  0  0  0  0  0  0999 V2000
   16.3242  -10.6208   11.1275 N   0  0  0  0  0  0  0  0  0  0  0  0
   15.9761  -11.5415   11.1449 H   0  0  0  0  0  0  0  0  0  0  0  0
   16.4542   -9.9474    9.8740 C   0  0  0  0  0  0  0  0  0  0  0  0
   17.5904   -9.1907    9.5181 C   0  0  0  0  0  0  0  0  0  0  0  0
   17.5481   -8.4900    8.3224 C   0  0  0  0  0  0  0  0  0  0  0  0
   18.9831   -7.6676    8.0521 S   0  0  0  0  0  0  0  0  0  0  0  0
   19.7121   -8.2174    9.4711 C   0  0  0  0  0  0  0  0  0  0  0  0
   18.8389   -9.0591   10.1661 C   0  0  0  0  0  0  0  0  0  0  0  0
   19.2697   -9.8145   11.3784 C   0  0  0  0  0  0  0  0  0  0  0  0
   21.1102   -7.8914    9.8687 C   0  0  0  0  0  0  0  0  0  0  0  0
   16.4907   -8.5468    7.4799 N   0  0  0  0  0  0  0  0  0  0  0  0
   15.4193   -9.3120    7.8206 C   0  0  0  0  0  0  0  0  0  0  0  0
   15.4088   -9.9978    8.9998 N   0  0  0  0  0  0  0  0  0  0  0  0
   17.3287  -10.6619   13.2330 C   0  0  0  0  0  0  0  0  0  0  0  0
   16.6803  -10.0019   12.3307 N   0  0  0  0  0  0  0  0  0  0  0  0
   17.1614   -9.0516   16.6564 C   0  0  0  0  0  0  0  0  0  0  0  0
   18.5248   -8.8313   16.8998 C   0  0  0  0  0  0  0  0  0  0  0  0
   18.9374   -8.2362   18.0855 O   0  0  0  0  0  0  0  0  0  0  0  0
   19.4783   -9.2092   15.9499 C   0  0  0  0  0  0  0  0  0  0  0  0
   19.0786   -9.8087   14.7528 C   0  0  0  0  0  0  0  0  0  0  0  0
   17.7234  -10.0350   14.4983 C   0  0  0  0  0  0  0  0  0  0  0  0
   16.7677   -9.6553   15.4509 C   0  0  0  0  0  0  0  0  0  0  0  0
   18.3037   -7.9804   18.7265 H   0  0  0  0  0  0  0  0  0  0  0  0
   15.0628   -7.9069   17.2981 C   0  0  0  0  0  0  0  0  0  0  0  0
   16.2211   -8.6658   17.6176 O   0  0  0  0  0  0  0  0  0  0  0  0
 24 25  1  0  0  0
 25 16  1  0  0  0
 16 17  2  0  0  0
 17 18  1  0  0  0
 17 19  1  0  0  0
 19 20  2  0  0  0
 20 21  1  0  0  0
 21 14  1  0  0  0
 14 15  2  0  0  0
 15  1  1  0  0  0
  1  3  1  0  0  0
  3  4  1  0  0  0
  4  5  2  0  0  0
  5  6  1  0  0  0
  6  7  1  0  0  0
  7  8  2  0  0  0
  8  9  1  0  0  0
  7 10  1  0  0  0
  5 11  1  0  0  0
 11 12  2  0  0  0
 12 13  1  0  0  0
 21 22  2  0  0  0
 22 16  1  0  0  0
 13  3  2  0  0  0
  8  4  1  0  0  0
 18 23  1  0  0  0
  1  2  1  0  0  0
M  END
>  <minimizedAffinity>
-1.73709

>  <minimizedRMSD>
1.75111

$$$$
6199021 CSSS00132524750 ChemDiv-4606-1789 LN01014222 MCULE-7275691546 MolPort-001-550-286 PubChem-2914614 ZINC000006199021 ZUKFVVPVHVHTCR-UHFFFAOYSA-N


 34 37  0  0  0  0  0  0  0  0999 V2000
   16.8659   -9.9787   12.9266 C   0  0  0  0  0  0  0  0  0  0  0  0
   15.6466   -9.7645   12.6958 O   0  0  0  0  0  0  0  0  0  0  0  0
   17.4393   -9.7099   14.2127 N   0  0  0  0  0  0  0  0  0  0  0  0
   18.3978   -9.9084   14.3180 H   0  0  0  0  0  0  0  0  0  0  0  0
   16.7634   -9.1823   15.3616 C   0  0  0  0  0  0  0  0  0  0  0  0
   15.8665   -8.1071   15.2681 C   0  0  0  0  0  0  0  0  0  0  0  0
   15.2302   -7.6170   16.4117 C   0  0  0  0  0  0  0  0  0  0  0  0
   15.4867   -8.1957   17.6584 C   0  0  0  0  0  0  0  0  0  0  0  0
   16.3778   -9.2691   17.7561 C   0  0  0  0  0  0  0  0  0  0  0  0
   17.0132   -9.7590   16.6114 C   0  0  0  0  0  0  0  0  0  0  0  0
   14.6918   -7.5751   19.0940 S   0  0  0  0  0  0  0  0  0  0  0  0
   14.8468   -8.5675   20.2113 O   0  0  0  0  0  0  0  0  0  0  0  0
   15.3079   -6.2670   19.5055 O   0  0  0  0  0  0  0  0  0  0  0  0
   13.0078   -7.3306   18.7759 N   0  0  0  0  0  0  0  0  0  0  0  0
   12.5449   -7.9454   18.1619 H   0  0  0  0  0  0  0  0  0  0  0  0
   12.2689   -6.2668   19.3747 C   0  0  0  0  0  0  0  0  0  0  0  0
   11.5127   -5.3916   18.6832 N   0  0  0  0  0  0  0  0  0  0  0  0
   10.9118   -4.4888   19.5050 C   0  0  0  0  0  0  0  0  0  0  0  0
   11.1866   -4.6402   20.8653 C   0  0  0  0  0  0  0  0  0  0  0  0
   12.2230   -5.9611   21.0176 S   0  0  0  0  0  0  0  0  0  0  0  0
   17.7368  -10.4925   11.8321 C   0  0  0  0  0  0  0  0  0  0  0  0
   16.5374   -7.8258    6.5357 C   0  0  0  0  0  0  0  0  0  0  0  0
   17.4617   -8.0998    7.6287 N   0  0  0  0  0  0  0  0  0  0  0  0
   17.0906   -8.9045    8.6569 C   0  0  0  0  0  0  0  0  0  0  0  0
   17.9163   -9.1791    9.6896 C   0  0  0  0  0  0  0  0  0  0  0  0
   17.2754   -9.9872   10.5469 N   0  0  0  0  0  0  0  0  0  0  0  0
   16.0483  -10.1748   10.0013 C   0  0  0  0  0  0  0  0  0  0  0  0
   15.9011   -9.5177    8.8181 N   0  0  0  0  0  0  0  0  0  0  0  0
   19.1957   -8.6384    9.7313 C   0  0  0  0  0  0  0  0  0  0  0  0
   19.9761   -8.8940   10.6891 O   0  0  0  0  0  0  0  0  0  0  0  0
   19.5825   -7.8223    8.6976 N   0  0  0  0  0  0  0  0  0  0  0  0
   20.9175   -7.2329    8.7074 C   0  0  0  0  0  0  0  0  0  0  0  0
   18.7226   -7.5524    7.6513 C   0  0  0  0  0  0  0  0  0  0  0  0
   19.0946   -6.7975    6.7090 O   0  0  0  0  0  0  0  0  0  0  0  0
 22 23  1  0  0  0
 23 24  1  0  0  0
 24 25  2  0  0  0
 25 26  1  0  0  0
 26 21  1  0  0  0
 21  1  1  0  0  0
  1  2  2  0  0  0
  1  3  1  0  0  0
  3  5  1  0  0  0
  5  6  2  0  0  0
  6  7  1  0  0  0
  7  8  2  0  0  0
  8  9  1  0  0  0
  9 10  2  0  0  0
  8 11  1  0  0  0
 11 12  2  0  0  0
 11 13  2  0  0  0
 11 14  1  0  0  0
 14 16  1  0  0  0
 16 17  2  0  0  0
 17 18  1  0  0  0
 18 19  2  0  0  0
 19 20  1  0  0  0
 26 27  1  0  0  0
 27 28  2  0  0  0
 25 29  1  0  0  0
 29 30  2  0  0  0
 29 31  1  0  0  0
 31 32  1  0  0  0
 31 33  1  0  0  0
 33 34  2  0  0  0
 33 23  1  0  0  0
 28 24  1  0  0  0
 10  5  1  0  0  0
 20 16  1  0  0  0
  3  4  1  0  0  0
 14 15  1  0  0  0
M  END
>  <minimizedAffinity>
-1.72637

>  <minimizedRMSD>
2.64912

$$$$
CSC027859230 CSSS00027859230 MCULE-2040295191 MolPort-044-528-366 PubChem-126822293 Z2699320717


 27 29  0  0  0  0  0  0  0  0999 V2000
   17.3906   -8.5955   14.5808 C   0  0  0  0  0  0  0  0  0  0  0  0
   18.5504   -9.1936   15.3790 C   0  0  0  0  0  0  0  0  0  0  0  0
   19.3797  -10.1278   14.5007 C   0  0  0  0  0  0  0  0  0  0  0  0
   18.4938  -11.2279   13.9245 C   0  0  0  0  0  0  0  0  0  0  0  0
   17.3673  -10.6231   13.2198 N   0  0  0  0  0  0  0  0  0  0  0  0
   16.5208   -9.6824   13.9467 C   0  0  0  0  0  0  0  0  0  0  0  0
   17.1213  -10.9137   11.8385 C   0  0  0  0  0  0  0  0  0  0  0  0
   17.8791  -11.7070   11.2157 O   0  0  0  0  0  0  0  0  0  0  0  0
   16.0165  -10.3021   11.1646 N   0  0  0  0  0  0  0  0  0  0  0  0
   15.4033   -9.7345   11.6852 H   0  0  0  0  0  0  0  0  0  0  0  0
   16.5786   -7.6006   15.4103 C   0  0  0  0  0  0  0  0  0  0  0  0
   15.6153   -8.3331   16.7361 S   0  0  0  0  0  0  0  0  0  0  0  0
   14.6400   -9.3270   16.1658 O   0  0  0  0  0  0  0  0  0  0  0  0
   14.8410   -7.2347   17.4073 O   0  0  0  0  0  0  0  0  0  0  0  0
   16.9453  -10.4370   17.4861 C   0  0  0  0  0  0  0  0  0  0  0  0
   16.6423   -9.0822   17.9186 N   0  0  0  0  0  0  0  0  0  0  0  0
   17.5075   -8.5494   18.0079 H   0  0  0  0  0  0  0  0  0  0  0  0
   15.7597  -10.4827    9.7426 C   0  0  0  0  0  0  0  0  0  0  0  0
   16.5124   -9.4672    8.9485 C   0  0  0  0  0  0  0  0  0  0  0  0
   17.7554   -8.9431    9.2094 C   0  0  0  0  0  0  0  0  0  0  0  0
   18.6290   -9.1862   10.2672 C   0  0  0  0  0  0  0  0  0  0  0  0
   19.8514   -8.4954   10.2583 C   0  0  0  0  0  0  0  0  0  0  0  0
   20.1605   -7.6015    9.2146 C   0  0  0  0  0  0  0  0  0  0  0  0
   19.2363   -7.4043    8.1774 C   0  0  0  0  0  0  0  0  0  0  0  0
   18.0676   -8.0905    8.2253 N   0  0  0  0  0  0  0  0  0  0  0  0
   17.0907   -8.0366    7.3363 N   0  0  0  0  0  0  0  0  0  0  0  0
   16.1123   -8.8797    7.7521 C   0  0  0  0  0  0  0  0  0  0  0  0
 15 16  1  0  0  0
 16 12  1  0  0  0
 12 13  2  0  0  0
 12 14  2  0  0  0
 12 11  1  0  0  0
 11  1  1  0  0  0
  1  2  1  0  0  0
  2  3  1  0  0  0
  3  4  1  0  0  0
  4  5  1  0  0  0
  5  6  1  0  0  0
  5  7  1  0  0  0
  7  8  2  0  0  0
  7  9  1  0  0  0
  9 18  1  0  0  0
 18 19  1  0  0  0
 19 20  2  0  0  0
 20 21  1  0  0  0
 21 22  2  0  0  0
 22 23  1  0  0  0
 23 24  2  0  0  0
 24 25  1  0  0  0
 25 26  1  0  0  0
 26 27  2  0  0  0
  6  1  1  0  0  0
 27 19  1  0  0  0
 25 20  1  0  0  0
 16 17  1  0  0  0
  9 10  1  0  0  0
M  END
>  <minimizedAffinity>
-1.65597

>  <minimizedRMSD>
1.97337

$$$$
CHEMBL1597440 CSSS00159740595 MCULE-4529163817 MolPort-001-990-957


 34 38  0  0  0  0  0  0  0  0999 V2000
   16.6652   -9.7620   13.3257 C   0  0  0  0  0  0  0  0  0  0  0  0
   15.4130   -9.1327   13.3665 C   0  0  0  0  0  0  0  0  0  0  0  0
   14.5554   -9.2068   12.2668 C   0  0  0  0  0  0  0  0  0  0  0  0
   14.9410   -9.9022   11.1088 C   0  0  0  0  0  0  0  0  0  0  0  0
   16.1987  -10.5287   11.0709 C   0  0  0  0  0  0  0  0  0  0  0  0
   17.0538  -10.4496   12.1742 C   0  0  0  0  0  0  0  0  0  0  0  0
   17.7417  -11.4204   16.2550 C   0  0  0  0  0  0  0  0  0  0  0  0
   18.1450  -12.6866   16.4557 N   0  0  0  0  0  0  0  0  0  0  0  0
   18.6725  -13.1130   15.3121 N   0  0  0  0  0  0  0  0  0  0  0  0
   18.5978  -12.1145   14.4037 C   0  0  0  0  0  0  0  0  0  0  0  0
   19.0799  -12.2201   13.0000 C   0  0  0  0  0  0  0  0  0  0  0  0
   18.0035  -11.0204   14.9874 C   0  0  0  0  0  0  0  0  0  0  0  0
   17.6288   -9.6631   14.4726 C   0  0  0  0  0  0  0  0  0  0  0  0
   17.0686   -8.7794   15.5865 C   0  0  0  0  0  0  0  0  0  0  0  0
   16.8341   -9.2542   16.8401 C   0  0  0  0  0  0  0  0  0  0  0  0
   16.2785   -8.4038   17.8415 N   0  0  0  0  0  0  0  0  0  0  0  0
   17.1430  -10.5828   17.1889 O   0  0  0  0  0  0  0  0  0  0  0  0
   18.0650  -13.2010   17.2913 H   0  0  0  0  0  0  0  0  0  0  0  0
   16.0531   -7.4703   17.6249 H   0  0  0  0  0  0  0  0  0  0  0  0
   16.1205   -8.7504   18.7493 H   0  0  0  0  0  0  0  0  0  0  0  0
   16.8009   -7.3948   15.2719 C   0  0  0  0  0  0  0  0  0  0  0  0
   16.5865   -6.2866   15.0165 N   0  0  0  0  0  0  0  0  0  0  0  0
   14.0970   -9.9765    9.9945 O   0  0  0  0  0  0  0  0  0  0  0  0
   12.6875  -10.1198   10.1047 C   0  0  0  0  0  0  0  0  0  0  0  0
   16.6772  -11.2193    9.8359 C   0  0  0  0  0  0  0  0  0  0  0  0
   17.0440  -10.2355    8.8273 N   0  0  0  0  0  0  0  0  0  0  0  0
   17.9768   -9.2780    8.9139 C   0  0  0  0  0  0  0  0  0  0  0  0
   18.8754   -8.9896    9.9384 C   0  0  0  0  0  0  0  0  0  0  0  0
   19.7318   -7.8891    9.7398 C   0  0  0  0  0  0  0  0  0  0  0  0
   19.6620   -7.1253    8.5499 C   0  0  0  0  0  0  0  0  0  0  0  0
   18.7334   -7.4492    7.5404 C   0  0  0  0  0  0  0  0  0  0  0  0
   17.9063   -8.5438    7.7712 C   0  0  0  0  0  0  0  0  0  0  0  0
   16.9310   -9.0441    6.9899 N   0  0  0  0  0  0  0  0  0  0  0  0
   16.4193  -10.0732    7.6656 N   0  0  0  0  0  0  0  0  0  0  0  0
  7  8  1  0  0  0
  8  9  1  0  0  0
  9 10  2  0  0  0
 10 11  1  0  0  0
 10 12  1  0  0  0
 12 13  1  0  0  0
 13 14  1  0  0  0
 14 21  1  0  0  0
 21 22  3  0  0  0
 14 15  2  0  0  0
 15 16  1  0  0  0
 15 17  1  0  0  0
 13  1  1  0  0  0
  1  2  2  0  0  0
  2  3  1  0  0  0
  3  4  2  0  0  0
  4  5  1  0  0  0
  5 25  1  0  0  0
 25 26  1  0  0  0
 26 27  1  0  0  0
 27 28  2  0  0  0
 28 29  1  0  0  0
 29 30  2  0  0  0
 30 31  1  0  0  0
 31 32  2  0  0  0
 32 33  1  0  0  0
 33 34  2  0  0  0
  5  6  2  0  0  0
  4 23  1  0  0  0
 23 24  1  0  0  0
 12  7  2  0  0  0
  6  1  1  0  0  0
 17  7  1  0  0  0
 34 26  1  0  0  0
 32 27  1  0  0  0
  8 18  1  0  0  0
 16 19  1  0  0  0
 16 20  1  0  0  0
M  END
>  <minimizedAffinity>
-1.64951

>  <minimizedRMSD>
2.54957

$$$$
CSSS00160335574 MCULE-1740583206 MolPort-002-294-972 PubChem-135410596


 36 39  0  0  0  0  0  0  0  0999 V2000
   17.7002   -9.8322   16.2797 C   0  0  0  0  0  0  0  0  0  0  0  0
   17.7407  -11.0264   16.9051 N   0  0  0  0  0  0  0  0  0  0  0  0
   17.6512  -11.9583   15.9653 N   0  0  0  0  0  0  0  0  0  0  0  0
   17.5563  -11.3154   14.7859 C   0  0  0  0  0  0  0  0  0  0  0  0
   17.5753   -9.9814   14.9495 N   0  0  0  0  0  0  0  0  0  0  0  0
   17.7788   -8.5080   16.9831 C   0  0  0  0  0  0  0  0  0  0  0  0
   16.7459   -8.4423   18.0115 N   0  0  0  0  0  0  0  0  0  0  0  0
   15.4511   -7.8790   17.7755 C   0  0  0  0  0  0  0  0  0  0  0  0
   15.1798   -7.3708   16.6526 O   0  0  0  0  0  0  0  0  0  0  0  0
   16.9480   -8.8006   18.9059 H   0  0  0  0  0  0  0  0  0  0  0  0
   14.4378   -7.8883   18.8450 C   0  0  0  0  0  0  0  0  0  0  0  0
   13.0721   -7.9408   18.5287 C   0  0  0  0  0  0  0  0  0  0  0  0
   12.1113   -7.9508   19.5446 C   0  0  0  0  0  0  0  0  0  0  0  0
   12.5090   -7.9092   20.8838 C   0  0  0  0  0  0  0  0  0  0  0  0
   13.8674   -7.8565   21.2076 C   0  0  0  0  0  0  0  0  0  0  0  0
   14.8283   -7.8460   20.1919 C   0  0  0  0  0  0  0  0  0  0  0  0
   19.1197   -7.2004   18.6548 C   0  0  0  0  0  0  0  0  0  0  0  0
   19.1630   -8.2971   17.6045 C   0  0  0  0  0  0  0  0  0  0  0  0
   20.1764   -7.9006   16.5442 C   0  0  0  0  0  0  0  0  0  0  0  0
   17.4265  -12.1461   13.2060 S   0  0  0  0  0  0  0  0  0  0  0  0
   18.7285  -11.1099   12.4767 C   0  0  0  0  0  0  0  0  0  0  0  0
   18.2130  -10.4237   11.2614 C   0  0  0  0  0  0  0  0  0  0  0  0
   18.9923   -9.5103   10.6252 N   0  0  0  0  0  0  0  0  0  0  0  0
   18.5480   -8.8671    9.5155 C   0  0  0  0  0  0  0  0  0  0  0  0
   19.3619   -7.9274    8.8760 C   0  0  0  0  0  0  0  0  0  0  0  0
   18.9006   -7.2654    7.7335 C   0  0  0  0  0  0  0  0  0  0  0  0
   17.6250   -7.5402    7.2281 C   0  0  0  0  0  0  0  0  0  0  0  0
   16.8052   -8.4787    7.8632 C   0  0  0  0  0  0  0  0  0  0  0  0
   17.2617   -9.1468    9.0085 C   0  0  0  0  0  0  0  0  0  0  0  0
   16.4791  -10.0969    9.6782 C   0  0  0  0  0  0  0  0  0  0  0  0
   15.3228  -10.3875    9.2678 O   0  0  0  0  0  0  0  0  0  0  0  0
   16.9718  -10.7131   10.7849 N   0  0  0  0  0  0  0  0  0  0  0  0
   16.4198  -11.3820   11.2510 H   0  0  0  0  0  0  0  0  0  0  0  0
   17.5412   -8.9463   13.9249 C   0  0  0  0  0  0  0  0  0  0  0  0
   16.1363   -8.5009   13.6956 C   0  0  0  0  0  0  0  0  0  0  0  0
   15.2755   -9.3054   13.0820 C   0  0  0  0  0  0  0  0  0  0  0  0
 17 18  1  0  0  0
 18 19  1  0  0  0
  6 18  1  0  0  0
  6  7  1  0  0  0
  6  1  1  0  0  0
  7  8  1  0  0  0
  8  9  2  0  0  0
  8 11  1  0  0  0
 11 12  2  0  0  0
 12 13  1  0  0  0
 13 14  2  0  0  0
 14 15  1  0  0  0
 15 16  2  0  0  0
 16 11  1  0  0  0
  1  2  2  0  0  0
  2  3  1  0  0  0
  3  4  2  0  0  0
  4 20  1  0  0  0
  4  5  1  0  0  0
 20 21  1  0  0  0
 21 22  1  0  0  0
 22 23  2  0  0  0
 23 24  1  0  0  0
 24 25  2  0  0  0
 25 26  1  0  0  0
 26 27  2  0  0  0
 27 28  1  0  0  0
 28 29  2  0  0  0
 29 30  1  0  0  0
 29 24  1  0  0  0
 30 31  2  0  0  0
 30 32  1  0  0  0
 32 22  1  0  0  0
  5 34  1  0  0  0
  5  1  1  0  0  0
 34 35  1  0  0  0
 35 36  2  0  0  0
  7 10  1  0  0  0
 32 33  1  0  0  0
M  END
>  <minimizedAffinity>
-1.61801

>  <minimizedRMSD>
1.47934

$$$$
CSC026164621 9980717 CSSS00026164621 MCULE-9340692058 MolPort-004-144-150 PubChem-16281048 Z22272122 ZINC000009980717


 28 30  0  0  0  0  0  0  0  0999 V2000
   16.6246  -10.3446   13.2213 N   0  0  0  0  0  0  0  0  0  0  0  0
   15.7245   -9.5703   12.4184 C   0  0  0  0  0  0  0  0  0  0  0  0
   15.4039   -8.3959   12.7411 O   0  0  0  0  0  0  0  0  0  0  0  0
   16.8366  -11.2502   12.8985 H   0  0  0  0  0  0  0  0  0  0  0  0
   17.1354   -9.1726   16.7599 C   0  0  0  0  0  0  0  0  0  0  0  0
   16.4993   -9.5689   15.5741 C   0  0  0  0  0  0  0  0  0  0  0  0
   17.2482   -9.9361   14.4463 C   0  0  0  0  0  0  0  0  0  0  0  0
   18.6446   -9.9040   14.5135 C   0  0  0  0  0  0  0  0  0  0  0  0
   19.2863   -9.5106   15.6908 C   0  0  0  0  0  0  0  0  0  0  0  0
   18.5326   -9.1463   16.8096 C   0  0  0  0  0  0  0  0  0  0  0  0
   14.6262   -7.6211   19.2861 C   0  0  0  0  0  0  0  0  0  0  0  0
   15.2734   -7.9014   17.9784 C   0  0  0  0  0  0  0  0  0  0  0  0
   16.3953   -8.7918   17.9278 N   0  0  0  0  0  0  0  0  0  0  0  0
   14.8254   -7.3519   16.9377 O   0  0  0  0  0  0  0  0  0  0  0  0
   16.6880   -9.1823   18.7829 H   0  0  0  0  0  0  0  0  0  0  0  0
   15.1909  -10.1510   11.1588 C   0  0  0  0  0  0  0  0  0  0  0  0
   16.2640  -10.6552   10.3775 O   0  0  0  0  0  0  0  0  0  0  0  0
   16.7579   -9.9700    9.2641 C   0  0  0  0  0  0  0  0  0  0  0  0
   17.9344   -9.2189    9.3671 C   0  0  0  0  0  0  0  0  0  0  0  0
   18.4003   -8.5422    8.2213 C   0  0  0  0  0  0  0  0  0  0  0  0
   19.5720   -7.7828    8.2879 C   0  0  0  0  0  0  0  0  0  0  0  0
   20.2803   -7.6953    9.4906 C   0  0  0  0  0  0  0  0  0  0  0  0
   19.8196   -8.3661   10.6283 C   0  0  0  0  0  0  0  0  0  0  0  0
   18.6484   -9.1273   10.5685 C   0  0  0  0  0  0  0  0  0  0  0  0
   20.7896   -8.2428   12.2633 Br  0  0  0  0  0  0  0  0  0  0  0  0
   17.7095   -8.6300    7.0561 N   0  0  0  0  0  0  0  0  0  0  0  0
   16.5693   -9.3648    6.9774 C   0  0  0  0  0  0  0  0  0  0  0  0
   16.1033  -10.0248    8.0706 N   0  0  0  0  0  0  0  0  0  0  0  0
 11 12  1  0  0  0
 12 13  1  0  0  0
 13  5  1  0  0  0
  5  6  2  0  0  0
  6  7  1  0  0  0
  7  1  1  0  0  0
  1  2  1  0  0  0
  2 16  1  0  0  0
 16 17  1  0  0  0
 17 18  1  0  0  0
 18 19  1  0  0  0
 19 20  1  0  0  0
 20 21  2  0  0  0
 21 22  1  0  0  0
 22 23  2  0  0  0
 23 24  1  0  0  0
 23 25  1  0  0  0
 20 26  1  0  0  0
 26 27  2  0  0  0
 27 28  1  0  0  0
  2  3  2  0  0  0
  7  8  2  0  0  0
  8  9  1  0  0  0
  9 10  2  0  0  0
 12 14  2  0  0  0
 10  5  1  0  0  0
 28 18  2  0  0  0
 24 19  2  0  0  0
 13 15  1  0  0  0
  1  4  1  0  0  0
M  END
>  <minimizedAffinity>
-1.60412

>  <minimizedRMSD>
1.43577

$$$$
CSC027605656 76082409 CSSS00027605656 MCULE-7156054817 MolPort-023-171-611 PubChem-72117220 Z1280657496 ZINC000076082409 ZINC76082409


 27 29  0  0  0  0  0  0  0  0999 V2000
   17.8241  -10.1841   12.5000 C   0  0  0  0  0  0  0  0  0  0  0  0
   18.3370   -9.2174   13.1266 O   0  0  0  0  0  0  0  0  0  0  0  0
   18.1766  -11.5220   12.8636 N   0  0  0  0  0  0  0  0  0  0  0  0
   17.7765  -12.2718   12.3666 H   0  0  0  0  0  0  0  0  0  0  0  0
   18.8292   -8.3767    8.6130 C   0  0  0  0  0  0  0  0  0  0  0  0
   17.8238   -8.2159    7.6567 C   0  0  0  0  0  0  0  0  0  0  0  0
   16.5170   -8.6235    7.9304 C   0  0  0  0  0  0  0  0  0  0  0  0
   16.2027   -9.1968    9.1651 C   0  0  0  0  0  0  0  0  0  0  0  0
   14.9265   -9.5879    9.4149 N   0  0  0  0  0  0  0  0  0  0  0  0
   14.5726  -10.1495   10.5985 C   0  0  0  0  0  0  0  0  0  0  0  0
   13.1647  -10.5633   10.8313 C   0  0  0  0  0  0  0  0  0  0  0  0
   15.5264  -10.3391   11.5970 C   0  0  0  0  0  0  0  0  0  0  0  0
   16.8585   -9.9540   11.3926 C   0  0  0  0  0  0  0  0  0  0  0  0
   17.2080   -9.3689   10.1489 C   0  0  0  0  0  0  0  0  0  0  0  0
   18.5156   -8.9525    9.8539 C   0  0  0  0  0  0  0  0  0  0  0  0
   21.1956   -8.0267    9.2416 C   0  0  0  0  0  0  0  0  0  0  0  0
   20.1270   -7.9580    8.3072 O   0  0  0  0  0  0  0  0  0  0  0  0
   19.1069  -11.8103   13.9438 C   0  0  0  0  0  0  0  0  0  0  0  0
   18.3883  -12.5371   15.0700 C   0  0  0  0  0  0  0  0  0  0  0  0
   16.9268  -12.1144   15.1596 C   0  0  0  0  0  0  0  0  0  0  0  0
   16.7840  -10.7841   15.8263 C   0  0  0  0  0  0  0  0  0  0  0  0
   17.3466  -10.3608   17.0081 C   0  0  0  0  0  0  0  0  0  0  0  0
   18.2460  -11.1449   17.8985 C   0  0  0  0  0  0  0  0  0  0  0  0
   16.9486   -9.1040   17.2607 N   0  0  0  0  0  0  0  0  0  0  0  0
   16.1490   -8.7218   16.2748 N   0  0  0  0  0  0  0  0  0  0  0  0
   16.0225   -9.7253   15.3799 C   0  0  0  0  0  0  0  0  0  0  0  0
   17.2054   -8.5614   18.0410 H   0  0  0  0  0  0  0  0  0  0  0  0
 16 17  1  0  0  0
 17  5  1  0  0  0
  5  6  2  0  0  0
  6  7  1  0  0  0
  7  8  2  0  0  0
  8  9  1  0  0  0
  9 10  2  0  0  0
 10 11  1  0  0  0
 10 12  1  0  0  0
 12 13  2  0  0  0
 13  1  1  0  0  0
 13 14  1  0  0  0
  1  2  2  0  0  0
  1  3  1  0  0  0
  3 18  1  0  0  0
 18 19  1  0  0  0
 19 20  1  0  0  0
 20 21  1  0  0  0
 21 22  2  0  0  0
 22 23  1  0  0  0
 22 24  1  0  0  0
 24 25  1  0  0  0
 25 26  2  0  0  0
 26 21  1  0  0  0
 14 15  2  0  0  0
 14  8  1  0  0  0
 15  5  1  0  0  0
  3  4  1  0  0  0
 24 27  1  0  0  0
M  END
>  <minimizedAffinity>
-1.54441

>  <minimizedRMSD>
1.76379

$$$$
CSC025982802 40145303 CSSS00025982802 MCULE-8304328779 MolPort-009-333-248 PubChem-45909635 Z466918428 ZINC000040145303


 32 35  0  0  0  0  0  0  0  0999 V2000
   17.0379   -8.9955   10.4263 N   0  0  0  0  0  0  0  0  0  0  0  0
   16.4503   -9.5412    9.2445 C   0  0  0  0  0  0  0  0  0  0  0  0
   15.3821  -10.2073    9.3162 O   0  0  0  0  0  0  0  0  0  0  0  0
   17.8758   -8.4842   10.3502 H   0  0  0  0  0  0  0  0  0  0  0  0
   17.0969   -9.3237    7.9434 C   0  0  0  0  0  0  0  0  0  0  0  0
   18.1975   -8.5541    7.6525 C   0  0  0  0  0  0  0  0  0  0  0  0
   18.4619   -8.6298    6.3432 N   0  0  0  0  0  0  0  0  0  0  0  0
   19.5068   -7.9649    5.7653 C   0  0  0  0  0  0  0  0  0  0  0  0
   20.3114   -7.1810    6.6148 C   0  0  0  0  0  0  0  0  0  0  0  0
   20.0112   -7.1182    7.9869 C   0  0  0  0  0  0  0  0  0  0  0  0
   18.9523   -7.8085    8.4956 N   0  0  0  0  0  0  0  0  0  0  0  0
   17.5755   -9.4233    5.7618 N   0  0  0  0  0  0  0  0  0  0  0  0
   16.7205   -9.8674    6.7176 C   0  0  0  0  0  0  0  0  0  0  0  0
   19.8103   -8.0370    4.3088 C   0  0  0  0  0  0  0  0  0  0  0  0
   21.1161   -7.8641    3.8226 C   0  0  0  0  0  0  0  0  0  0  0  0
   21.3871   -7.9401    2.4534 C   0  0  0  0  0  0  0  0  0  0  0  0
   20.3523   -8.1913    1.5501 C   0  0  0  0  0  0  0  0  0  0  0  0
   19.0480   -8.3662    2.0164 C   0  0  0  0  0  0  0  0  0  0  0  0
   18.7798   -8.2899    3.3859 C   0  0  0  0  0  0  0  0  0  0  0  0
   16.4367   -9.1719   11.7383 C   0  0  0  0  0  0  0  0  0  0  0  0
   17.7194  -11.2272   14.6530 C   0  0  0  0  0  0  0  0  0  0  0  0
   16.9706  -10.3140   13.8964 C   0  0  0  0  0  0  0  0  0  0  0  0
   17.2512  -10.1242   12.5398 C   0  0  0  0  0  0  0  0  0  0  0  0
   18.2733  -10.8585   11.9299 C   0  0  0  0  0  0  0  0  0  0  0  0
   19.0212  -11.7708   12.6794 C   0  0  0  0  0  0  0  0  0  0  0  0
   18.7444  -11.9535   14.0377 C   0  0  0  0  0  0  0  0  0  0  0  0
   17.4570  -11.4330   16.0437 N   0  0  0  0  0  0  0  0  0  0  0  0
   17.1135  -12.3111   16.3271 H   0  0  0  0  0  0  0  0  0  0  0  0
   18.9857   -9.0987   16.7361 C   0  0  0  0  0  0  0  0  0  0  0  0
   17.7102  -10.2223   17.2580 S   0  0  0  0  0  0  0  0  0  0  0  0
   16.4311   -9.4719   17.5014 O   0  0  0  0  0  0  0  0  0  0  0  0
   18.1399  -10.8890   18.5342 O   0  0  0  0  0  0  0  0  0  0  0  0
 29 30  1  0  0  0
 30 27  1  0  0  0
 27 21  1  0  0  0
 21 22  2  0  0  0
 22 23  1  0  0  0
 23 20  1  0  0  0
 20  1  1  0  0  0
  1  2  1  0  0  0
  2  5  1  0  0  0
  5  6  2  0  0  0
  6  7  1  0  0  0
  7  8  1  0  0  0
  8 14  1  0  0  0
 14 15  2  0  0  0
 15 16  1  0  0  0
 16 17  2  0  0  0
 17 18  1  0  0  0
 18 19  2  0  0  0
  8  9  2  0  0  0
  9 10  1  0  0  0
 10 11  2  0  0  0
  7 12  1  0  0  0
 12 13  2  0  0  0
  2  3  2  0  0  0
 23 24  2  0  0  0
 24 25  1  0  0  0
 25 26  2  0  0  0
 30 31  2  0  0  0
 30 32  2  0  0  0
 26 21  1  0  0  0
 13  5  1  0  0  0
 11  6  1  0  0  0
 19 14  1  0  0  0
 27 28  1  0  0  0
  1  4  1  0  0  0
M  END
>  <minimizedAffinity>
-1.44618

>  <minimizedRMSD>
3.90271

$$$$
CSC028222682 12760287 CSSS00028222682 MCULE-9920496453 MolPort-005-742-200 PubChem-25490294 Z246396414 ZINC000012760287


 32 35  0  0  0  0  0  0  0  0999 V2000
   17.1159   -9.9828   12.1102 N   0  0  0  0  0  0  0  0  0  0  0  0
   18.3618  -10.6161   12.5391 C   0  0  0  0  0  0  0  0  0  0  0  0
   18.7449  -10.0972   13.9217 C   0  0  0  0  0  0  0  0  0  0  0  0
   17.6363  -10.2958   14.8563 N   0  0  0  0  0  0  0  0  0  0  0  0
   16.5021   -9.4820   14.4170 C   0  0  0  0  0  0  0  0  0  0  0  0
   16.0040   -9.9696   13.0596 C   0  0  0  0  0  0  0  0  0  0  0  0
   14.1754  -10.4791    8.1633 C   0  0  0  0  0  0  0  0  0  0  0  0
   15.4343   -9.9798    8.7743 C   0  0  0  0  0  0  0  0  0  0  0  0
   15.6841  -10.2004   10.1288 C   0  0  0  0  0  0  0  0  0  0  0  0
   16.8722   -9.7384   10.7125 C   0  0  0  0  0  0  0  0  0  0  0  0
   17.7933   -9.0319    9.9071 C   0  0  0  0  0  0  0  0  0  0  0  0
   18.9800   -8.4976   10.4315 C   0  0  0  0  0  0  0  0  0  0  0  0
   19.8656   -7.7958    9.6094 C   0  0  0  0  0  0  0  0  0  0  0  0
   19.5716   -7.6149    8.2558 C   0  0  0  0  0  0  0  0  0  0  0  0
   18.3884   -8.1300    7.7209 C   0  0  0  0  0  0  0  0  0  0  0  0
   17.4962   -8.8317    8.5370 C   0  0  0  0  0  0  0  0  0  0  0  0
   16.3374   -9.3091    8.0130 N   0  0  0  0  0  0  0  0  0  0  0  0
   18.1422   -9.7034   16.4077 S   0  0  0  0  0  0  0  0  0  0  0  0
   19.2973   -8.7575   16.2298 O   0  0  0  0  0  0  0  0  0  0  0  0
   18.6002  -10.8548   17.2593 O   0  0  0  0  0  0  0  0  0  0  0  0
   16.8268   -8.8655   17.2222 C   0  0  0  0  0  0  0  0  0  0  0  0
   16.8117   -8.7705   18.6184 C   0  0  0  0  0  0  0  0  0  0  0  0
   15.7577   -8.1196   19.2658 C   0  0  0  0  0  0  0  0  0  0  0  0
   14.7147   -7.5603   18.5197 C   0  0  0  0  0  0  0  0  0  0  0  0
   14.7266   -7.6598   17.1239 C   0  0  0  0  0  0  0  0  0  0  0  0
   15.7807   -8.3102   16.4767 C   0  0  0  0  0  0  0  0  0  0  0  0
   13.3866   -6.7554   19.3349 S   0  0  0  0  0  0  0  0  0  0  0  0
   12.4844   -7.9071   20.2536 N   0  0  0  0  0  0  0  0  0  0  0  0
   12.4898   -6.1097   18.3172 O   0  0  0  0  0  0  0  0  0  0  0  0
   13.9240   -5.7055   20.2667 O   0  0  0  0  0  0  0  0  0  0  0  0
   12.1148   -8.6249   19.6302 H   0  0  0  0  0  0  0  0  0  0  0  0
   11.7124   -7.4361   20.7253 H   0  0  0  0  0  0  0  0  0  0  0  0
  7  8  1  0  0  0
  8  9  2  0  0  0
  9 10  1  0  0  0
 10  1  1  0  0  0
 10 11  2  0  0  0
  1  2  1  0  0  0
  2  3  1  0  0  0
  3  4  1  0  0  0
  4  5  1  0  0  0
  4 18  1  0  0  0
  5  6  1  0  0  0
  6  1  1  0  0  0
 18 19  2  0  0  0
 18 20  2  0  0  0
 18 21  1  0  0  0
 21 22  2  0  0  0
 22 23  1  0  0  0
 23 24  2  0  0  0
 24 25  1  0  0  0
 24 27  1  0  0  0
 25 26  2  0  0  0
 26 21  1  0  0  0
 27 28  1  0  0  0
 27 29  2  0  0  0
 27 30  2  0  0  0
 11 12  1  0  0  0
 12 13  2  0  0  0
 13 14  1  0  0  0
 14 15  2  0  0  0
 15 16  1  0  0  0
 16 17  2  0  0  0
 16 11  1  0  0  0
 17  8  1  0  0  0
 28 31  1  0  0  0
 28 32  1  0  0  0
M  END
>  <minimizedAffinity>
-1.41358

>  <minimizedRMSD>
3.08614

$$$$
22767843 CSSS03436967095 MCULE-6123269094 MolPort-003-123-480 PubChem-30607348 ZINC000022767843


 30 32  0  0  0  0  0  0  0  0999 V2000
   18.0716   -9.6830   12.0251 N   0  0  0  0  0  0  0  0  0  0  0  0
   18.4701   -8.8596   12.3892 H   0  0  0  0  0  0  0  0  0  0  0  0
   19.8993   -7.9105    8.5529 N   0  0  0  0  0  0  0  0  0  0  0  0
   21.2405   -7.3334    8.6106 C   0  0  0  0  0  0  0  0  0  0  0  0
   19.3539   -8.4615    9.6775 C   0  0  0  0  0  0  0  0  0  0  0  0
   20.0154   -8.4621   10.7535 O   0  0  0  0  0  0  0  0  0  0  0  0
   18.0599   -9.0229    9.6315 C   0  0  0  0  0  0  0  0  0  0  0  0
   17.4207   -9.6150   10.7506 C   0  0  0  0  0  0  0  0  0  0  0  0
   16.1320  -10.1408   10.6049 C   0  0  0  0  0  0  0  0  0  0  0  0
   15.4919  -10.0816    9.3718 C   0  0  0  0  0  0  0  0  0  0  0  0
   16.1153   -9.5140    8.3097 N   0  0  0  0  0  0  0  0  0  0  0  0
   17.3696   -8.9862    8.3981 C   0  0  0  0  0  0  0  0  0  0  0  0
   17.9548   -8.4249    7.2996 N   0  0  0  0  0  0  0  0  0  0  0  0
   17.2330   -8.3920    6.0295 C   0  0  0  0  0  0  0  0  0  0  0  0
   19.2097   -7.8915    7.3737 C   0  0  0  0  0  0  0  0  0  0  0  0
   19.7359   -7.3766    6.3458 O   0  0  0  0  0  0  0  0  0  0  0  0
   18.1755  -10.9045   12.8110 C   0  0  0  0  0  0  0  0  0  0  0  0
   18.8805  -10.6153   14.1277 C   0  0  0  0  0  0  0  0  0  0  0  0
   17.9561   -9.9709   15.1078 C   0  0  0  0  0  0  0  0  0  0  0  0
   16.5684  -10.0445   14.9329 C   0  0  0  0  0  0  0  0  0  0  0  0
   15.7131   -9.4389   15.8579 C   0  0  0  0  0  0  0  0  0  0  0  0
   16.2411   -8.7616   16.9631 C   0  0  0  0  0  0  0  0  0  0  0  0
   17.6273   -8.6921   17.1393 C   0  0  0  0  0  0  0  0  0  0  0  0
   18.4831   -9.2975   16.2146 C   0  0  0  0  0  0  0  0  0  0  0  0
   15.1734   -7.9902   18.1211 S   0  0  0  0  0  0  0  0  0  0  0  0
   16.1084   -7.3017   19.4007 N   0  0  0  0  0  0  0  0  0  0  0  0
   14.2297   -9.0063   18.7010 O   0  0  0  0  0  0  0  0  0  0  0  0
   14.3835   -6.9113   17.4357 O   0  0  0  0  0  0  0  0  0  0  0  0
   16.6435   -8.0362   19.8640 H   0  0  0  0  0  0  0  0  0  0  0  0
   15.4860   -6.8573   20.0755 H   0  0  0  0  0  0  0  0  0  0  0  0
  3  4  1  0  0  0
  3  5  1  0  0  0
  5  6  2  0  0  0
  5  7  1  0  0  0
  7  8  2  0  0  0
  8  9  1  0  0  0
  9 10  2  0  0  0
 10 11  1  0  0  0
 11 12  2  0  0  0
 12 13  1  0  0  0
 13 14  1  0  0  0
 13 15  1  0  0  0
 15 16  2  0  0  0
  8  1  1  0  0  0
  1 17  1  0  0  0
 17 18  1  0  0  0
 18 19  1  0  0  0
 19 20  2  0  0  0
 20 21  1  0  0  0
 21 22  2  0  0  0
 22 23  1  0  0  0
 23 24  2  0  0  0
 22 25  1  0  0  0
 25 26  1  0  0  0
 25 27  2  0  0  0
 25 28  2  0  0  0
 15  3  1  0  0  0
 24 19  1  0  0  0
 12  7  1  0  0  0
  1  2  1  0  0  0
 26 29  1  0  0  0
 26 30  1  0  0  0
M  END
>  <minimizedAffinity>
-1.38272

>  <minimizedRMSD>
1.58423

$$$$
CSSS03436999385 MCULE-4113597816 MolPort-047-544-554 PubChem-154853700


 26 30  0  0  0  0  0  0  0  0999 V2000
   16.9685   -9.7551   10.7863 N   0  0  0  0  0  0  0  0  0  0  0  0
   18.0505  -10.5354   11.3951 C   0  0  0  0  0  0  0  0  0  0  0  0
   17.5440  -11.3407   12.5891 C   0  0  0  0  0  0  0  0  0  0  0  0
   16.7001  -10.4952   13.4347 N   0  0  0  0  0  0  0  0  0  0  0  0
   15.6084   -9.7275   12.8206 C   0  0  0  0  0  0  0  0  0  0  0  0
   15.6038   -9.8669   11.2982 C   0  0  0  0  0  0  0  0  0  0  0  0
   19.7959   -8.5753   11.2519 C   0  0  0  0  0  0  0  0  0  0  0  0
   19.5179   -8.3135    9.8504 N   0  0  0  0  0  0  0  0  0  0  0  0
   20.3333   -7.6480    8.9962 C   0  0  0  0  0  0  0  0  0  0  0  0
   19.7627   -7.4524    7.7762 N   0  0  0  0  0  0  0  0  0  0  0  0
   18.5526   -8.0217    7.9132 C   0  0  0  0  0  0  0  0  0  0  0  0
   17.5609   -8.0293    6.9912 N   0  0  0  0  0  0  0  0  0  0  0  0
   16.3658   -8.5970    7.3321 C   0  0  0  0  0  0  0  0  0  0  0  0
   16.1837   -9.1423    8.5762 N   0  0  0  0  0  0  0  0  0  0  0  0
   17.1813   -9.1427    9.5114 C   0  0  0  0  0  0  0  0  0  0  0  0
   18.3962   -8.5494    9.1515 C   0  0  0  0  0  0  0  0  0  0  0  0
   17.0009  -10.3901   14.8411 C   0  0  0  0  0  0  0  0  0  0  0  0
   16.4804   -9.3836   15.6636 C   0  0  0  0  0  0  0  0  0  0  0  0
   15.6346   -8.3130   15.4613 C   0  0  0  0  0  0  0  0  0  0  0  0
   15.4951   -7.6866   16.6580 N   0  0  0  0  0  0  0  0  0  0  0  0
   16.2087   -8.3120   17.5898 N   0  0  0  0  0  0  0  0  0  0  0  0
   16.8060   -9.3432   16.9802 C   0  0  0  0  0  0  0  0  0  0  0  0
   17.6296  -10.2503   17.5550 N   0  0  0  0  0  0  0  0  0  0  0  0
   18.1457  -11.2390   16.7674 C   0  0  0  0  0  0  0  0  0  0  0  0
   17.8326  -11.3019   15.4345 N   0  0  0  0  0  0  0  0  0  0  0  0
   16.2830   -8.0653   18.5400 H   0  0  0  0  0  0  0  0  0  0  0  0
  7  8  1  0  0  0
  8  9  1  0  0  0
  9 10  2  0  0  0
 10 11  1  0  0  0
 11 12  2  0  0  0
 12 13  1  0  0  0
 13 14  2  0  0  0
 14 15  1  0  0  0
 15  1  1  0  0  0
  1  2  1  0  0  0
  2  3  1  0  0  0
  3  4  1  0  0  0
  4  5  1  0  0  0
  5  6  1  0  0  0
  4 17  1  0  0  0
 17 18  2  0  0  0
 18 19  1  0  0  0
 19 20  2  0  0  0
 20 21  1  0  0  0
 21 22  1  0  0  0
 22 23  2  0  0  0
 23 24  1  0  0  0
 24 25  2  0  0  0
 15 16  2  0  0  0
 16  8  1  0  0  0
 16 11  1  0  0  0
  6  1  1  0  0  0
 25 17  1  0  0  0
 22 18  1  0  0  0
 21 26  1  0  0  0
M  END
>  <minimizedAffinity>
-1.37293

>  <minimizedRMSD>
0.62583

$$$$
CSC059163947 CSSS00059163947 MCULE-6953940779 MolPort-046-537-206 PubChem-133358944 Z1348331465


 26 29  0  0  0  0  0  0  0  0999 V2000
   18.2235  -10.7268   13.6452 N   0  0  0  0  0  0  0  0  0  0  0  0
   19.3448  -11.6401   13.3908 C   0  0  0  0  0  0  0  0  0  0  0  0
   19.7360  -11.6480   11.9145 C   0  0  0  0  0  0  0  0  0  0  0  0
   18.4995  -11.8645   11.0440 C   0  0  0  0  0  0  0  0  0  0  0  0
   17.3679  -10.8665   11.3442 C   0  0  0  0  0  0  0  0  0  0  0  0
   17.6471   -9.9555   12.5431 C   0  0  0  0  0  0  0  0  0  0  0  0
   17.0395  -10.0548   10.1319 C   0  0  0  0  0  0  0  0  0  0  0  0
   15.8737  -10.1564    9.4547 N   0  0  0  0  0  0  0  0  0  0  0  0
   15.9227   -9.2939    8.4421 N   0  0  0  0  0  0  0  0  0  0  0  0
   17.1196   -8.6854    8.5260 C   0  0  0  0  0  0  0  0  0  0  0  0
   17.6171   -7.7017    7.6762 C   0  0  0  0  0  0  0  0  0  0  0  0
   18.9016   -7.2047    7.9573 C   0  0  0  0  0  0  0  0  0  0  0  0
   19.6374   -7.6934    9.0563 C   0  0  0  0  0  0  0  0  0  0  0  0
   19.0787   -8.6861    9.8753 C   0  0  0  0  0  0  0  0  0  0  0  0
   17.8368   -9.1344    9.5632 N   0  0  0  0  0  0  0  0  0  0  0  0
   16.4664   -9.2463   16.5321 C   0  0  0  0  0  0  0  0  0  0  0  0
   16.7522  -10.1777   17.5354 C   0  0  0  0  0  0  0  0  0  0  0  0
   17.5118  -11.2654   17.2439 N   0  0  0  0  0  0  0  0  0  0  0  0
   18.0014  -11.4674   15.9930 C   0  0  0  0  0  0  0  0  0  0  0  0
   17.7223  -10.5402   14.9797 C   0  0  0  0  0  0  0  0  0  0  0  0
   16.9590   -9.4526   15.2804 N   0  0  0  0  0  0  0  0  0  0  0  0
   15.2537   -7.7531   18.1517 N   0  0  0  0  0  0  0  0  0  0  0  0
   15.6466   -8.0592   16.8169 C   0  0  0  0  0  0  0  0  0  0  0  0
   15.2848   -7.3022   15.8778 O   0  0  0  0  0  0  0  0  0  0  0  0
   14.7048   -6.9562   18.3328 H   0  0  0  0  0  0  0  0  0  0  0  0
   15.5312   -8.3385   18.8930 H   0  0  0  0  0  0  0  0  0  0  0  0
 22 23  1  0  0  0
 23 24  2  0  0  0
 23 16  1  0  0  0
 16 17  2  0  0  0
 17 18  1  0  0  0
 18 19  2  0  0  0
 19 20  1  0  0  0
 20 21  2  0  0  0
 20  1  1  0  0  0
  1  2  1  0  0  0
  2  3  1  0  0  0
  3  4  1  0  0  0
  4  5  1  0  0  0
  5  6  1  0  0  0
  5  7  1  0  0  0
  7  8  2  0  0  0
  8  9  1  0  0  0
  9 10  2  0  0  0
 10 11  1  0  0  0
 11 12  2  0  0  0
 12 13  1  0  0  0
 13 14  2  0  0  0
 14 15  1  0  0  0
 21 16  1  0  0  0
  6  1  1  0  0  0
 15  7  1  0  0  0
 15 10  1  0  0  0
 22 25  1  0  0  0
 22 26  1  0  0  0
M  END
>  <minimizedAffinity>
-1.35331

>  <minimizedRMSD>
0.57259

$$$$
CSSS00159439577 MCULE-7606712595 MolPort-004-997-606 PubChem-45168165


 35 39  0  0  0  0  0  0  0  0999 V2000
   17.3477   -9.1055   16.0783 C   0  0  0  0  0  0  0  0  0  0  0  0
   17.0602  -10.6054   16.1457 C   0  0  0  0  0  0  0  0  0  0  0  0
   16.7864   -9.8502   14.8701 C   0  0  0  0  0  0  0  0  0  0  0  0
   15.3001   -9.7867   14.5103 C   0  0  0  0  0  0  0  0  0  0  0  0
   15.1092   -8.9152   13.2709 C   0  0  0  0  0  0  0  0  0  0  0  0
   16.0603   -9.3070   12.2316 N   0  0  0  0  0  0  0  0  0  0  0  0
   17.4869   -9.2711   12.5553 C   0  0  0  0  0  0  0  0  0  0  0  0
   17.7721  -10.1702   13.7548 C   0  0  0  0  0  0  0  0  0  0  0  0
   15.5900   -9.8620   10.9922 C   0  0  0  0  0  0  0  0  0  0  0  0
   14.4151  -10.3133   10.9178 O   0  0  0  0  0  0  0  0  0  0  0  0
   16.4636   -9.9625    9.8040 C   0  0  0  0  0  0  0  0  0  0  0  0
   16.3109  -11.0335    8.9795 N   0  0  0  0  0  0  0  0  0  0  0  0
   17.0599  -11.2007    7.8887 N   0  0  0  0  0  0  0  0  0  0  0  0
   18.0139  -10.3036    7.5330 C   0  0  0  0  0  0  0  0  0  0  0  0
   18.7018  -10.5055    6.4963 O   0  0  0  0  0  0  0  0  0  0  0  0
   18.2119   -9.1623    8.3191 C   0  0  0  0  0  0  0  0  0  0  0  0
   19.1666   -8.1958    7.9687 C   0  0  0  0  0  0  0  0  0  0  0  0
   19.3264   -7.0483    8.7488 C   0  0  0  0  0  0  0  0  0  0  0  0
   18.5309   -6.8552    9.8800 C   0  0  0  0  0  0  0  0  0  0  0  0
   17.5796   -7.8131   10.2385 C   0  0  0  0  0  0  0  0  0  0  0  0
   17.4184   -8.9800    9.4738 C   0  0  0  0  0  0  0  0  0  0  0  0
   16.9169  -11.9962    7.3266 H   0  0  0  0  0  0  0  0  0  0  0  0
   16.1503   -8.5085   18.2363 N   0  0  0  0  0  0  0  0  0  0  0  0
   16.3069   -8.3234   16.8218 C   0  0  0  0  0  0  0  0  0  0  0  0
   15.6138   -7.4758   16.1979 O   0  0  0  0  0  0  0  0  0  0  0  0
   16.7697   -9.1387   18.6705 H   0  0  0  0  0  0  0  0  0  0  0  0
   13.3364   -6.6215   20.8004 C   0  0  0  0  0  0  0  0  0  0  0  0
   14.6664   -6.8193   21.2053 C   0  0  0  0  0  0  0  0  0  0  0  0
   15.5813   -7.4399   20.3513 C   0  0  0  0  0  0  0  0  0  0  0  0
   15.1844   -7.8702   19.0823 C   0  0  0  0  0  0  0  0  0  0  0  0
   13.8563   -7.6756   18.6771 C   0  0  0  0  0  0  0  0  0  0  0  0
   12.9365   -7.0553   19.5272 C   0  0  0  0  0  0  0  0  0  0  0  0
   11.2856   -6.8320   18.9770 Cl  0  0  0  0  0  0  0  0  0  0  0  0
   12.7567   -5.4589   22.9083 C   0  0  0  0  0  0  0  0  0  0  0  0
   12.4065   -6.0017   21.6426 O   0  0  0  0  0  0  0  0  0  0  0  0
 34 35  1  0  0  0
 35 27  1  0  0  0
 27 28  2  0  0  0
 28 29  1  0  0  0
 29 30  2  0  0  0
 30 23  1  0  0  0
 23 24  1  0  0  0
 24 25  2  0  0  0
 24  1  1  0  0  0
  1  2  1  0  0  0
  2  3  1  0  0  0
  3  4  1  0  0  0
  4  5  1  0  0  0
  5  6  1  0  0  0
  6  7  1  0  0  0
  7  8  1  0  0  0
  6  9  1  0  0  0
  9 10  2  0  0  0
  9 11  1  0  0  0
 11 12  2  0  0  0
 12 13  1  0  0  0
 13 14  1  0  0  0
 14 15  2  0  0  0
 14 16  1  0  0  0
 16 17  2  0  0  0
 17 18  1  0  0  0
 18 19  2  0  0  0
 19 20  1  0  0  0
 20 21  2  0  0  0
 30 31  1  0  0  0
 31 32  2  0  0  0
 32 33  1  0  0  0
 32 27  1  0  0  0
  3  1  1  0  0  0
  8  3  1  0  0  0
 21 11  1  0  0  0
 21 16  1  0  0  0
 23 26  1  0  0  0
 13 22  1  0  0  0
M  END
>  <minimizedAffinity>
-1.34460

>  <minimizedRMSD>
0.94722

$$$$
CSSS14831847907 Z8213669719


 36 40  0  0  0  0  0  0  0  0999 V2000
   12.6774   -7.6298   17.0435 C   0  0  0  0  0  0  0  0  0  0  0  0
   14.1295   -7.7221   17.3862 C   0  0  0  0  0  0  0  0  0  0  0  0
   15.0032   -8.0242   16.3920 N   0  0  0  0  0  0  0  0  0  0  0  0
   16.3359   -8.1255   16.6222 C   0  0  0  0  0  0  0  0  0  0  0  0
   17.2177   -8.4382   15.5739 C   0  0  0  0  0  0  0  0  0  0  0  0
   18.5914   -8.5371   15.8382 C   0  0  0  0  0  0  0  0  0  0  0  0
   19.0843   -8.3263   17.1275 C   0  0  0  0  0  0  0  0  0  0  0  0
   18.2075   -8.0146   18.1679 C   0  0  0  0  0  0  0  0  0  0  0  0
   16.8310   -7.9128   17.9222 C   0  0  0  0  0  0  0  0  0  0  0  0
   15.9222   -7.6013   18.9429 C   0  0  0  0  0  0  0  0  0  0  0  0
   16.3462   -7.4054   20.1169 O   0  0  0  0  0  0  0  0  0  0  0  0
   14.5790   -7.5089   18.6645 N   0  0  0  0  0  0  0  0  0  0  0  0
   13.6024   -7.1819   19.7172 C   0  0  0  0  0  0  0  0  0  0  0  0
   14.0935   -7.6458   21.0958 C   0  0  0  0  0  0  0  0  0  0  0  0
   13.1358   -7.2048   22.1961 C   0  0  0  0  0  0  0  0  0  0  0  0
   13.0024   -5.7161   22.1730 C   0  0  0  0  0  0  0  0  0  0  0  0
   12.9174   -5.0735   23.2511 O   0  0  0  0  0  0  0  0  0  0  0  0
   12.9698   -5.0247   20.9230 N   0  0  0  0  0  0  0  0  0  0  0  0
   13.2116   -5.7225   19.6980 C   0  0  0  0  0  0  0  0  0  0  0  0
   13.0533   -5.1245   18.6013 O   0  0  0  0  0  0  0  0  0  0  0  0
   12.7791   -4.0590   20.9047 H   0  0  0  0  0  0  0  0  0  0  0  0
   16.7064   -8.6505   14.2524 N   0  0  0  0  0  0  0  0  0  0  0  0
   16.6274   -7.8715   13.6556 H   0  0  0  0  0  0  0  0  0  0  0  0
   16.2187  -10.1976   13.6425 S   0  0  0  0  0  0  0  0  0  0  0  0
   14.9834  -10.6491   14.3683 O   0  0  0  0  0  0  0  0  0  0  0  0
   17.3106  -11.2026   13.8810 O   0  0  0  0  0  0  0  0  0  0  0  0
   15.8583  -10.0756   11.9288 C   0  0  0  0  0  0  0  0  0  0  0  0
   14.6378  -10.3137   11.3910 N   0  0  0  0  0  0  0  0  0  0  0  0
   14.6955  -10.1087   10.0767 N   0  0  0  0  0  0  0  0  0  0  0  0
   15.9562   -9.7391    9.7966 C   0  0  0  0  0  0  0  0  0  0  0  0
   16.4538   -9.4237    8.5755 N   0  0  0  0  0  0  0  0  0  0  0  0
   17.7686   -9.0585    8.4773 C   0  0  0  0  0  0  0  0  0  0  0  0
   18.5913   -9.0097    9.6275 C   0  0  0  0  0  0  0  0  0  0  0  0
   18.0586   -9.3393   10.8873 C   0  0  0  0  0  0  0  0  0  0  0  0
   16.7175   -9.7041   10.9235 C   0  0  0  0  0  0  0  0  0  0  0  0
   13.9565  -10.2087    9.4340 H   0  0  0  0  0  0  0  0  0  0  0  0
  1  2  1  0  0  0
  2  3  2  0  0  0
  3  4  1  0  0  0
  4  5  2  0  0  0
  5 22  1  0  0  0
 22 24  1  0  0  0
 24 25  2  0  0  0
 24 26  2  0  0  0
 24 27  1  0  0  0
 27 28  2  0  0  0
 28 29  1  0  0  0
 29 30  1  0  0  0
 30 31  2  0  0  0
 31 32  1  0  0  0
 32 33  2  0  0  0
 33 34  1  0  0  0
 34 35  2  0  0  0
  5  6  1  0  0  0
  6  7  2  0  0  0
  7  8  1  0  0  0
  8  9  2  0  0  0
  9 10  1  0  0  0
 10 11  2  0  0  0
 10 12  1  0  0  0
 12 13  1  0  0  0
 13 14  1  0  0  0
 14 15  1  0  0  0
 15 16  1  0  0  0
 16 17  2  0  0  0
 16 18  1  0  0  0
 18 19  1  0  0  0
 19 20  2  0  0  0
 12  2  1  0  0  0
 19 13  1  0  0  0
  9  4  1  0  0  0
 35 27  1  0  0  0
 35 30  1  0  0  0
 22 23  1  0  0  0
 29 36  1  0  0  0
 18 21  1  0  0  0
M  END
>  <minimizedAffinity>
-1.34005

>  <minimizedRMSD>
4.16872

$$$$
253397438 CSSS00160615930 MolPort-039-056-390 PubChem-110206519 ZINC000253397438


 38 42  0  0  0  0  0  0  0  0999 V2000
   16.0833   -6.9045   20.2952 C   0  0  0  0  0  0  0  0  0  0  0  0
   14.7476   -6.4541   20.4658 C   0  0  0  0  0  0  0  0  0  0  0  0
   14.3963   -5.6946   21.5790 O   0  0  0  0  0  0  0  0  0  0  0  0
   13.7548   -6.7641   19.5078 C   0  0  0  0  0  0  0  0  0  0  0  0
   12.3496   -6.3023   19.7150 C   0  0  0  0  0  0  0  0  0  0  0  0
   14.0783   -7.5175   18.3661 C   0  0  0  0  0  0  0  0  0  0  0  0
   13.0962   -7.8717   17.4464 O   0  0  0  0  0  0  0  0  0  0  0  0
   15.4030   -7.9191   18.1810 C   0  0  0  0  0  0  0  0  0  0  0  0
   16.3687   -7.6468   19.1359 C   0  0  0  0  0  0  0  0  0  0  0  0
   17.5907   -8.2010   18.7861 O   0  0  0  0  0  0  0  0  0  0  0  0
   17.4209   -8.7869   17.5403 C   0  0  0  0  0  0  0  0  0  0  0  0
   18.4306   -9.1248   16.7391 C   0  0  0  0  0  0  0  0  0  0  0  0
   18.1566   -9.3941   15.3152 C   0  0  0  0  0  0  0  0  0  0  0  0
   19.0384   -9.9789   14.6319 O   0  0  0  0  0  0  0  0  0  0  0  0
   16.8677   -8.9125   14.7108 C   0  0  0  0  0  0  0  0  0  0  0  0
   16.6263   -8.9687   13.3759 C   0  0  0  0  0  0  0  0  0  0  0  0
   15.3055   -8.5508   12.8021 C   0  0  0  0  0  0  0  0  0  0  0  0
   15.8708   -8.3649   15.6874 C   0  0  0  0  0  0  0  0  0  0  0  0
   14.9680   -7.5583   15.3352 O   0  0  0  0  0  0  0  0  0  0  0  0
   15.9786   -8.8169   17.1218 C   0  0  0  0  0  0  0  0  0  0  0  0
   15.4202  -10.2252   17.2731 C   0  0  0  0  0  0  0  0  0  0  0  0
   15.0425   -5.4806   22.2230 H   0  0  0  0  0  0  0  0  0  0  0  0
   12.2099   -7.5978   17.5786 H   0  0  0  0  0  0  0  0  0  0  0  0
   18.4969   -6.1427   20.9030 C   0  0  0  0  0  0  0  0  0  0  0  0
   17.1384   -6.6095   21.3034 C   0  0  0  0  0  0  0  0  0  0  0  0
   16.9026   -6.7444   22.5331 O   0  0  0  0  0  0  0  0  0  0  0  0
   17.6302   -9.4560   12.4775 N   0  0  0  0  0  0  0  0  0  0  0  0
   18.5255   -9.0479   12.5109 H   0  0  0  0  0  0  0  0  0  0  0  0
   17.3930  -10.5233   11.5185 C   0  0  0  0  0  0  0  0  0  0  0  0
   17.0950   -9.9335   10.1831 C   0  0  0  0  0  0  0  0  0  0  0  0
   16.0109  -10.2479    9.4391 N   0  0  0  0  0  0  0  0  0  0  0  0
   16.1065   -9.5773    8.2931 N   0  0  0  0  0  0  0  0  0  0  0  0
   17.2531   -8.8766    8.3638 C   0  0  0  0  0  0  0  0  0  0  0  0
   17.7798   -8.0344    7.3889 C   0  0  0  0  0  0  0  0  0  0  0  0
   19.0072   -7.4125    7.6780 C   0  0  0  0  0  0  0  0  0  0  0  0
   19.6610   -7.6461    8.9056 C   0  0  0  0  0  0  0  0  0  0  0  0
   19.0770   -8.5077    9.8467 C   0  0  0  0  0  0  0  0  0  0  0  0
   17.8914   -9.0803    9.5224 N   0  0  0  0  0  0  0  0  0  0  0  0
 24 25  1  0  0  0
 25 26  2  0  0  0
 25  1  1  0  0  0
  1  2  2  0  0  0
  2  3  1  0  0  0
  2  4  1  0  0  0
  4  5  1  0  0  0
  4  6  2  0  0  0
  6  7  1  0  0  0
  6  8  1  0  0  0
  8  9  2  0  0  0
  9 10  1  0  0  0
 10 11  1  0  0  0
 11 12  2  0  0  0
 12 13  1  0  0  0
 13 14  2  0  0  0
 13 15  1  0  0  0
 15 16  2  0  0  0
 16 17  1  0  0  0
 16 27  1  0  0  0
 27 29  1  0  0  0
 29 30  1  0  0  0
 30 31  2  0  0  0
 31 32  1  0  0  0
 32 33  2  0  0  0
 33 34  1  0  0  0
 34 35  2  0  0  0
 35 36  1  0  0  0
 36 37  2  0  0  0
 37 38  1  0  0  0
 15 18  1  0  0  0
 18 19  2  0  0  0
 18 20  1  0  0  0
 20 21  1  0  0  0
  9  1  1  0  0  0
 20 11  1  0  0  0
 20  8  1  0  0  0
 38 30  1  0  0  0
 38 33  1  0  0  0
  3 22  1  0  0  0
  7 23  1  0  0  0
 27 28  1  0  0  0
M  END
>  <minimizedAffinity>
-1.33924

>  <minimizedRMSD>
2.64743

$$$$
CSSS00159455512 MCULE-6606603871 MolPort-005-020-645 PubChem-45180406


 28 31  0  0  0  0  0  0  0  0999 V2000
   19.0151  -10.2355   15.2591 C   0  0  0  0  0  0  0  0  0  0  0  0
   20.2119   -9.4670   15.7914 C   0  0  0  0  0  0  0  0  0  0  0  0
   20.5620   -8.4279   14.7356 C   0  0  0  0  0  0  0  0  0  0  0  0
   19.8577   -8.8553   13.4623 C   0  0  0  0  0  0  0  0  0  0  0  0
   18.9021   -9.8728   13.8569 N   0  0  0  0  0  0  0  0  0  0  0  0
   18.0437  -10.5754   12.9399 C   0  0  0  0  0  0  0  0  0  0  0  0
   17.5012  -11.6529   13.3099 O   0  0  0  0  0  0  0  0  0  0  0  0
   17.7649  -10.0612   11.5812 C   0  0  0  0  0  0  0  0  0  0  0  0
   16.5670  -10.4030   10.9379 C   0  0  0  0  0  0  0  0  0  0  0  0
   16.3091   -9.9072    9.6615 C   0  0  0  0  0  0  0  0  0  0  0  0
   15.2340  -10.2135    9.0795 O   0  0  0  0  0  0  0  0  0  0  0  0
   17.2523   -9.0746    9.0477 C   0  0  0  0  0  0  0  0  0  0  0  0
   17.0503   -8.5446    7.7655 C   0  0  0  0  0  0  0  0  0  0  0  0
   18.0186   -7.7163    7.1904 C   0  0  0  0  0  0  0  0  0  0  0  0
   19.1901   -7.4139    7.8914 C   0  0  0  0  0  0  0  0  0  0  0  0
   19.3990   -7.9384    9.1705 C   0  0  0  0  0  0  0  0  0  0  0  0
   18.4366   -8.7678    9.7536 C   0  0  0  0  0  0  0  0  0  0  0  0
   18.6403   -9.2638   10.9701 O   0  0  0  0  0  0  0  0  0  0  0  0
   15.8834   -8.7339   17.1683 C   0  0  0  0  0  0  0  0  0  0  0  0
   15.8157  -10.1218   17.2249 C   0  0  0  0  0  0  0  0  0  0  0  0
   16.8849  -10.7498   16.5707 C   0  0  0  0  0  0  0  0  0  0  0  0
   17.7765   -9.8485   16.0053 C   0  0  0  0  0  0  0  0  0  0  0  0
   17.2586   -8.2769   16.3150 S   0  0  0  0  0  0  0  0  0  0  0  0
   14.9641   -7.5045   19.1511 N   0  0  0  0  0  0  0  0  0  0  0  0
   14.9087   -7.8115   17.7618 C   0  0  0  0  0  0  0  0  0  0  0  0
   14.0169   -7.2859   17.0453 O   0  0  0  0  0  0  0  0  0  0  0  0
   14.3079   -6.8850   19.5448 H   0  0  0  0  0  0  0  0  0  0  0  0
   15.6584   -7.9116   19.7179 H   0  0  0  0  0  0  0  0  0  0  0  0
 24 25  1  0  0  0
 25 26  2  0  0  0
 25 19  1  0  0  0
 19 20  2  0  0  0
 20 21  1  0  0  0
 21 22  2  0  0  0
 22 23  1  0  0  0
 23 19  1  0  0  0
  1 22  1  0  0  0
  1  2  1  0  0  0
  2  3  1  0  0  0
  3  4  1  0  0  0
  4  5  1  0  0  0
  5  6  1  0  0  0
  5  1  1  0  0  0
  6  7  2  0  0  0
  6  8  1  0  0  0
  8  9  2  0  0  0
  9 10  1  0  0  0
 10 11  2  0  0  0
 10 12  1  0  0  0
 12 13  2  0  0  0
 13 14  1  0  0  0
 14 15  2  0  0  0
 15 16  1  0  0  0
 16 17  2  0  0  0
 17 18  1  0  0  0
 17 12  1  0  0  0
 18  8  1  0  0  0
 24 27  1  0  0  0
 24 28  1  0  0  0
M  END
>  <minimizedAffinity>
-1.33251

>  <minimizedRMSD>
1.46257

$$$$
CSSS03496576849 MolPort-047-838-575 PubChem-156906686 Z4898404661


 38 42  0  0  0  0  0  0  0  0999 V2000
   14.2429  -12.9448   16.8668 Cl  0  0  0  0  0  0  0  0  0  0  0  0
   15.7636  -12.2230   16.3900 C   0  0  0  0  0  0  0  0  0  0  0  0
   16.9633  -12.8911   16.6431 C   0  0  0  0  0  0  0  0  0  0  0  0
   18.1760  -12.3237   16.2456 C   0  0  0  0  0  0  0  0  0  0  0  0
   18.1941  -11.0852   15.5974 C   0  0  0  0  0  0  0  0  0  0  0  0
   19.4120  -10.5526   15.1700 O   0  0  0  0  0  0  0  0  0  0  0  0
   19.4591   -9.4527   14.2678 C   0  0  0  0  0  0  0  0  0  0  0  0
   18.4250   -8.4104   14.6745 C   0  0  0  0  0  0  0  0  0  0  0  0
   17.0029   -9.0043   14.7114 C   0  0  0  0  0  0  0  0  0  0  0  0
   16.9903  -10.3819   15.3769 C   0  0  0  0  0  0  0  0  0  0  0  0
   15.7760  -10.9766   15.7605 C   0  0  0  0  0  0  0  0  0  0  0  0
   16.4750   -9.0731   13.2952 C   0  0  0  0  0  0  0  0  0  0  0  0
   15.2956   -8.7110   13.0321 O   0  0  0  0  0  0  0  0  0  0  0  0
   17.3264   -9.5815   12.2566 N   0  0  0  0  0  0  0  0  0  0  0  0
   18.2172   -9.8959   12.5339 H   0  0  0  0  0  0  0  0  0  0  0  0
   17.0191   -9.6810   10.8560 C   0  0  0  0  0  0  0  0  0  0  0  0
   15.9110  -10.4097   10.3977 C   0  0  0  0  0  0  0  0  0  0  0  0
   15.6314  -10.4873    9.0691 N   0  0  0  0  0  0  0  0  0  0  0  0
   16.4045   -9.8679    8.1387 C   0  0  0  0  0  0  0  0  0  0  0  0
   17.5172   -9.1280    8.5366 C   0  0  0  0  0  0  0  0  0  0  0  0
   18.3153   -8.4882    7.5847 C   0  0  0  0  0  0  0  0  0  0  0  0
   19.4270   -7.7453    7.9914 C   0  0  0  0  0  0  0  0  0  0  0  0
   19.7424   -7.6407    9.3496 C   0  0  0  0  0  0  0  0  0  0  0  0
   18.9480   -8.2797   10.3063 C   0  0  0  0  0  0  0  0  0  0  0  0
   17.8299   -9.0289    9.9113 C   0  0  0  0  0  0  0  0  0  0  0  0
   16.1196   -8.0356   15.5084 C   0  0  0  0  0  0  0  0  0  0  0  0
   15.9660   -8.4710   16.8300 O   0  0  0  0  0  0  0  0  0  0  0  0
   14.6795   -8.0741   17.2012 C   0  0  0  0  0  0  0  0  0  0  0  0
   14.7277   -7.3667   18.5116 C   0  0  0  0  0  0  0  0  0  0  0  0
   13.8572   -6.4954   18.7743 O   0  0  0  0  0  0  0  0  0  0  0  0
   15.7498   -7.6988   19.4567 N   0  0  0  0  0  0  0  0  0  0  0  0
   16.4567   -8.3176   19.1625 H   0  0  0  0  0  0  0  0  0  0  0  0
   15.8238   -7.2012   20.7959 C   0  0  0  0  0  0  0  0  0  0  0  0
   14.7728   -7.2334   21.6325 N   0  0  0  0  0  0  0  0  0  0  0  0
   15.2326   -6.6619   22.7607 C   0  0  0  0  0  0  0  0  0  0  0  0
   16.5521   -6.2965   22.5729 C   0  0  0  0  0  0  0  0  0  0  0  0
   16.9251   -6.6393   21.3268 N   0  0  0  0  0  0  0  0  0  0  0  0
   17.8030   -6.5089   20.9007 H   0  0  0  0  0  0  0  0  0  0  0  0
  1  2  1  0  0  0
  2  3  2  0  0  0
  3  4  1  0  0  0
  4  5  2  0  0  0
  5  6  1  0  0  0
  6  7  1  0  0  0
  7  8  1  0  0  0
  8  9  1  0  0  0
  9 26  1  0  0  0
 26 27  1  0  0  0
 27 28  1  0  0  0
 28 29  1  0  0  0
 29 30  2  0  0  0
 29 31  1  0  0  0
 31 33  1  0  0  0
 33 34  2  0  0  0
 34 35  1  0  0  0
 35 36  2  0  0  0
 36 37  1  0  0  0
  9 12  1  0  0  0
 12 13  2  0  0  0
 12 14  1  0  0  0
 14 16  1  0  0  0
 16 17  2  0  0  0
 17 18  1  0  0  0
 18 19  2  0  0  0
 19 20  1  0  0  0
 20 21  2  0  0  0
 21 22  1  0  0  0
 22 23  2  0  0  0
 23 24  1  0  0  0
 24 25  2  0  0  0
  9 10  1  0  0  0
 10 11  2  0  0  0
 11  2  1  0  0  0
 10  5  1  0  0  0
 37 33  1  0  0  0
 25 16  1  0  0  0
 25 20  1  0  0  0
 31 32  1  0  0  0
 37 38  1  0  0  0
 14 15  1  0  0  0
M  END
>  <minimizedAffinity>
-1.32844

>  <minimizedRMSD>
2.21592

$$$$
CSC027888122 3505172 CSSS00027888122 MCULE-3536831976 MolPort-004-568-550 PubChem-2622326 Z16391509 ZINC000003505172


 35 38  0  0  0  0  0  0  0  0999 V2000
   14.8114   -9.8205   11.7580 O   0  0  0  0  0  0  0  0  0  0  0  0
   15.7596  -10.3056   10.8512 C   0  0  0  0  0  0  0  0  0  0  0  0
   15.4474  -11.2224   10.0424 O   0  0  0  0  0  0  0  0  0  0  0  0
   17.1353   -9.7398   10.8415 C   0  0  0  0  0  0  0  0  0  0  0  0
   18.0500  -10.0381   11.8804 C   0  0  0  0  0  0  0  0  0  0  0  0
   19.3497   -9.4837   11.8376 C   0  0  0  0  0  0  0  0  0  0  0  0
   20.2678   -9.7584   12.8557 C   0  0  0  0  0  0  0  0  0  0  0  0
   19.9048  -10.5767   13.9272 C   0  0  0  0  0  0  0  0  0  0  0  0
   18.6209  -11.1216   13.9864 C   0  0  0  0  0  0  0  0  0  0  0  0
   17.6995  -10.8523   12.9714 C   0  0  0  0  0  0  0  0  0  0  0  0
   19.7135   -8.6762   10.8124 N   0  0  0  0  0  0  0  0  0  0  0  0
   18.8633   -8.3635    9.8027 C   0  0  0  0  0  0  0  0  0  0  0  0
   17.5534   -8.8863    9.7908 C   0  0  0  0  0  0  0  0  0  0  0  0
   16.6427   -8.5807    8.6329 C   0  0  0  0  0  0  0  0  0  0  0  0
   17.1539   -9.2289    7.3534 C   0  0  0  0  0  0  0  0  0  0  0  0
   18.1694   -8.3303    6.6568 C   0  0  0  0  0  0  0  0  0  0  0  0
   19.4981   -8.2752    7.4027 C   0  0  0  0  0  0  0  0  0  0  0  0
   19.3662   -7.4864    8.6986 C   0  0  0  0  0  0  0  0  0  0  0  0
   14.7722  -10.2293   13.1206 C   0  0  0  0  0  0  0  0  0  0  0  0
   15.5729  -10.8560   15.8933 C   0  0  0  0  0  0  0  0  0  0  0  0
   15.8024   -9.5273   15.3484 N   0  0  0  0  0  0  0  0  0  0  0  0
   15.4495   -9.2166   13.9899 C   0  0  0  0  0  0  0  0  0  0  0  0
   15.7046   -8.0781   13.5127 O   0  0  0  0  0  0  0  0  0  0  0  0
   16.4896   -8.5560   16.1902 C   0  0  0  0  0  0  0  0  0  0  0  0
   15.5471   -7.9681   17.1847 C   0  0  0  0  0  0  0  0  0  0  0  0
   15.8603   -8.0460   18.5815 N   0  0  0  0  0  0  0  0  0  0  0  0
   14.4851   -7.4242   16.7817 O   0  0  0  0  0  0  0  0  0  0  0  0
   16.7131   -8.4768   18.8192 H   0  0  0  0  0  0  0  0  0  0  0  0
   15.0602   -7.5614   19.6683 C   0  0  0  0  0  0  0  0  0  0  0  0
   15.6983   -6.9522   20.7546 C   0  0  0  0  0  0  0  0  0  0  0  0
   14.9522   -6.4690   21.8338 C   0  0  0  0  0  0  0  0  0  0  0  0
   13.5602   -6.5931   21.8325 C   0  0  0  0  0  0  0  0  0  0  0  0
   12.7670   -6.0796   22.9794 C   0  0  0  0  0  0  0  0  0  0  0  0
   12.9146   -7.2006   20.7523 C   0  0  0  0  0  0  0  0  0  0  0  0
   13.6618   -7.6832   19.6740 C   0  0  0  0  0  0  0  0  0  0  0  0
 20 21  1  0  0  0
 21 22  1  0  0  0
 22 19  1  0  0  0
 19  1  1  0  0  0
  1  2  1  0  0  0
  2  4  1  0  0  0
  4  5  1  0  0  0
  5  6  1  0  0  0
  6  7  2  0  0  0
  7  8  1  0  0  0
  8  9  2  0  0  0
  9 10  1  0  0  0
  6 11  1  0  0  0
 11 12  2  0  0  0
 12 13  1  0  0  0
 13 14  1  0  0  0
 14 15  1  0  0  0
 15 16  1  0  0  0
 16 17  1  0  0  0
 17 18  1  0  0  0
  2  3  2  0  0  0
 22 23  2  0  0  0
 21 24  1  0  0  0
 24 25  1  0  0  0
 25 26  1  0  0  0
 26 29  1  0  0  0
 29 30  2  0  0  0
 30 31  1  0  0  0
 31 32  2  0  0  0
 32 33  1  0  0  0
 32 34  1  0  0  0
 34 35  2  0  0  0
 25 27  2  0  0  0
 13  4  2  0  0  0
 35 29  1  0  0  0
 10  5  2  0  0  0
 18 12  1  0  0  0
 26 28  1  0  0  0
M  END
>  <minimizedAffinity>
-1.32151

>  <minimizedRMSD>
3.45884

$$$$
CSC027562138 157252856 CSSS00027562138 MCULE-6222611500 MolPort-044-500-611 PubChem-126781519 Z1252486316 ZINC000157252856


 30 33  0  0  0  0  0  0  0  0999 V2000
   16.7005  -10.5282   11.7594 N   0  0  0  0  0  0  0  0  0  0  0  0
   17.2914  -11.3153   11.7372 H   0  0  0  0  0  0  0  0  0  0  0  0
   16.7494   -9.6811   12.9159 C   0  0  0  0  0  0  0  0  0  0  0  0
   17.8020   -9.8141   13.8418 C   0  0  0  0  0  0  0  0  0  0  0  0
   18.8659  -10.8398   13.6063 C   0  0  0  0  0  0  0  0  0  0  0  0
   17.8443   -8.9793   14.9797 C   0  0  0  0  0  0  0  0  0  0  0  0
   16.8366   -8.0293   15.1781 C   0  0  0  0  0  0  0  0  0  0  0  0
   15.7937   -7.9001   14.2618 C   0  0  0  0  0  0  0  0  0  0  0  0
   15.7501   -8.7227   13.1371 C   0  0  0  0  0  0  0  0  0  0  0  0
   19.1332   -9.1073   16.1794 S   0  0  0  0  0  0  0  0  0  0  0  0
   19.2519   -7.8173   16.9437 O   0  0  0  0  0  0  0  0  0  0  0  0
   20.4360   -9.3760   15.4808 O   0  0  0  0  0  0  0  0  0  0  0  0
   18.7942  -10.3978   17.2843 N   0  0  0  0  0  0  0  0  0  0  0  0
   18.7478  -10.0358   18.2367 H   0  0  0  0  0  0  0  0  0  0  0  0
   17.5140  -10.9768   16.9127 C   0  0  0  0  0  0  0  0  0  0  0  0
   17.2295  -12.1663   17.8058 C   0  0  0  0  0  0  0  0  0  0  0  0
   17.7338  -12.3844   16.3965 C   0  0  0  0  0  0  0  0  0  0  0  0
   15.8286  -10.2938   10.6148 C   0  0  0  0  0  0  0  0  0  0  0  0
   20.1185   -7.5630   10.2782 C   0  0  0  0  0  0  0  0  0  0  0  0
   19.6498   -7.8327    8.8886 C   0  0  0  0  0  0  0  0  0  0  0  0
   18.4824   -8.5731    8.6361 C   0  0  0  0  0  0  0  0  0  0  0  0
   18.0765   -8.8028    7.3387 N   0  0  0  0  0  0  0  0  0  0  0  0
   16.9374   -9.5243    7.0980 C   0  0  0  0  0  0  0  0  0  0  0  0
   16.1880  -10.0253    8.1603 C   0  0  0  0  0  0  0  0  0  0  0  0
   16.6179   -9.7792    9.4596 C   0  0  0  0  0  0  0  0  0  0  0  0
   17.7500   -9.0630    9.6729 N   0  0  0  0  0  0  0  0  0  0  0  0
   16.5473   -9.7468    5.9188 O   0  0  0  0  0  0  0  0  0  0  0  0
   18.8053   -8.3138    6.2915 C   0  0  0  0  0  0  0  0  0  0  0  0
   19.9683   -7.5759    6.5106 C   0  0  0  0  0  0  0  0  0  0  0  0
   20.3885   -7.3366    7.8161 C   0  0  0  0  0  0  0  0  0  0  0  0
 19 20  1  0  0  0
 20 21  1  0  0  0
 21 22  1  0  0  0
 22 23  1  0  0  0
 23 24  1  0  0  0
 24 25  2  0  0  0
 25 26  1  0  0  0
 25 18  1  0  0  0
 18  1  1  0  0  0
  1  3  1  0  0  0
  3  4  2  0  0  0
  4  5  1  0  0  0
  4  6  1  0  0  0
  6 10  1  0  0  0
 10 13  1  0  0  0
 13 15  1  0  0  0
 15 16  1  0  0  0
 16 17  1  0  0  0
 10 11  2  0  0  0
 10 12  2  0  0  0
  6  7  2  0  0  0
  7  8  1  0  0  0
  8  9  2  0  0  0
 23 27  2  0  0  0
 22 28  1  0  0  0
 28 29  2  0  0  0
 29 30  1  0  0  0
 30 20  2  0  0  0
 26 21  2  0  0  0
  9  3  1  0  0  0
 17 15  1  0  0  0
  1  2  1  0  0  0
 13 14  1  0  0  0
M  END
>  <minimizedAffinity>
-1.23909

>  <minimizedRMSD>
2.69588

$$$$
CSSS06835389788 Z7933828205


 36 39  0  0  0  0  0  0  0  0999 V2000
   16.4450   -9.9464   16.4047 N   0  0  0  0  0  0  0  0  0  0  0  0
   17.8488  -10.0724   16.1311 C   0  0  0  0  0  0  0  0  0  0  0  0
   18.6824   -9.2740   16.6360 O   0  0  0  0  0  0  0  0  0  0  0  0
   15.8519  -10.6075   15.9799 H   0  0  0  0  0  0  0  0  0  0  0  0
   14.5454   -6.9979   18.7891 C   0  0  0  0  0  0  0  0  0  0  0  0
   15.5463   -7.7974   19.3501 C   0  0  0  0  0  0  0  0  0  0  0  0
   16.1799   -8.7722   18.5749 C   0  0  0  0  0  0  0  0  0  0  0  0
   15.8168   -8.9580   17.2321 C   0  0  0  0  0  0  0  0  0  0  0  0
   14.8124   -8.1572   16.6782 C   0  0  0  0  0  0  0  0  0  0  0  0
   14.1783   -7.1809   17.4524 C   0  0  0  0  0  0  0  0  0  0  0  0
   13.7320   -5.7810   19.7592 S   0  0  0  0  0  0  0  0  0  0  0  0
   12.8121   -4.9847   18.8783 O   0  0  0  0  0  0  0  0  0  0  0  0
   14.7449   -4.8521   20.3705 O   0  0  0  0  0  0  0  0  0  0  0  0
   12.8121   -6.5393   21.0172 N   0  0  0  0  0  0  0  0  0  0  0  0
   11.9286   -6.0460   21.1456 H   0  0  0  0  0  0  0  0  0  0  0  0
   13.8855   -7.8850   22.7270 C   0  0  0  0  0  0  0  0  0  0  0  0
   13.5934   -6.4798   22.2423 C   0  0  0  0  0  0  0  0  0  0  0  0
   12.8121   -5.7348   23.3038 C   0  0  0  0  0  0  0  0  0  0  0  0
   18.3471  -11.1600   15.2149 C   0  0  0  0  0  0  0  0  0  0  0  0
   18.0480  -12.5461   15.7666 C   0  0  0  0  0  0  0  0  0  0  0  0
   17.9003  -11.0336   13.8182 N   0  0  0  0  0  0  0  0  0  0  0  0
   17.3812   -9.6861   13.5402 C   0  0  0  0  0  0  0  0  0  0  0  0
   16.8539   -9.6180   12.1103 C   0  0  0  0  0  0  0  0  0  0  0  0
   17.9135  -10.0325   11.1951 N   0  0  0  0  0  0  0  0  0  0  0  0
   18.5689  -11.3074   11.4732 C   0  0  0  0  0  0  0  0  0  0  0  0
   19.0305  -11.3224   12.9285 C   0  0  0  0  0  0  0  0  0  0  0  0
   18.3729   -9.2033   10.1100 C   0  0  0  0  0  0  0  0  0  0  0  0
   19.4008   -8.3203   10.3088 N   0  0  0  0  0  0  0  0  0  0  0  0
   19.8773   -7.5005    9.3172 C   0  0  0  0  0  0  0  0  0  0  0  0
   19.3404   -7.5272    8.0617 N   0  0  0  0  0  0  0  0  0  0  0  0
   18.3237   -8.3844    7.8229 C   0  0  0  0  0  0  0  0  0  0  0  0
   17.8124   -9.2421    8.8318 C   0  0  0  0  0  0  0  0  0  0  0  0
   16.8005   -9.9681    8.2456 C   0  0  0  0  0  0  0  0  0  0  0  0
   16.7556   -9.5131    6.9202 C   0  0  0  0  0  0  0  0  0  0  0  0
   17.6797   -8.5507    6.6622 N   0  0  0  0  0  0  0  0  0  0  0  0
   19.6842   -6.9388    7.3512 H   0  0  0  0  0  0  0  0  0  0  0  0
 16 17  1  0  0  0
 17 18  1  0  0  0
 17 14  1  0  0  0
 14 11  1  0  0  0
 11 12  2  0  0  0
 11 13  2  0  0  0
 11  5  1  0  0  0
  5  6  2  0  0  0
  6  7  1  0  0  0
  7  8  2  0  0  0
  8  1  1  0  0  0
  1  2  1  0  0  0
  2  3  2  0  0  0
  2 19  1  0  0  0
 19 20  1  0  0  0
 19 21  1  0  0  0
 21 22  1  0  0  0
 22 23  1  0  0  0
 23 24  1  0  0  0
 24 25  1  0  0  0
 25 26  1  0  0  0
 24 27  1  0  0  0
 27 28  1  0  0  0
 28 29  2  0  0  0
 29 30  1  0  0  0
 30 31  1  0  0  0
 31 32  1  0  0  0
 32 33  1  0  0  0
 33 34  2  0  0  0
 34 35  1  0  0  0
  8  9  1  0  0  0
  9 10  2  0  0  0
 10  5  1  0  0  0
 26 21  1  0  0  0
 32 27  2  0  0  0
 35 31  2  0  0  0
 14 15  1  0  0  0
  1  4  1  0  0  0
 30 36  1  0  0  0
M  END
>  <minimizedAffinity>
-1.23859

>  <minimizedRMSD>
3.50990

$$$$
CSSS00161095647 MCULE-2261187267 MolPort-035-872-723 PubChem-100018936


 31 34  0  0  0  0  0  0  0  0999 V2000
   16.7953   -9.8746   10.1863 N   0  0  0  0  0  0  0  0  0  0  0  0
   15.9430  -10.1227   11.3078 C   0  0  0  0  0  0  0  0  0  0  0  0
   14.7147  -10.3424   11.1266 O   0  0  0  0  0  0  0  0  0  0  0  0
   17.7375   -9.6432   10.3538 H   0  0  0  0  0  0  0  0  0  0  0  0
   16.4877  -10.1345   12.6784 C   0  0  0  0  0  0  0  0  0  0  0  0
   16.2669   -9.1856   13.6934 C   0  0  0  0  0  0  0  0  0  0  0  0
   15.3960   -7.9813   13.5394 C   0  0  0  0  0  0  0  0  0  0  0  0
   16.9668   -9.4930   14.8754 C   0  0  0  0  0  0  0  0  0  0  0  0
   17.7099  -10.6525   14.7762 C   0  0  0  0  0  0  0  0  0  0  0  0
   17.5400  -11.3322   13.2561 S   0  0  0  0  0  0  0  0  0  0  0  0
   18.4598  -11.1271   15.7987 N   0  0  0  0  0  0  0  0  0  0  0  0
   18.4825  -10.4348   16.9717 C   0  0  0  0  0  0  0  0  0  0  0  0
   17.7608   -9.2830   17.1088 N   0  0  0  0  0  0  0  0  0  0  0  0
   17.0016   -8.7924   16.0881 C   0  0  0  0  0  0  0  0  0  0  0  0
   16.3499   -7.7271   16.2495 O   0  0  0  0  0  0  0  0  0  0  0  0
   17.7895   -8.7962   17.9640 H   0  0  0  0  0  0  0  0  0  0  0  0
   16.3318   -9.9489    8.8081 C   0  0  0  0  0  0  0  0  0  0  0  0
   14.9752   -9.2829    8.6871 C   0  0  0  0  0  0  0  0  0  0  0  0
   18.1795   -8.3112    8.2332 N   0  0  0  0  0  0  0  0  0  0  0  0
   17.3141   -9.2992    7.8791 C   0  0  0  0  0  0  0  0  0  0  0  0
   17.3967   -9.6413    6.5662 N   0  0  0  0  0  0  0  0  0  0  0  0
   18.3556   -8.8205    6.0991 C   0  0  0  0  0  0  0  0  0  0  0  0
   18.8397   -8.7387    4.7960 C   0  0  0  0  0  0  0  0  0  0  0  0
   19.8425   -7.7859    4.5357 C   0  0  0  0  0  0  0  0  0  0  0  0
   20.3261   -6.9501    5.5674 C   0  0  0  0  0  0  0  0  0  0  0  0
   19.8144   -7.0570    6.8738 C   0  0  0  0  0  0  0  0  0  0  0  0
   18.8252   -8.0149    7.0956 C   0  0  0  0  0  0  0  0  0  0  0  0
   18.3316   -7.6776    9.5405 C   0  0  0  0  0  0  0  0  0  0  0  0
   19.7899   -7.3414    9.8162 C   0  0  0  0  0  0  0  0  0  0  0  0
   19.6010   -9.2426   10.9196 C   0  0  0  0  0  0  0  0  0  0  0  0
   20.4937   -8.4976   10.1512 O   0  0  0  0  0  0  0  0  0  0  0  0
 30 31  1  0  0  0
 31 29  1  0  0  0
 29 28  1  0  0  0
 28 19  1  0  0  0
 19 20  1  0  0  0
 20 21  2  0  0  0
 21 22  1  0  0  0
 22 23  2  0  0  0
 23 24  1  0  0  0
 24 25  2  0  0  0
 25 26  1  0  0  0
 26 27  2  0  0  0
 17 20  1  0  0  0
 17 18  1  0  0  0
 17  1  1  0  0  0
  1  2  1  0  0  0
  2  3  2  0  0  0
  2  5  1  0  0  0
  5  6  2  0  0  0
  6  7  1  0  0  0
  6  8  1  0  0  0
  8  9  2  0  0  0
  9 10  1  0  0  0
  9 11  1  0  0  0
 11 12  2  0  0  0
 12 13  1  0  0  0
 13 14  1  0  0  0
 14 15  2  0  0  0
 27 19  1  0  0  0
 10  5  1  0  0  0
 27 22  1  0  0  0
 14  8  1  0  0  0
  1  4  1  0  0  0
 13 16  1  0  0  0
M  END
>  <minimizedAffinity>
-1.22237

>  <minimizedRMSD>
2.07854

$$$$
CSC027329638 11466932 CSSS00027329638 MCULE-9145777116 MolPort-005-750-936 PubChem-41987274 Z229649752 ZINC000011466932 ZINC11466932


 34 37  0  0  0  0  0  0  0  0999 V2000
   16.5887   -8.9423   12.4875 C   0  0  0  0  0  0  0  0  0  0  0  0
   16.5456   -7.7617   12.9283 O   0  0  0  0  0  0  0  0  0  0  0  0
   16.8211  -10.0433   13.3762 N   0  0  0  0  0  0  0  0  0  0  0  0
   16.9179  -10.9309   12.9614 H   0  0  0  0  0  0  0  0  0  0  0  0
   13.6675  -10.4982   12.1903 C   0  0  0  0  0  0  0  0  0  0  0  0
   14.2764  -10.5071   10.8329 C   0  0  0  0  0  0  0  0  0  0  0  0
   13.6607  -11.0473    9.7543 N   0  0  0  0  0  0  0  0  0  0  0  0
   14.4045  -10.7993    8.7106 O   0  0  0  0  0  0  0  0  0  0  0  0
   15.4620  -10.1202    9.0712 C   0  0  0  0  0  0  0  0  0  0  0  0
   16.4317   -9.6417    8.2557 N   0  0  0  0  0  0  0  0  0  0  0  0
   17.4504   -8.9059    8.7951 C   0  0  0  0  0  0  0  0  0  0  0  0
   17.4877   -8.6605   10.1870 C   0  0  0  0  0  0  0  0  0  0  0  0
   16.4852   -9.1718   11.0355 C   0  0  0  0  0  0  0  0  0  0  0  0
   15.4578   -9.9081   10.4212 C   0  0  0  0  0  0  0  0  0  0  0  0
   18.5090   -8.3699    7.9295 C   0  0  0  0  0  0  0  0  0  0  0  0
   18.5405   -8.4612    6.5535 C   0  0  0  0  0  0  0  0  0  0  0  0
   19.7106   -7.8222    6.1823 C   0  0  0  0  0  0  0  0  0  0  0  0
   20.3112   -7.3863    7.3509 C   0  0  0  0  0  0  0  0  0  0  0  0
   19.5639   -7.7322    8.3710 O   0  0  0  0  0  0  0  0  0  0  0  0
   16.9273   -9.9884   14.8050 C   0  0  0  0  0  0  0  0  0  0  0  0
   17.8213  -10.8511   15.4467 C   0  0  0  0  0  0  0  0  0  0  0  0
   17.9480  -10.8311   16.8379 C   0  0  0  0  0  0  0  0  0  0  0  0
   17.1780   -9.9466   17.5972 C   0  0  0  0  0  0  0  0  0  0  0  0
   16.2757   -9.0764   16.9705 C   0  0  0  0  0  0  0  0  0  0  0  0
   16.1556   -9.1043   15.5738 C   0  0  0  0  0  0  0  0  0  0  0  0
   15.4623   -8.1438   17.7700 C   0  0  0  0  0  0  0  0  0  0  0  0
   14.5956   -7.4199   17.2073 O   0  0  0  0  0  0  0  0  0  0  0  0
   15.6542   -8.0583   19.1843 N   0  0  0  0  0  0  0  0  0  0  0  0
   16.3344   -8.6297   19.6087 H   0  0  0  0  0  0  0  0  0  0  0  0
   14.8756   -7.1529   20.0159 C   0  0  0  0  0  0  0  0  0  0  0  0
   15.5758   -6.9220   21.3444 C   0  0  0  0  0  0  0  0  0  0  0  0
   16.9397   -6.8095   21.1451 F   0  0  0  0  0  0  0  0  0  0  0  0
   15.3197   -7.9762   22.2018 F   0  0  0  0  0  0  0  0  0  0  0  0
   15.1023   -5.7534   21.9085 F   0  0  0  0  0  0  0  0  0  0  0  0
  5  6  1  0  0  0
  6  7  2  0  0  0
  7  8  1  0  0  0
  8  9  1  0  0  0
  9 10  2  0  0  0
 10 11  1  0  0  0
 11 12  2  0  0  0
 11 15  1  0  0  0
 12 13  1  0  0  0
 13  1  1  0  0  0
 13 14  2  0  0  0
  1  2  2  0  0  0
  1  3  1  0  0  0
  3 20  1  0  0  0
 20 21  2  0  0  0
 21 22  1  0  0  0
 22 23  2  0  0  0
 23 24  1  0  0  0
 24 25  2  0  0  0
 24 26  1  0  0  0
 25 20  1  0  0  0
 26 27  2  0  0  0
 26 28  1  0  0  0
 28 30  1  0  0  0
 30 31  1  0  0  0
 31 32  1  0  0  0
 31 33  1  0  0  0
 31 34  1  0  0  0
 14  6  1  0  0  0
 14  9  1  0  0  0
 15 16  2  0  0  0
 16 17  1  0  0  0
 17 18  2  0  0  0
 18 19  1  0  0  0
 19 15  1  0  0  0
  3  4  1  0  0  0
 28 29  1  0  0  0
M  END
>  <minimizedAffinity>
-1.20984

>  <minimizedRMSD>
2.32031

$$$$
298997056 CSSS00105354651 MCULE-8030761307 MolPort-046-184-057 PubChem-132423529 ZINC000298997056


 27 29  0  0  0  0  0  0  0  0999 V2000
   18.1765  -10.5431   11.9445 N   0  0  0  0  0  0  0  0  0  0  0  0
   17.3828   -9.5528   11.2765 C   0  0  0  0  0  0  0  0  0  0  0  0
   16.5712   -8.8456   11.9296 O   0  0  0  0  0  0  0  0  0  0  0  0
   18.7691  -11.0974   11.3870 H   0  0  0  0  0  0  0  0  0  0  0  0
   17.4807   -9.4173    9.8100 C   0  0  0  0  0  0  0  0  0  0  0  0
   16.5296  -10.0721    9.0007 C   0  0  0  0  0  0  0  0  0  0  0  0
   16.5627   -9.9351    7.5972 C   0  0  0  0  0  0  0  0  0  0  0  0
   15.5491  -10.6335    6.7650 C   0  0  0  0  0  0  0  0  0  0  0  0
   17.5186   -9.1665    6.9989 N   0  0  0  0  0  0  0  0  0  0  0  0
   18.4349   -8.5390    7.7763 C   0  0  0  0  0  0  0  0  0  0  0  0
   18.4522   -8.6477    9.1415 C   0  0  0  0  0  0  0  0  0  0  0  0
   19.5856   -7.9272    9.5151 C   0  0  0  0  0  0  0  0  0  0  0  0
   20.1709   -7.7813   10.8751 C   0  0  0  0  0  0  0  0  0  0  0  0
   20.1813   -7.4220    8.4069 N   0  0  0  0  0  0  0  0  0  0  0  0
   19.4669   -7.7958    7.3547 N   0  0  0  0  0  0  0  0  0  0  0  0
   19.8044   -7.4721    5.9798 C   0  0  0  0  0  0  0  0  0  0  0  0
   18.0259  -10.5843   15.5091 N   0  0  0  0  0  0  0  0  0  0  0  0
   17.8880   -9.8970   14.3621 C   0  0  0  0  0  0  0  0  0  0  0  0
   18.1792  -10.7930   13.3540 C   0  0  0  0  0  0  0  0  0  0  0  0
   18.4792  -12.0054   13.9401 C   0  0  0  0  0  0  0  0  0  0  0  0
   18.3707  -11.8406   15.2732 N   0  0  0  0  0  0  0  0  0  0  0  0
   17.7824  -10.0500   16.8385 C   0  0  0  0  0  0  0  0  0  0  0  0
   14.9398   -7.6969   18.0109 C   0  0  0  0  0  0  0  0  0  0  0  0
   16.2055   -8.4046   17.9185 N   0  0  0  0  0  0  0  0  0  0  0  0
   16.4753   -9.3363   16.8713 C   0  0  0  0  0  0  0  0  0  0  0  0
   15.6066   -9.5853   15.9933 O   0  0  0  0  0  0  0  0  0  0  0  0
   16.8976   -8.2364   18.5983 H   0  0  0  0  0  0  0  0  0  0  0  0
 23 24  1  0  0  0
 24 25  1  0  0  0
 25 26  2  0  0  0
 25 22  1  0  0  0
 22 17  1  0  0  0
 17 18  1  0  0  0
 18 19  2  0  0  0
 19  1  1  0  0  0
  1  2  1  0  0  0
  2  3  2  0  0  0
  2  5  1  0  0  0
  5  6  2  0  0  0
  6  7  1  0  0  0
  7  8  1  0  0  0
  7  9  2  0  0  0
  9 10  1  0  0  0
 10 11  2  0  0  0
 11 12  1  0  0  0
 12 13  1  0  0  0
 12 14  2  0  0  0
 14 15  1  0  0  0
 15 16  1  0  0  0
 19 20  1  0  0  0
 20 21  2  0  0  0
 21 17  1  0  0  0
 11  5  1  0  0  0
 15 10  1  0  0  0
 24 27  1  0  0  0
  1  4  1  0  0  0
M  END
>  <minimizedAffinity>
-1.18462

>  <minimizedRMSD>
1.48445

$$$$
CSSS02515429426 MCULE-2719808037 MolPort-047-600-570 PubChem-154821579


 26 28  0  0  0  0  0  0  0  0999 V2000
   15.7388  -10.9278   12.2784 C   0  0  0  0  0  0  0  0  0  0  0  0
   14.2258  -10.6805   12.2004 C   0  0  0  0  0  0  0  0  0  0  0  0
   13.8672   -9.6667   11.1118 C   0  0  0  0  0  0  0  0  0  0  0  0
   14.4222  -10.1218    9.7673 C   0  0  0  0  0  0  0  0  0  0  0  0
   15.8558  -10.3582    9.8937 N   0  0  0  0  0  0  0  0  0  0  0  0
   16.3224  -11.2956   10.9106 C   0  0  0  0  0  0  0  0  0  0  0  0
   16.7926   -9.6550    9.0722 C   0  0  0  0  0  0  0  0  0  0  0  0
   16.8414   -9.7883    7.7192 N   0  0  0  0  0  0  0  0  0  0  0  0
   17.8445   -8.9539    7.3997 C   0  0  0  0  0  0  0  0  0  0  0  0
   18.3509   -8.6752    6.1332 C   0  0  0  0  0  0  0  0  0  0  0  0
   19.4145   -7.7563    6.0497 C   0  0  0  0  0  0  0  0  0  0  0  0
   20.0989   -7.3602    4.4885 Cl  0  0  0  0  0  0  0  0  0  0  0  0
   19.9338   -7.1508    7.2172 C   0  0  0  0  0  0  0  0  0  0  0  0
   19.3973   -7.4558    8.4823 C   0  0  0  0  0  0  0  0  0  0  0  0
   18.3475   -8.3684    8.5231 C   0  0  0  0  0  0  0  0  0  0  0  0
   17.6878   -8.8100    9.5586 O   0  0  0  0  0  0  0  0  0  0  0  0
   17.3248  -10.0029   14.0516 N   0  0  0  0  0  0  0  0  0  0  0  0
   17.5097  -11.3385   14.5990 C   0  0  0  0  0  0  0  0  0  0  0  0
   16.4707   -9.7805   12.9184 C   0  0  0  0  0  0  0  0  0  0  0  0
   16.3266   -8.6137   12.4596 O   0  0  0  0  0  0  0  0  0  0  0  0
   17.9872   -8.8867   14.7132 C   0  0  0  0  0  0  0  0  0  0  0  0
   15.6573   -8.1153   17.7091 C   0  0  0  0  0  0  0  0  0  0  0  0
   16.6075   -8.7642   16.8220 N   0  0  0  0  0  0  0  0  0  0  0  0
   17.0258   -8.1660   15.5952 C   0  0  0  0  0  0  0  0  0  0  0  0
   16.5669   -7.0487   15.2365 O   0  0  0  0  0  0  0  0  0  0  0  0
   16.9738   -9.6424   17.0745 H   0  0  0  0  0  0  0  0  0  0  0  0
 22 23  1  0  0  0
 23 24  1  0  0  0
 24 25  2  0  0  0
 24 21  1  0  0  0
 21 17  1  0  0  0
 17 18  1  0  0  0
 17 19  1  0  0  0
 19 20  2  0  0  0
 19  1  1  0  0  0
  1  2  1  0  0  0
  2  3  1  0  0  0
  3  4  1  0  0  0
  4  5  1  0  0  0
  5  6  1  0  0  0
  5  7  1  0  0  0
  7  8  2  0  0  0
  8  9  1  0  0  0
  9 10  2  0  0  0
 10 11  1  0  0  0
 11 12  1  0  0  0
 11 13  2  0  0  0
 13 14  1  0  0  0
 14 15  2  0  0  0
 15 16  1  0  0  0
  6  1  1  0  0  0
 16  7  1  0  0  0
 15  9  1  0  0  0
 23 26  1  0  0  0
M  END
>  <minimizedAffinity>
-1.15985

>  <minimizedRMSD>
1.24837

$$$$
CSSS05520279487 Z7371506307


 30 33  0  0  0  0  0  0  0  0999 V2000
   17.2820   -8.6591   15.2452 C   0  0  0  0  0  0  0  0  0  0  0  0
   16.6636   -9.8616   15.9607 C   0  0  0  0  0  0  0  0  0  0  0  0
   15.4138  -10.3459   15.2380 C   0  0  0  0  0  0  0  0  0  0  0  0
   17.6748  -10.9951   16.0430 C   0  0  0  0  0  0  0  0  0  0  0  0
   17.7402  -11.4307   17.5002 C   0  0  0  0  0  0  0  0  0  0  0  0
   17.0113  -10.3739   18.3060 C   0  0  0  0  0  0  0  0  0  0  0  0
   16.3449   -9.5207   17.3413 N   0  0  0  0  0  0  0  0  0  0  0  0
   15.4548   -8.4616   17.7370 C   0  0  0  0  0  0  0  0  0  0  0  0
   14.8757   -7.7605   16.8623 O   0  0  0  0  0  0  0  0  0  0  0  0
   15.2155   -8.1756   19.1883 C   0  0  0  0  0  0  0  0  0  0  0  0
   15.7464   -6.7828   19.5605 C   0  0  0  0  0  0  0  0  0  0  0  0
   14.5751   -5.9825   20.1270 C   0  0  0  0  0  0  0  0  0  0  0  0
   13.4449   -6.9214   20.0176 C   0  0  0  0  0  0  0  0  0  0  0  0
   12.2707   -6.6409   20.3711 O   0  0  0  0  0  0  0  0  0  0  0  0
   13.7934   -8.1760   19.4767 N   0  0  0  0  0  0  0  0  0  0  0  0
   13.1755   -8.9264   19.3208 H   0  0  0  0  0  0  0  0  0  0  0  0
   17.7934   -9.5282   12.9283 C   0  0  0  0  0  0  0  0  0  0  0  0
   18.7316  -10.2355   13.3881 O   0  0  0  0  0  0  0  0  0  0  0  0
   17.0249   -8.7099   13.8123 N   0  0  0  0  0  0  0  0  0  0  0  0
   16.2967   -8.1617   13.4402 H   0  0  0  0  0  0  0  0  0  0  0  0
   12.7017  -10.5114   10.7524 C   0  0  0  0  0  0  0  0  0  0  0  0
   14.1104  -10.2200   10.5661 N   0  0  0  0  0  0  0  0  0  0  0  0
   15.0042  -10.0626   11.5697 C   0  0  0  0  0  0  0  0  0  0  0  0
   16.2171   -9.8008   10.9618 C   0  0  0  0  0  0  0  0  0  0  0  0
   17.4982   -9.5529   11.4795 C   0  0  0  0  0  0  0  0  0  0  0  0
   18.5280   -9.3206   10.5426 C   0  0  0  0  0  0  0  0  0  0  0  0
   18.2681   -9.3396    9.1554 C   0  0  0  0  0  0  0  0  0  0  0  0
   16.9723   -9.5913    8.6733 C   0  0  0  0  0  0  0  0  0  0  0  0
   15.9716   -9.8178    9.6126 C   0  0  0  0  0  0  0  0  0  0  0  0
   14.6770  -10.0755    9.3749 N   0  0  0  0  0  0  0  0  0  0  0  0
 21 22  1  0  0  0
 22 23  1  0  0  0
 23 24  2  0  0  0
 24 25  1  0  0  0
 25 26  2  0  0  0
 26 27  1  0  0  0
 27 28  2  0  0  0
 28 29  1  0  0  0
 29 30  2  0  0  0
 25 17  1  0  0  0
 17 18  2  0  0  0
 17 19  1  0  0  0
 19  1  1  0  0  0
  1  2  1  0  0  0
  2  3  1  0  0  0
  2  4  1  0  0  0
  4  5  1  0  0  0
  5  6  1  0  0  0
  6  7  1  0  0  0
  7  8  1  0  0  0
  8  9  2  0  0  0
 10  8  1  0  0  0
 10 11  1  0  0  0
 11 12  1  0  0  0
 12 13  1  0  0  0
 13 14  2  0  0  0
 13 15  1  0  0  0
 30 22  1  0  0  0
  7  2  1  0  0  0
 15 10  1  0  0  0
 29 24  1  0  0  0
 19 20  1  0  0  0
 15 16  1  0  0  0
M  END
>  <minimizedAffinity>
-1.13500

>  <minimizedRMSD>
2.27237

$$$$
CSC025948400 105885063 CSSS00025948400 MCULE-6601310899 MolPort-016-081-797 PubChem-55586560 Z343732736 ZINC000105885063


 33 36  0  0  0  0  0  0  0  0999 V2000
   17.7333  -10.3072   11.5622 C   0  0  0  0  0  0  0  0  0  0  0  0
   16.6116  -10.8404   11.3431 O   0  0  0  0  0  0  0  0  0  0  0  0
   18.4236  -10.5773   12.7866 N   0  0  0  0  0  0  0  0  0  0  0  0
   19.3213  -10.1942   12.9153 H   0  0  0  0  0  0  0  0  0  0  0  0
   21.5882   -7.4996   10.0130 C   0  0  0  0  0  0  0  0  0  0  0  0
   20.2183   -8.0324    9.7941 C   0  0  0  0  0  0  0  0  0  0  0  0
   19.5247   -7.6805    8.6702 N   0  0  0  0  0  0  0  0  0  0  0  0
   18.2770   -8.1812    8.4943 C   0  0  0  0  0  0  0  0  0  0  0  0
   17.6812   -9.0140    9.3904 C   0  0  0  0  0  0  0  0  0  0  0  0
   16.4234   -9.2828    8.8721 C   0  0  0  0  0  0  0  0  0  0  0  0
   16.3146   -8.6063    7.6970 N   0  0  0  0  0  0  0  0  0  0  0  0
   17.4455   -7.9479    7.4734 N   0  0  0  0  0  0  0  0  0  0  0  0
   18.3414   -9.4093   10.5599 C   0  0  0  0  0  0  0  0  0  0  0  0
   19.6422   -8.8976   10.7520 C   0  0  0  0  0  0  0  0  0  0  0  0
   17.6744   -7.0670    6.3384 C   0  0  0  0  0  0  0  0  0  0  0  0
   18.7862   -7.5951    5.4999 C   0  0  0  0  0  0  0  0  0  0  0  0
   18.7253   -8.7272    4.7064 C   0  0  0  0  0  0  0  0  0  0  0  0
   19.9500   -9.0147    4.0863 C   0  0  0  0  0  0  0  0  0  0  0  0
   20.9763   -8.1246    4.3977 C   0  0  0  0  0  0  0  0  0  0  0  0
   20.3416   -6.9778    5.4533 S   0  0  0  0  0  0  0  0  0  0  0  0
   17.8558  -11.3942   13.8503 C   0  0  0  0  0  0  0  0  0  0  0  0
   17.1612  -10.5335   14.8502 C   0  0  0  0  0  0  0  0  0  0  0  0
   17.3620  -10.7468   16.2178 C   0  0  0  0  0  0  0  0  0  0  0  0
   16.6968   -9.9519   17.1556 C   0  0  0  0  0  0  0  0  0  0  0  0
   15.8255   -8.9434   16.7287 C   0  0  0  0  0  0  0  0  0  0  0  0
   15.6247   -8.7311   15.3604 C   0  0  0  0  0  0  0  0  0  0  0  0
   16.2893   -9.5263   14.4224 C   0  0  0  0  0  0  0  0  0  0  0  0
   14.9952   -7.9343   17.9020 S   0  0  0  0  0  0  0  0  0  0  0  0
   14.5028   -6.6890   17.2201 O   0  0  0  0  0  0  0  0  0  0  0  0
   13.8130   -8.6733   18.4662 O   0  0  0  0  0  0  0  0  0  0  0  0
   16.0763   -7.4961   19.1820 N   0  0  0  0  0  0  0  0  0  0  0  0
   15.3031   -7.4179   20.4100 C   0  0  0  0  0  0  0  0  0  0  0  0
   16.5021   -6.5910   18.9819 H   0  0  0  0  0  0  0  0  0  0  0  0
  5  6  1  0  0  0
  6  7  2  0  0  0
  7  8  1  0  0  0
  8  9  2  0  0  0
  9 10  1  0  0  0
  9 13  1  0  0  0
 10 11  2  0  0  0
 11 12  1  0  0  0
 12 15  1  0  0  0
 12  8  1  0  0  0
 15 16  1  0  0  0
 16 17  2  0  0  0
 17 18  1  0  0  0
 18 19  2  0  0  0
 19 20  1  0  0  0
 20 16  1  0  0  0
 13 14  2  0  0  0
 13  1  1  0  0  0
 14  6  1  0  0  0
  1  2  2  0  0  0
  1  3  1  0  0  0
  3 21  1  0  0  0
 21 22  1  0  0  0
 22 23  2  0  0  0
 23 24  1  0  0  0
 24 25  2  0  0  0
 25 26  1  0  0  0
 25 28  1  0  0  0
 26 27  2  0  0  0
 27 22  1  0  0  0
 28 29  2  0  0  0
 28 30  2  0  0  0
 28 31  1  0  0  0
 31 32  1  0  0  0
  3  4  1  0  0  0
 31 33  1  0  0  0
M  END
>  <minimizedAffinity>
-1.11902

>  <minimizedRMSD>
2.79035

$$$$
CSC027740535 CSSS00027740535 MCULE-5773507936 MolPort-039-254-746 PubChem-121556317 Z2218300768


 30 33  0  0  0  0  0  0  0  0999 V2000
   13.5840  -10.6634    9.6220 C   0  0  0  0  0  0  0  0  0  0  0  0
   13.8221  -10.0214   10.9453 C   0  0  0  0  0  0  0  0  0  0  0  0
   12.8805   -9.3981   11.5022 O   0  0  0  0  0  0  0  0  0  0  0  0
   15.0998  -10.1100   11.5874 N   0  0  0  0  0  0  0  0  0  0  0  0
   15.3296   -9.6310   12.8749 N   0  0  0  0  0  0  0  0  0  0  0  0
   16.5135   -9.9602   13.2617 C   0  0  0  0  0  0  0  0  0  0  0  0
   17.2615  -10.7531   12.2342 C   0  0  0  0  0  0  0  0  0  0  0  0
   16.2650  -10.8166   11.0726 C   0  0  0  0  0  0  0  0  0  0  0  0
   16.8275  -10.1100    9.8790 C   0  0  0  0  0  0  0  0  0  0  0  0
   16.2941  -10.3603    8.6107 C   0  0  0  0  0  0  0  0  0  0  0  0
   16.8045   -9.7177    7.5264 N   0  0  0  0  0  0  0  0  0  0  0  0
   17.8280   -8.8339    7.6548 C   0  0  0  0  0  0  0  0  0  0  0  0
   18.3462   -8.1777    6.5353 C   0  0  0  0  0  0  0  0  0  0  0  0
   19.4009   -7.2711    6.6871 C   0  0  0  0  0  0  0  0  0  0  0  0
   19.9371   -7.0205    7.9557 C   0  0  0  0  0  0  0  0  0  0  0  0
   19.4216   -7.6752    9.0795 C   0  0  0  0  0  0  0  0  0  0  0  0
   18.3684   -8.5814    8.9327 C   0  0  0  0  0  0  0  0  0  0  0  0
   17.8553   -9.2256   10.0121 N   0  0  0  0  0  0  0  0  0  0  0  0
   17.0513   -9.5910   14.5818 C   0  0  0  0  0  0  0  0  0  0  0  0
   18.4062   -9.2638   14.7278 C   0  0  0  0  0  0  0  0  0  0  0  0
   18.9163   -8.9121   15.9803 C   0  0  0  0  0  0  0  0  0  0  0  0
   18.0749   -8.8849   17.0956 C   0  0  0  0  0  0  0  0  0  0  0  0
   16.7212   -9.2086   16.9650 C   0  0  0  0  0  0  0  0  0  0  0  0
   16.2142   -9.5609   15.7060 C   0  0  0  0  0  0  0  0  0  0  0  0
   15.8808   -9.1729   18.1212 N   0  0  0  0  0  0  0  0  0  0  0  0
   15.8956   -9.9450   18.7320 H   0  0  0  0  0  0  0  0  0  0  0  0
   14.8375   -7.8436   18.5051 S   0  0  0  0  0  0  0  0  0  0  0  0
   15.5412   -6.9244   19.8526 C   0  0  0  0  0  0  0  0  0  0  0  0
   14.7022   -6.9412   17.3112 O   0  0  0  0  0  0  0  0  0  0  0  0
   13.4859   -8.3582   18.9128 O   0  0  0  0  0  0  0  0  0  0  0  0
  1  2  1  0  0  0
  2  3  2  0  0  0
  2  4  1  0  0  0
  4  5  1  0  0  0
  5  6  2  0  0  0
  6  7  1  0  0  0
  7  8  1  0  0  0
  8  9  1  0  0  0
  9 10  2  0  0  0
 10 11  1  0  0  0
 11 12  2  0  0  0
 12 13  1  0  0  0
 13 14  2  0  0  0
 14 15  1  0  0  0
 15 16  2  0  0  0
 16 17  1  0  0  0
 17 18  2  0  0  0
  6 19  1  0  0  0
 19 20  2  0  0  0
 20 21  1  0  0  0
 21 22  2  0  0  0
 22 23  1  0  0  0
 23 25  1  0  0  0
 25 27  1  0  0  0
 27 28  1  0  0  0
 27 29  2  0  0  0
 27 30  2  0  0  0
 23 24  2  0  0  0
  8  4  1  0  0  0
 18  9  1  0  0  0
 24 19  1  0  0  0
 17 12  1  0  0  0
 25 26  1  0  0  0
M  END
>  <minimizedAffinity>
-1.09956

>  <minimizedRMSD>
1.18351

$$$$
12152349 CSSS00160579006 MCULE-9895932327 MolPort-005-099-780 PubChem-42432728 ZINC000012152349 ZINC12152349


 34 38  0  0  0  0  0  0  0  0999 V2000
   17.9327  -11.3998   17.7009 C   0  0  0  0  0  0  0  0  0  0  0  0
   17.9750  -10.8912   16.2985 C   0  0  0  0  0  0  0  0  0  0  0  0
   19.1755  -10.8371   15.6640 N   0  0  0  0  0  0  0  0  0  0  0  0
   19.2951  -10.3929   14.3869 C   0  0  0  0  0  0  0  0  0  0  0  0
   18.1694   -9.9809   13.6759 C   0  0  0  0  0  0  0  0  0  0  0  0
   18.3560   -9.4743   12.2743 C   0  0  0  0  0  0  0  0  0  0  0  0
   17.0758   -9.3141   11.5897 N   0  0  0  0  0  0  0  0  0  0  0  0
   15.9610   -8.7444   12.3354 C   0  0  0  0  0  0  0  0  0  0  0  0
   15.6585   -9.6152   13.5485 C   0  0  0  0  0  0  0  0  0  0  0  0
   16.9049  -10.0106   14.3040 C   0  0  0  0  0  0  0  0  0  0  0  0
   16.8052  -10.4723   15.6319 C   0  0  0  0  0  0  0  0  0  0  0  0
   16.9624   -9.5312   10.1755 C   0  0  0  0  0  0  0  0  0  0  0  0
   15.8559   -9.3621    9.5960 O   0  0  0  0  0  0  0  0  0  0  0  0
   15.4737  -10.4868   16.3338 C   0  0  0  0  0  0  0  0  0  0  0  0
   15.5391   -9.6975   17.5569 N   0  0  0  0  0  0  0  0  0  0  0  0
   15.4397   -8.2716   17.5700 C   0  0  0  0  0  0  0  0  0  0  0  0
   15.0778   -7.6419   16.5410 O   0  0  0  0  0  0  0  0  0  0  0  0
   15.6573  -10.1679   18.4136 H   0  0  0  0  0  0  0  0  0  0  0  0
   15.8153   -7.5197   18.7993 C   0  0  0  0  0  0  0  0  0  0  0  0
   14.5994   -7.2516   19.6206 C   0  0  0  0  0  0  0  0  0  0  0  0
   13.4854   -6.6010   19.1032 C   0  0  0  0  0  0  0  0  0  0  0  0
   12.3551   -6.5889   20.3434 S   0  0  0  0  0  0  0  0  0  0  0  0
   13.2427   -7.3976   21.5207 C   0  0  0  0  0  0  0  0  0  0  0  0
   14.4703   -7.6997   20.9437 C   0  0  0  0  0  0  0  0  0  0  0  0
   18.1461   -9.9557    9.3650 C   0  0  0  0  0  0  0  0  0  0  0  0
   17.9810   -9.5444    7.9783 N   0  0  0  0  0  0  0  0  0  0  0  0
   16.9892   -9.9195    7.1358 C   0  0  0  0  0  0  0  0  0  0  0  0
   17.0978   -9.3300    5.9139 N   0  0  0  0  0  0  0  0  0  0  0  0
   18.1999   -8.5657    6.0289 C   0  0  0  0  0  0  0  0  0  0  0  0
   18.7652   -7.7372    5.0629 C   0  0  0  0  0  0  0  0  0  0  0  0
   19.9269   -7.0262    5.4198 C   0  0  0  0  0  0  0  0  0  0  0  0
   20.4829   -7.1588    6.7127 C   0  0  0  0  0  0  0  0  0  0  0  0
   19.8844   -8.0041    7.6654 C   0  0  0  0  0  0  0  0  0  0  0  0
   18.7350   -8.6900    7.2749 C   0  0  0  0  0  0  0  0  0  0  0  0
  1  2  1  0  0  0
  2  3  2  0  0  0
  3  4  1  0  0  0
  4  5  2  0  0  0
  5  6  1  0  0  0
  6  7  1  0  0  0
  7  8  1  0  0  0
  7 12  1  0  0  0
  8  9  1  0  0  0
  9 10  1  0  0  0
 10 11  2  0  0  0
 10  5  1  0  0  0
 11 14  1  0  0  0
 11  2  1  0  0  0
 14 15  1  0  0  0
 15 16  1  0  0  0
 16 17  2  0  0  0
 16 19  1  0  0  0
 19 20  1  0  0  0
 20 21  2  0  0  0
 21 22  1  0  0  0
 22 23  1  0  0  0
 23 24  2  0  0  0
 24 20  1  0  0  0
 12 13  2  0  0  0
 12 25  1  0  0  0
 25 26  1  0  0  0
 26 27  1  0  0  0
 27 28  2  0  0  0
 28 29  1  0  0  0
 29 30  2  0  0  0
 30 31  1  0  0  0
 31 32  2  0  0  0
 32 33  1  0  0  0
 33 34  2  0  0  0
 34 26  1  0  0  0
 34 29  1  0  0  0
 15 18  1  0  0  0
M  END
>  <minimizedAffinity>
-1.09883

>  <minimizedRMSD>
2.96841

$$$$
904491968 CSSS00160466802 MCULE-3069409345 MolPort-046-826-832 PubChem-145909037 Z2902677383


 37 42  0  0  0  0  0  0  0  0999 V2000
   16.3266   -9.8640   16.8443 C   0  0  0  0  0  0  0  0  0  0  0  0
   17.0894  -10.9081   16.6380 O   0  0  0  0  0  0  0  0  0  0  0  0
   17.2034  -11.1173   15.3623 N   0  0  0  0  0  0  0  0  0  0  0  0
   16.4679  -10.1453   14.7849 C   0  0  0  0  0  0  0  0  0  0  0  0
   15.8913   -9.3256   15.6904 N   0  0  0  0  0  0  0  0  0  0  0  0
   16.3144   -9.9918   13.3301 C   0  0  0  0  0  0  0  0  0  0  0  0
   17.4278   -9.7051   12.5291 C   0  0  0  0  0  0  0  0  0  0  0  0
   17.2842   -9.5569   11.1458 C   0  0  0  0  0  0  0  0  0  0  0  0
   16.0215   -9.6828   10.5582 C   0  0  0  0  0  0  0  0  0  0  0  0
   14.9070   -9.9697   11.3511 C   0  0  0  0  0  0  0  0  0  0  0  0
   15.0530  -10.1242   12.7328 C   0  0  0  0  0  0  0  0  0  0  0  0
   18.4682   -9.2178   10.3059 C   0  0  0  0  0  0  0  0  0  0  0  0
   18.1189   -9.2850    8.8939 N   0  0  0  0  0  0  0  0  0  0  0  0
   18.6935   -8.6388    7.8720 C   0  0  0  0  0  0  0  0  0  0  0  0
   18.0141   -8.9426    6.7317 C   0  0  0  0  0  0  0  0  0  0  0  0
   18.3756   -8.4129    5.4956 C   0  0  0  0  0  0  0  0  0  0  0  0
   19.4814   -7.5417    5.4633 C   0  0  0  0  0  0  0  0  0  0  0  0
   20.1840   -7.2266    6.6487 C   0  0  0  0  0  0  0  0  0  0  0  0
   19.7911   -7.7791    7.8819 C   0  0  0  0  0  0  0  0  0  0  0  0
   16.9941   -9.7785    7.0021 N   0  0  0  0  0  0  0  0  0  0  0  0
   17.0833   -9.9662    8.3472 C   0  0  0  0  0  0  0  0  0  0  0  0
   15.9791   -9.3274   18.1912 C   0  0  0  0  0  0  0  0  0  0  0  0
   15.7777   -6.3661   16.4276 O   0  0  0  0  0  0  0  0  0  0  0  0
   15.2846   -7.0647   17.3504 C   0  0  0  0  0  0  0  0  0  0  0  0
   16.1988   -7.8176   18.2542 C   0  0  0  0  0  0  0  0  0  0  0  0
   16.0539   -7.3252   19.6122 N   0  0  0  0  0  0  0  0  0  0  0  0
   14.8496   -7.3723   20.3831 C   0  0  0  0  0  0  0  0  0  0  0  0
   14.8902   -6.9567   21.5719 O   0  0  0  0  0  0  0  0  0  0  0  0
   13.5800   -7.9386   19.8648 C   0  0  0  0  0  0  0  0  0  0  0  0
   13.1320   -7.8121   18.5202 C   0  0  0  0  0  0  0  0  0  0  0  0
   11.8710   -8.3090   18.1691 C   0  0  0  0  0  0  0  0  0  0  0  0
   11.0623   -8.9486   19.1078 C   0  0  0  0  0  0  0  0  0  0  0  0
   11.5001   -9.0844   20.4224 C   0  0  0  0  0  0  0  0  0  0  0  0
   12.7436   -8.5757   20.7962 C   0  0  0  0  0  0  0  0  0  0  0  0
   13.8655   -7.1328   17.4929 N   0  0  0  0  0  0  0  0  0  0  0  0
   16.8480   -6.9269   20.0367 H   0  0  0  0  0  0  0  0  0  0  0  0
   13.3329   -6.6620   16.8117 H   0  0  0  0  0  0  0  0  0  0  0  0
 23 24  2  0  0  0
 24 25  1  0  0  0
 25 22  1  0  0  0
 22  1  1  0  0  0
  1  2  1  0  0  0
  2  3  1  0  0  0
  3  4  2  0  0  0
  4  6  1  0  0  0
  6  7  2  0  0  0
  7  8  1  0  0  0
  8 12  1  0  0  0
 12 13  1  0  0  0
 13 14  1  0  0  0
 14 15  1  0  0  0
 15 16  2  0  0  0
 16 17  1  0  0  0
 17 18  2  0  0  0
 18 19  1  0  0  0
 15 20  1  0  0  0
 20 21  2  0  0  0
  8  9  2  0  0  0
  9 10  1  0  0  0
 10 11  2  0  0  0
  4  5  1  0  0  0
 25 26  1  0  0  0
 26 27  1  0  0  0
 27 28  2  0  0  0
 27 29  1  0  0  0
 29 30  2  0  0  0
 30 31  1  0  0  0
 31 32  2  0  0  0
 32 33  1  0  0  0
 33 34  2  0  0  0
 30 35  1  0  0  0
 35 24  1  0  0  0
  5  1  2  0  0  0
 34 29  1  0  0  0
 11  6  1  0  0  0
 21 13  1  0  0  0
 19 14  2  0  0  0
 26 36  1  0  0  0
 35 37  1  0  0  0
M  END
>  <minimizedAffinity>
-1.08188

>  <minimizedRMSD>
2.30354

$$$$
CSC026347218 32988843 CSSS00026347218 MCULE-5232257222 MolPort-005-715-030 PubChem-18139115 Z29201834 ZINC000032988843 ZINC32988843


 28 30  0  0  0  0  0  0  0  0999 V2000
   17.8226  -10.1192   12.4562 C   0  0  0  0  0  0  0  0  0  0  0  0
   18.8179   -9.3682   12.6440 O   0  0  0  0  0  0  0  0  0  0  0  0
   17.5747  -11.1987   13.3643 N   0  0  0  0  0  0  0  0  0  0  0  0
   16.8272  -11.8106   13.1744 H   0  0  0  0  0  0  0  0  0  0  0  0
   20.3856   -7.8792    8.3860 C   0  0  0  0  0  0  0  0  0  0  0  0
   18.9872   -8.3266    8.6144 C   0  0  0  0  0  0  0  0  0  0  0  0
   18.0337   -8.1784    7.6055 C   0  0  0  0  0  0  0  0  0  0  0  0
   16.7191   -8.5976    7.8188 C   0  0  0  0  0  0  0  0  0  0  0  0
   16.3522   -9.1670    9.0416 C   0  0  0  0  0  0  0  0  0  0  0  0
   15.0689   -9.5674    9.2340 N   0  0  0  0  0  0  0  0  0  0  0  0
   14.6642  -10.1237   10.4038 C   0  0  0  0  0  0  0  0  0  0  0  0
   13.2502  -10.5474   10.5732 C   0  0  0  0  0  0  0  0  0  0  0  0
   15.5714  -10.2984   11.4474 C   0  0  0  0  0  0  0  0  0  0  0  0
   16.9087   -9.9045   11.3032 C   0  0  0  0  0  0  0  0  0  0  0  0
   17.3119   -9.3239   10.0736 C   0  0  0  0  0  0  0  0  0  0  0  0
   18.6283   -8.8948    9.8390 C   0  0  0  0  0  0  0  0  0  0  0  0
   18.3787  -11.4316   14.5560 C   0  0  0  0  0  0  0  0  0  0  0  0
   17.7615  -10.7588   15.7340 C   0  0  0  0  0  0  0  0  0  0  0  0
   17.6881  -11.2951   17.0133 C   0  0  0  0  0  0  0  0  0  0  0  0
   17.0155  -10.4578   17.9141 C   0  0  0  0  0  0  0  0  0  0  0  0
   16.5708   -9.2839   17.3214 C   0  0  0  0  0  0  0  0  0  0  0  0
   16.9919   -9.2664   15.6961 S   0  0  0  0  0  0  0  0  0  0  0  0
   15.6811   -8.0131   18.1344 S   0  0  0  0  0  0  0  0  0  0  0  0
   14.7482   -8.6896   19.4219 N   0  0  0  0  0  0  0  0  0  0  0  0
   14.7622   -7.3372   17.1566 O   0  0  0  0  0  0  0  0  0  0  0  0
   16.6445   -7.0093   18.7019 O   0  0  0  0  0  0  0  0  0  0  0  0
   14.0915   -9.3723   19.0437 H   0  0  0  0  0  0  0  0  0  0  0  0
   14.2323   -7.9473   19.8945 H   0  0  0  0  0  0  0  0  0  0  0  0
  5  6  1  0  0  0
  6  7  2  0  0  0
  7  8  1  0  0  0
  8  9  2  0  0  0
  9 10  1  0  0  0
 10 11  2  0  0  0
 11 12  1  0  0  0
 11 13  1  0  0  0
 13 14  2  0  0  0
 14  1  1  0  0  0
 14 15  1  0  0  0
  1  2  2  0  0  0
  1  3  1  0  0  0
  3 17  1  0  0  0
 17 18  1  0  0  0
 18 19  2  0  0  0
 19 20  1  0  0  0
 20 21  2  0  0  0
 21 22  1  0  0  0
 21 23  1  0  0  0
 22 18  1  0  0  0
 23 24  1  0  0  0
 23 25  2  0  0  0
 23 26  2  0  0  0
 15 16  2  0  0  0
 15  9  1  0  0  0
 16  6  1  0  0  0
  3  4  1  0  0  0
 24 27  1  0  0  0
 24 28  1  0  0  0
M  END
>  <minimizedAffinity>
-1.07849

>  <minimizedRMSD>
1.83392

$$$$
2325734862 CSSS01554577332 PubChem-166211655 Z1672033876


 33 36  0  0  0  0  0  0  0  0999 V2000
   17.2617   -8.7884   16.4323 C   0  0  0  0  0  0  0  0  0  0  0  0
   16.0369   -8.7688   15.7388 C   0  0  0  0  0  0  0  0  0  0  0  0
   14.8890   -8.2802   16.3797 C   0  0  0  0  0  0  0  0  0  0  0  0
   14.9492   -7.8096   17.6982 C   0  0  0  0  0  0  0  0  0  0  0  0
   16.1735   -7.8340   18.3778 C   0  0  0  0  0  0  0  0  0  0  0  0
   17.3212   -8.3205   17.7483 C   0  0  0  0  0  0  0  0  0  0  0  0
   13.7382   -7.2970   18.3623 C   0  0  0  0  0  0  0  0  0  0  0  0
   13.1820   -7.9841   19.4798 N   0  0  0  0  0  0  0  0  0  0  0  0
   13.1820   -6.2451   17.9481 O   0  0  0  0  0  0  0  0  0  0  0  0
   13.6072   -8.8071   19.8131 H   0  0  0  0  0  0  0  0  0  0  0  0
   12.3725   -7.6358   19.9187 H   0  0  0  0  0  0  0  0  0  0  0  0
   15.9667   -9.2634   14.3989 N   0  0  0  0  0  0  0  0  0  0  0  0
   15.4577  -10.0901   14.2353 H   0  0  0  0  0  0  0  0  0  0  0  0
   16.6040   -8.6149   13.2645 C   0  0  0  0  0  0  0  0  0  0  0  0
   16.0650   -9.1961   12.0027 C   0  0  0  0  0  0  0  0  0  0  0  0
   16.8356   -9.2896   10.8436 C   0  0  0  0  0  0  0  0  0  0  0  0
   18.1223   -8.8833   10.5720 C   0  0  0  0  0  0  0  0  0  0  0  0
   18.3226   -9.2644    9.2419 C   0  0  0  0  0  0  0  0  0  0  0  0
   17.2288   -9.8726    8.7176 N   0  0  0  0  0  0  0  0  0  0  0  0
   16.3393   -9.8733    9.7184 C   0  0  0  0  0  0  0  0  0  0  0  0
   15.0874  -10.3940    9.6651 N   0  0  0  0  0  0  0  0  0  0  0  0
   14.2944  -10.3348   10.7769 C   0  0  0  0  0  0  0  0  0  0  0  0
   14.7697   -9.7402   11.9656 C   0  0  0  0  0  0  0  0  0  0  0  0
   17.1151  -10.2317    7.8080 H   0  0  0  0  0  0  0  0  0  0  0  0
   18.5182   -9.3043   15.7993 C   0  0  0  0  0  0  0  0  0  0  0  0
   18.0778  -13.7969   13.4516 C   0  0  0  0  0  0  0  0  0  0  0  0
   18.1918  -12.8251   14.5240 N   0  0  0  0  0  0  0  0  0  0  0  0
   17.9602  -13.1019   15.9379 C   0  0  0  0  0  0  0  0  0  0  0  0
   18.1367  -11.7498   16.5620 C   0  0  0  0  0  0  0  0  0  0  0  0
   18.0132  -11.5156   17.7927 O   0  0  0  0  0  0  0  0  0  0  0  0
   18.4495  -10.7476   15.6004 N   0  0  0  0  0  0  0  0  0  0  0  0
   18.4664  -11.4406   14.3675 C   0  0  0  0  0  0  0  0  0  0  0  0
   18.6965  -10.8919   13.2567 O   0  0  0  0  0  0  0  0  0  0  0  0
 26 27  1  0  0  0
 27 28  1  0  0  0
 28 29  1  0  0  0
 29 30  2  0  0  0
 29 31  1  0  0  0
 31 25  1  0  0  0
 25  1  1  0  0  0
  1  2  1  0  0  0
  2 12  1  0  0  0
 12 14  1  0  0  0
 14 15  1  0  0  0
 15 16  2  0  0  0
 16 17  1  0  0  0
 17 18  2  0  0  0
 18 19  1  0  0  0
 19 20  1  0  0  0
 20 21  2  0  0  0
 21 22  1  0  0  0
 22 23  2  0  0  0
  2  3  2  0  0  0
  3  4  1  0  0  0
  4  7  1  0  0  0
  7  8  1  0  0  0
  7  9  2  0  0  0
  4  5  2  0  0  0
  5  6  1  0  0  0
 31 32  1  0  0  0
 32 33  2  0  0  0
 32 27  1  0  0  0
  6  1  2  0  0  0
 23 15  1  0  0  0
 20 16  1  0  0  0
 12 13  1  0  0  0
 19 24  1  0  0  0
  8 10  1  0  0  0
  8 11  1  0  0  0
M  END
>  <minimizedAffinity>
-1.07227

>  <minimizedRMSD>
3.00534

$$$$
CSSS00160578957 MCULE-4866418492 MolPort-005-096-327 PubChem-45218596


 37 40  0  0  0  0  0  0  0  0999 V2000
   17.7441  -10.9159   15.6674 N   0  0  0  0  0  0  0  0  0  0  0  0
   17.1168   -9.8619   16.2524 C   0  0  0  0  0  0  0  0  0  0  0  0
   16.3286   -8.9838   15.5013 C   0  0  0  0  0  0  0  0  0  0  0  0
   16.2016   -9.2122   14.1124 C   0  0  0  0  0  0  0  0  0  0  0  0
   15.5034   -8.4345   13.4073 O   0  0  0  0  0  0  0  0  0  0  0  0
   16.8643  -10.3095   13.5171 C   0  0  0  0  0  0  0  0  0  0  0  0
   17.6387  -11.1425   14.3332 C   0  0  0  0  0  0  0  0  0  0  0  0
   16.7847  -10.6180   12.0672 C   0  0  0  0  0  0  0  0  0  0  0  0
   17.7709  -11.1533   11.4893 O   0  0  0  0  0  0  0  0  0  0  0  0
   15.6011  -10.3285   11.3158 N   0  0  0  0  0  0  0  0  0  0  0  0
   14.8215   -9.9573   11.7886 H   0  0  0  0  0  0  0  0  0  0  0  0
   15.5018  -10.5598    9.8815 C   0  0  0  0  0  0  0  0  0  0  0  0
   14.1151  -10.1790    9.4016 C   0  0  0  0  0  0  0  0  0  0  0  0
   16.5335   -9.7576    9.1565 C   0  0  0  0  0  0  0  0  0  0  0  0
   16.6852   -9.8198    7.8081 N   0  0  0  0  0  0  0  0  0  0  0  0
   17.7077   -8.9802    7.5943 C   0  0  0  0  0  0  0  0  0  0  0  0
   18.2967   -8.6511    6.3760 C   0  0  0  0  0  0  0  0  0  0  0  0
   19.3653   -7.7355    6.4013 C   0  0  0  0  0  0  0  0  0  0  0  0
   19.8083   -7.1832    7.6240 C   0  0  0  0  0  0  0  0  0  0  0  0
   19.1900   -7.5417    8.8363 C   0  0  0  0  0  0  0  0  0  0  0  0
   18.1365   -8.4497    8.7724 C   0  0  0  0  0  0  0  0  0  0  0  0
   17.4074   -8.9288    9.7892 N   0  0  0  0  0  0  0  0  0  0  0  0
   17.4845   -8.7312   10.7506 H   0  0  0  0  0  0  0  0  0  0  0  0
   15.6742   -7.8485   16.1967 C   0  0  0  0  0  0  0  0  0  0  0  0
   15.9336   -6.6580   15.8710 O   0  0  0  0  0  0  0  0  0  0  0  0
   14.7373   -8.1053   17.2486 N   0  0  0  0  0  0  0  0  0  0  0  0
   14.4947   -9.0386   17.4471 H   0  0  0  0  0  0  0  0  0  0  0  0
   14.1287   -7.0435   18.0366 C   0  0  0  0  0  0  0  0  0  0  0  0
   14.2753   -7.3359   19.4905 C   0  0  0  0  0  0  0  0  0  0  0  0
   13.2349   -7.6020   20.3515 C   0  0  0  0  0  0  0  0  0  0  0  0
   13.8426   -7.8349   21.5732 C   0  0  0  0  0  0  0  0  0  0  0  0
   15.2057   -7.6981   21.3708 C   0  0  0  0  0  0  0  0  0  0  0  0
   15.4236   -7.4017   20.1125 O   0  0  0  0  0  0  0  0  0  0  0  0
   18.5800  -11.7984   16.4686 C   0  0  0  0  0  0  0  0  0  0  0  0
   17.0828  -12.0307   18.4476 C   0  0  0  0  0  0  0  0  0  0  0  0
   18.4182  -11.5065   17.9541 C   0  0  0  0  0  0  0  0  0  0  0  0
   19.5330  -12.1852   18.7211 C   0  0  0  0  0  0  0  0  0  0  0  0
 35 36  1  0  0  0
 36 37  1  0  0  0
 36 34  1  0  0  0
 34  1  1  0  0  0
  1  2  1  0  0  0
  2  3  2  0  0  0
  3  4  1  0  0  0
  3 24  1  0  0  0
  4  5  2  0  0  0
  4  6  1  0  0  0
  6  7  2  0  0  0
  6  8  1  0  0  0
  7  1  1  0  0  0
  8  9  2  0  0  0
  8 10  1  0  0  0
 12 10  1  0  0  0
 12 13  1  0  0  0
 12 14  1  0  0  0
 14 15  2  0  0  0
 15 16  1  0  0  0
 16 17  2  0  0  0
 17 18  1  0  0  0
 18 19  2  0  0  0
 19 20  1  0  0  0
 20 21  2  0  0  0
 21 22  1  0  0  0
 21 16  1  0  0  0
 22 14  1  0  0  0
 24 25  2  0  0  0
 24 26  1  0  0  0
 26 28  1  0  0  0
 28 29  1  0  0  0
 29 30  2  0  0  0
 30 31  1  0  0  0
 31 32  2  0  0  0
 32 33  1  0  0  0
 33 29  1  0  0  0
 10 11  1  0  0  0
 22 23  1  0  0  0
 26 27  1  0  0  0
M  END
>  <minimizedAffinity>
-1.02542

>  <minimizedRMSD>
2.13151

$$$$
CSC026448371 8755451 CSSS00026448371 MCULE-4398535532 MolPort-005-564-871 PubChem-17439309 Z32875384 ZINC000008755451 ZINC08755451


 31 34  0  0  0  0  0  0  0  0999 V2000
   17.6091  -10.0934   12.7426 C   0  0  0  0  0  0  0  0  0  0  0  0
   18.6227  -11.0589   12.8245 C   0  0  0  0  0  0  0  0  0  0  0  0
   19.4381  -11.1327   13.9568 C   0  0  0  0  0  0  0  0  0  0  0  0
   19.2453  -10.2424   15.0161 C   0  0  0  0  0  0  0  0  0  0  0  0
   18.2356   -9.2776   14.9462 C   0  0  0  0  0  0  0  0  0  0  0  0
   17.4224   -9.2032   13.8104 C   0  0  0  0  0  0  0  0  0  0  0  0
   15.5091   -9.8532   11.6707 O   0  0  0  0  0  0  0  0  0  0  0  0
   16.7545  -10.0118   11.5461 C   0  0  0  0  0  0  0  0  0  0  0  0
   17.3358  -10.1109   10.2418 N   0  0  0  0  0  0  0  0  0  0  0  0
   18.3003  -10.2940   10.1684 H   0  0  0  0  0  0  0  0  0  0  0  0
   16.5617   -9.9523    9.0189 C   0  0  0  0  0  0  0  0  0  0  0  0
   17.3441   -9.1814    8.0115 C   0  0  0  0  0  0  0  0  0  0  0  0
   17.8770   -9.7153    6.8455 C   0  0  0  0  0  0  0  0  0  0  0  0
   18.5373   -8.7036    6.2651 N   0  0  0  0  0  0  0  0  0  0  0  0
   19.2355   -8.6949    5.1031 C   0  0  0  0  0  0  0  0  0  0  0  0
   19.8497   -7.4957    4.7133 C   0  0  0  0  0  0  0  0  0  0  0  0
   19.7243   -6.3557    5.5299 C   0  0  0  0  0  0  0  0  0  0  0  0
   18.9913   -6.4121    6.7261 C   0  0  0  0  0  0  0  0  0  0  0  0
   18.4033   -7.6300    7.0592 C   0  0  0  0  0  0  0  0  0  0  0  0
   17.6738   -7.8761    8.1617 N   0  0  0  0  0  0  0  0  0  0  0  0
   18.0014   -8.1573   16.2772 S   0  0  0  0  0  0  0  0  0  0  0  0
   19.3100   -7.9541   16.9866 O   0  0  0  0  0  0  0  0  0  0  0  0
   17.5159   -6.8346   15.7525 O   0  0  0  0  0  0  0  0  0  0  0  0
   16.8389   -8.7949   17.3909 N   0  0  0  0  0  0  0  0  0  0  0  0
   16.1978   -8.0576   17.6839 H   0  0  0  0  0  0  0  0  0  0  0  0
   16.1040   -9.8477   16.7089 C   0  0  0  0  0  0  0  0  0  0  0  0
   16.9115  -11.0977   16.6867 C   0  0  0  0  0  0  0  0  0  0  0  0
   17.8900  -11.4338   17.5965 C   0  0  0  0  0  0  0  0  0  0  0  0
   18.3480  -12.6705   17.1771 C   0  0  0  0  0  0  0  0  0  0  0  0
   17.6185  -13.0012   16.0476 C   0  0  0  0  0  0  0  0  0  0  0  0
   16.7702  -12.0363   15.7882 O   0  0  0  0  0  0  0  0  0  0  0  0
  7  8  2  0  0  0
  8  9  1  0  0  0
  8  1  1  0  0  0
  9 11  1  0  0  0
 11 12  1  0  0  0
 12 13  2  0  0  0
 13 14  1  0  0  0
 14 15  1  0  0  0
 15 16  2  0  0  0
 16 17  1  0  0  0
 17 18  2  0  0  0
 18 19  1  0  0  0
 19 20  2  0  0  0
 19 14  1  0  0  0
 20 12  1  0  0  0
  1  2  2  0  0  0
  2  3  1  0  0  0
  3  4  2  0  0  0
  4  5  1  0  0  0
  5  6  2  0  0  0
  5 21  1  0  0  0
  6  1  1  0  0  0
 21 22  2  0  0  0
 21 23  2  0  0  0
 21 24  1  0  0  0
 24 26  1  0  0  0
 26 27  1  0  0  0
 27 28  2  0  0  0
 28 29  1  0  0  0
 29 30  2  0  0  0
 30 31  1  0  0  0
 31 27  1  0  0  0
  9 10  1  0  0  0
 24 25  1  0  0  0
M  END
>  <minimizedAffinity>
-0.99272

>  <minimizedRMSD>
2.96532

$$$$
15003612 CSSS00159565435 MCULE-5615516194 MolPort-005-155-159 PubChem-26359343 ZINC000015003612


 33 35  0  0  0  0  0  0  0  0999 V2000
   16.3151   -9.0171   16.0527 C   0  0  0  0  0  0  0  0  0  0  0  0
   17.2277  -10.0674   16.2005 C   0  0  0  0  0  0  0  0  0  0  0  0
   17.5906  -10.8344   15.1403 N   0  0  0  0  0  0  0  0  0  0  0  0
   17.0825  -10.6066   13.9013 C   0  0  0  0  0  0  0  0  0  0  0  0
   16.1651   -9.5745   13.6763 C   0  0  0  0  0  0  0  0  0  0  0  0
   15.7761   -8.7684   14.7701 C   0  0  0  0  0  0  0  0  0  0  0  0
   14.9518   -7.8286   14.6018 O   0  0  0  0  0  0  0  0  0  0  0  0
   15.6491   -9.3727   12.3005 C   0  0  0  0  0  0  0  0  0  0  0  0
   15.1058   -8.2835   11.9699 O   0  0  0  0  0  0  0  0  0  0  0  0
   15.7687  -10.4247   11.3359 N   0  0  0  0  0  0  0  0  0  0  0  0
   16.1505  -11.2853   11.6238 H   0  0  0  0  0  0  0  0  0  0  0  0
   15.3509  -10.2787    9.9484 C   0  0  0  0  0  0  0  0  0  0  0  0
   16.4446   -9.6642    9.1430 C   0  0  0  0  0  0  0  0  0  0  0  0
   17.6067   -9.1180    9.6696 C   0  0  0  0  0  0  0  0  0  0  0  0
   18.2866   -8.6392    8.6145 N   0  0  0  0  0  0  0  0  0  0  0  0
   17.5455   -8.8915    7.5220 C   0  0  0  0  0  0  0  0  0  0  0  0
   17.9773   -8.5085    6.2542 C   0  0  0  0  0  0  0  0  0  0  0  0
   19.2139   -7.8510    6.1630 C   0  0  0  0  0  0  0  0  0  0  0  0
   19.9749   -7.5954    7.3187 C   0  0  0  0  0  0  0  0  0  0  0  0
   19.4885   -8.0036    8.5685 C   0  0  0  0  0  0  0  0  0  0  0  0
   20.2804   -7.7383    9.8033 C   0  0  0  0  0  0  0  0  0  0  0  0
   16.3904   -9.5223    7.7979 N   0  0  0  0  0  0  0  0  0  0  0  0
   15.9593   -8.2139   17.2480 C   0  0  0  0  0  0  0  0  0  0  0  0
   16.8362   -7.9030   18.0999 O   0  0  0  0  0  0  0  0  0  0  0  0
   14.6065   -7.7833   17.4368 N   0  0  0  0  0  0  0  0  0  0  0  0
   13.9384   -8.0164   16.7523 H   0  0  0  0  0  0  0  0  0  0  0  0
   14.1762   -7.0162   18.5962 C   0  0  0  0  0  0  0  0  0  0  0  0
   12.8111   -6.4210   18.3248 C   0  0  0  0  0  0  0  0  0  0  0  0
   14.0918   -7.9186   19.8121 C   0  0  0  0  0  0  0  0  0  0  0  0
   18.5391  -11.9198   15.3367 C   0  0  0  0  0  0  0  0  0  0  0  0
   18.3334  -12.5802   16.6925 C   0  0  0  0  0  0  0  0  0  0  0  0
   19.5907  -13.3288   17.0800 C   0  0  0  0  0  0  0  0  0  0  0  0
   18.0323  -11.5342   17.7483 C   0  0  0  0  0  0  0  0  0  0  0  0
  1  2  2  0  0  0
  2  3  1  0  0  0
  3 30  1  0  0  0
 30 31  1  0  0  0
 31 32  1  0  0  0
 31 33  1  0  0  0
  3  4  1  0  0  0
  4  5  2  0  0  0
  5  8  1  0  0  0
  8  9  2  0  0  0
  8 10  1  0  0  0
 10 12  1  0  0  0
 12 13  1  0  0  0
 13 14  2  0  0  0
 14 15  1  0  0  0
 15 16  1  0  0  0
 16 17  1  0  0  0
 17 18  2  0  0  0
 18 19  1  0  0  0
 19 20  2  0  0  0
 20 21  1  0  0  0
 16 22  2  0  0  0
  5  6  1  0  0  0
  6  7  2  0  0  0
  1 23  1  0  0  0
 23 24  2  0  0  0
 23 25  1  0  0  0
 25 27  1  0  0  0
 27 28  1  0  0  0
 27 29  1  0  0  0
  6  1  1  0  0  0
 22 13  1  0  0  0
 20 15  1  0  0  0
 10 11  1  0  0  0
 25 26  1  0  0  0
M  END
>  <minimizedAffinity>
-0.98974

>  <minimizedRMSD>
1.64553

$$$$
1857682091 CSSS00160590109 MCULE-2509105251 MolPort-047-381-470 PubChem-145932786


 31 34  0  0  0  0  0  0  0  0999 V2000
   15.4958   -8.4175   17.0924 C   0  0  0  0  0  0  0  0  0  0  0  0
   16.4579   -8.6931   15.9377 C   0  0  0  0  0  0  0  0  0  0  0  0
   17.2350   -9.9847   16.1859 C   0  0  0  0  0  0  0  0  0  0  0  0
   18.0018   -9.8996   17.5041 C   0  0  0  0  0  0  0  0  0  0  0  0
   17.0359   -9.6364   18.6541 C   0  0  0  0  0  0  0  0  0  0  0  0
   16.2652   -8.3367   18.4157 C   0  0  0  0  0  0  0  0  0  0  0  0
   15.3350   -8.1087   19.5137 N   0  0  0  0  0  0  0  0  0  0  0  0
   15.6530   -7.2939   20.6459 C   0  0  0  0  0  0  0  0  0  0  0  0
   16.7758   -6.7258   20.7273 O   0  0  0  0  0  0  0  0  0  0  0  0
   14.4481   -8.5343   19.4747 H   0  0  0  0  0  0  0  0  0  0  0  0
   14.6658   -7.1495   21.7581 C   0  0  0  0  0  0  0  0  0  0  0  0
   15.1887   -6.1645   22.7881 C   0  0  0  0  0  0  0  0  0  0  0  0
   14.1327   -5.7286   21.7984 C   0  0  0  0  0  0  0  0  0  0  0  0
   18.1708  -10.2520   15.0547 C   0  0  0  0  0  0  0  0  0  0  0  0
   19.2649   -9.6285   14.9726 O   0  0  0  0  0  0  0  0  0  0  0  0
   17.8147  -11.2234   14.0692 N   0  0  0  0  0  0  0  0  0  0  0  0
   16.9790  -11.7305   14.1866 H   0  0  0  0  0  0  0  0  0  0  0  0
   18.6368  -11.4941   12.8986 C   0  0  0  0  0  0  0  0  0  0  0  0
   18.0917  -10.7779   11.7107 C   0  0  0  0  0  0  0  0  0  0  0  0
   18.8015   -9.8641   10.9409 C   0  0  0  0  0  0  0  0  0  0  0  0
   17.9314   -9.4354   10.0166 N   0  0  0  0  0  0  0  0  0  0  0  0
   18.1096   -8.5368    9.0189 C   0  0  0  0  0  0  0  0  0  0  0  0
   17.0092   -8.2678    8.1914 C   0  0  0  0  0  0  0  0  0  0  0  0
   15.8198   -8.9064    8.4158 N   0  0  0  0  0  0  0  0  0  0  0  0
   15.6671   -9.8072    9.4303 C   0  0  0  0  0  0  0  0  0  0  0  0
   16.7689  -10.0626   10.2395 C   0  0  0  0  0  0  0  0  0  0  0  0
   16.8113  -10.9062   11.2854 N   0  0  0  0  0  0  0  0  0  0  0  0
   14.8283   -7.2137   16.8543 O   0  0  0  0  0  0  0  0  0  0  0  0
   13.4724   -7.5503   16.8441 C   0  0  0  0  0  0  0  0  0  0  0  0
   12.6461   -7.8046   19.1778 C   0  0  0  0  0  0  0  0  0  0  0  0
   12.7595   -6.8635   17.9941 C   0  0  0  0  0  0  0  0  0  0  0  0
 30 31  1  0  0  0
 31 29  1  0  0  0
 29 28  1  0  0  0
  1 28  1  0  0  0
  1  2  1  0  0  0
  2  3  1  0  0  0
  3  4  1  0  0  0
  4  5  1  0  0  0
  5  6  1  0  0  0
  6  7  1  0  0  0
  7  8  1  0  0  0
  8  9  2  0  0  0
  8 11  1  0  0  0
 11 12  1  0  0  0
 12 13  1  0  0  0
  3 14  1  0  0  0
 14 15  2  0  0  0
 14 16  1  0  0  0
 16 18  1  0  0  0
 18 19  1  0  0  0
 19 20  2  0  0  0
 20 21  1  0  0  0
 21 22  1  0  0  0
 22 23  2  0  0  0
 23 24  1  0  0  0
 24 25  2  0  0  0
 25 26  1  0  0  0
 26 27  2  0  0  0
  6  1  1  0  0  0
 13 11  1  0  0  0
 27 19  1  0  0  0
 26 21  1  0  0  0
  7 10  1  0  0  0
 16 17  1  0  0  0
M  END
>  <minimizedAffinity>
-0.96615

>  <minimizedRMSD>
2.45611

$$$$
CSSS00534022589 Z2027626047


 31 35  0  0  0  0  0  0  0  0999 V2000
   17.0567   -9.6057   15.7502 C   0  0  0  0  0  0  0  0  0  0  0  0
   16.2337   -8.8999   16.7873 C   0  0  0  0  0  0  0  0  0  0  0  0
   16.6266   -8.9791   18.1435 C   0  0  0  0  0  0  0  0  0  0  0  0
   15.8889   -8.3222   19.1457 C   0  0  0  0  0  0  0  0  0  0  0  0
   14.7702   -7.5976   18.7443 C   0  0  0  0  0  0  0  0  0  0  0  0
   13.9267   -6.8983   19.5149 N   0  0  0  0  0  0  0  0  0  0  0  0
   13.0344   -6.3990   18.6185 C   0  0  0  0  0  0  0  0  0  0  0  0
   13.2903   -6.7585   17.3323 N   0  0  0  0  0  0  0  0  0  0  0  0
   14.3906   -7.5142   17.4432 C   0  0  0  0  0  0  0  0  0  0  0  0
   15.0940   -8.1489   16.4238 C   0  0  0  0  0  0  0  0  0  0  0  0
   13.9477   -6.7759   20.4915 H   0  0  0  0  0  0  0  0  0  0  0  0
   18.4880   -9.1653   15.7913 C   0  0  0  0  0  0  0  0  0  0  0  0
   18.9107   -8.1434   16.6557 C   0  0  0  0  0  0  0  0  0  0  0  0
   20.2550   -7.7616   16.6877 C   0  0  0  0  0  0  0  0  0  0  0  0
   21.1826   -8.4008   15.8601 C   0  0  0  0  0  0  0  0  0  0  0  0
   20.7665   -9.4226   15.0016 C   0  0  0  0  0  0  0  0  0  0  0  0
   19.4221   -9.8050   14.9689 C   0  0  0  0  0  0  0  0  0  0  0  0
   17.6556  -11.2128   13.4675 O   0  0  0  0  0  0  0  0  0  0  0  0
   16.8184  -10.2817   13.3146 C   0  0  0  0  0  0  0  0  0  0  0  0
   16.4979   -9.4250   14.4146 N   0  0  0  0  0  0  0  0  0  0  0  0
   15.8722   -8.6801   14.2636 H   0  0  0  0  0  0  0  0  0  0  0  0
   16.1764  -10.0815   12.0002 C   0  0  0  0  0  0  0  0  0  0  0  0
   14.7787  -10.2165   11.8507 C   0  0  0  0  0  0  0  0  0  0  0  0
   14.1742  -10.0198   10.5860 C   0  0  0  0  0  0  0  0  0  0  0  0
   14.9317   -9.6967    9.4938 N   0  0  0  0  0  0  0  0  0  0  0  0
   16.2707   -9.5708    9.6549 C   0  0  0  0  0  0  0  0  0  0  0  0
   17.1779   -9.2612    8.7209 N   0  0  0  0  0  0  0  0  0  0  0  0
   18.3437   -9.2578    9.3667 N   0  0  0  0  0  0  0  0  0  0  0  0
   18.2049   -9.5508   10.6602 N   0  0  0  0  0  0  0  0  0  0  0  0
   16.8904   -9.7499   10.8445 C   0  0  0  0  0  0  0  0  0  0  0  0
   18.9169   -9.6088   11.3377 H   0  0  0  0  0  0  0  0  0  0  0  0
 18 19  2  0  0  0
 19 20  1  0  0  0
 20  1  1  0  0  0
  1 12  1  0  0  0
 12 13  2  0  0  0
 13 14  1  0  0  0
 14 15  2  0  0  0
 15 16  1  0  0  0
 16 17  2  0  0  0
  1  2  1  0  0  0
  2  3  2  0  0  0
  3  4  1  0  0  0
  4  5  2  0  0  0
  5  6  1  0  0  0
  6  7  1  0  0  0
  7  8  2  0  0  0
  8  9  1  0  0  0
  9 10  2  0  0  0
 19 22  1  0  0  0
 22 23  2  0  0  0
 23 24  1  0  0  0
 24 25  2  0  0  0
 25 26  1  0  0  0
 26 27  1  0  0  0
 27 28  2  0  0  0
 28 29  1  0  0  0
 29 30  1  0  0  0
 17 12  1  0  0  0
 10  2  1  0  0  0
 30 22  1  0  0  0
  9  5  1  0  0  0
 30 26  2  0  0  0
 20 21  1  0  0  0
  6 11  1  0  0  0
 29 31  1  0  0  0
M  END
>  <minimizedAffinity>
-0.88560

>  <minimizedRMSD>
2.68084

$$$$
CSC027145046 70021409 CSSS00027145046 MCULE-7619535796 MolPort-020-163-136 PubChem-53625685 Z1132641991 ZINC000070021409


 25 27  0  0  0  0  0  0  0  0999 V2000
   14.9282   -8.1988   16.6213 C   0  0  0  0  0  0  0  0  0  0  0  0
   15.0266   -9.7233   16.5247 C   0  0  0  0  0  0  0  0  0  0  0  0
   15.0224  -10.1590   15.0619 C   0  0  0  0  0  0  0  0  0  0  0  0
   16.0618   -9.4388   14.3302 N   0  0  0  0  0  0  0  0  0  0  0  0
   16.0348   -7.9783   14.3899 C   0  0  0  0  0  0  0  0  0  0  0  0
   16.0627   -7.5253   15.8457 C   0  0  0  0  0  0  0  0  0  0  0  0
   17.1787  -10.1612   13.7765 C   0  0  0  0  0  0  0  0  0  0  0  0
   17.6042   -9.9922   12.4399 C   0  0  0  0  0  0  0  0  0  0  0  0
   18.7170  -10.7405   11.9939 C   0  0  0  0  0  0  0  0  0  0  0  0
   19.1698  -10.6100   10.6777 C   0  0  0  0  0  0  0  0  0  0  0  0
   18.5167   -9.7470    9.7941 C   0  0  0  0  0  0  0  0  0  0  0  0
   17.4063   -9.0154   10.2225 C   0  0  0  0  0  0  0  0  0  0  0  0
   16.9502   -9.1399   11.5376 C   0  0  0  0  0  0  0  0  0  0  0  0
   19.3407  -11.5997   12.8381 N   0  0  0  0  0  0  0  0  0  0  0  0
   18.9075  -11.7594   14.1134 C   0  0  0  0  0  0  0  0  0  0  0  0
   17.8414  -11.0512   14.5668 N   0  0  0  0  0  0  0  0  0  0  0  0
   13.7576   -6.7241   19.9420 N   0  0  0  0  0  0  0  0  0  0  0  0
   13.7609   -7.1478   18.5756 C   0  0  0  0  0  0  0  0  0  0  0  0
   14.9279   -7.7673   18.0175 N   0  0  0  0  0  0  0  0  0  0  0  0
   16.1130   -7.9653   18.8444 C   0  0  0  0  0  0  0  0  0  0  0  0
   12.7348   -6.9754   17.8619 O   0  0  0  0  0  0  0  0  0  0  0  0
   14.5654   -6.8652   20.4866 H   0  0  0  0  0  0  0  0  0  0  0  0
   12.5981   -4.6143   20.2210 C   0  0  0  0  0  0  0  0  0  0  0  0
   12.5996   -6.0920   20.5518 C   0  0  0  0  0  0  0  0  0  0  0  0
   12.6585   -6.2721   22.0541 C   0  0  0  0  0  0  0  0  0  0  0  0
 23 24  1  0  0  0
 24 17  1  0  0  0
 17 18  1  0  0  0
 18 19  1  0  0  0
 19  1  1  0  0  0
  1  2  1  0  0  0
  2  3  1  0  0  0
  3  4  1  0  0  0
  4  7  1  0  0  0
  7  8  1  0  0  0
  8  9  1  0  0  0
  9 10  2  0  0  0
 10 11  1  0  0  0
 11 12  2  0  0  0
 12 13  1  0  0  0
  9 14  1  0  0  0
 14 15  2  0  0  0
 15 16  1  0  0  0
  4  5  1  0  0  0
  5  6  1  0  0  0
 19 20  1  0  0  0
 18 21  2  0  0  0
 24 25  1  0  0  0
  6  1  1  0  0  0
 16  7  2  0  0  0
 13  8  2  0  0  0
 17 22  1  0  0  0
M  END
>  <minimizedAffinity>
-0.78238

>  <minimizedRMSD>
3.97344

$$$$
CSSS01194933399


 26 30  0  0  0  0  0  0  0  0999 V2000
   15.7004   -8.9713   13.6830 C   0  0  0  0  0  0  0  0  0  0  0  0
   15.6811  -10.0719   12.6154 C   0  0  0  0  0  0  0  0  0  0  0  0
   17.0154  -10.1896   11.8858 C   0  0  0  0  0  0  0  0  0  0  0  0
   17.4574   -8.8724   11.4360 N   0  0  0  0  0  0  0  0  0  0  0  0
   17.6107   -7.8370   12.4536 C   0  0  0  0  0  0  0  0  0  0  0  0
   16.2963   -7.6423   13.2032 C   0  0  0  0  0  0  0  0  0  0  0  0
   15.3340   -7.7673   16.2961 O   0  0  0  0  0  0  0  0  0  0  0  0
   16.0281   -8.8106   16.1663 C   0  0  0  0  0  0  0  0  0  0  0  0
   16.6322   -9.4204   17.2173 N   0  0  0  0  0  0  0  0  0  0  0  0
   17.2469  -10.4649   16.6326 C   0  0  0  0  0  0  0  0  0  0  0  0
   18.0252  -11.4387   17.2534 C   0  0  0  0  0  0  0  0  0  0  0  0
   18.5745  -12.4468   16.4406 C   0  0  0  0  0  0  0  0  0  0  0  0
   18.3358  -12.4564   15.0491 C   0  0  0  0  0  0  0  0  0  0  0  0
   17.5450  -11.4580   14.4530 C   0  0  0  0  0  0  0  0  0  0  0  0
   17.0141  -10.4720   15.2841 C   0  0  0  0  0  0  0  0  0  0  0  0
   16.2356   -9.4188   14.9724 N   0  0  0  0  0  0  0  0  0  0  0  0
   16.6231   -9.1635   18.1676 H   0  0  0  0  0  0  0  0  0  0  0  0
   17.9226   -8.6333   10.0936 C   0  0  0  0  0  0  0  0  0  0  0  0
   18.9525   -7.7596    9.8709 N   0  0  0  0  0  0  0  0  0  0  0  0
   19.4262   -7.4931    8.6154 C   0  0  0  0  0  0  0  0  0  0  0  0
   18.8465   -8.1237    7.5066 C   0  0  0  0  0  0  0  0  0  0  0  0
   17.8267   -8.9803    7.7468 N   0  0  0  0  0  0  0  0  0  0  0  0
   17.1352   -9.6651    6.8603 N   0  0  0  0  0  0  0  0  0  0  0  0
   16.2238  -10.3603    7.5841 C   0  0  0  0  0  0  0  0  0  0  0  0
   16.3334  -10.1199    8.9182 N   0  0  0  0  0  0  0  0  0  0  0  0
   17.3571   -9.2483    8.9656 C   0  0  0  0  0  0  0  0  0  0  0  0
  7  8  2  0  0  0
  8  9  1  0  0  0
  9 10  1  0  0  0
 10 11  2  0  0  0
 11 12  1  0  0  0
 12 13  2  0  0  0
 13 14  1  0  0  0
 14 15  2  0  0  0
 15 16  1  0  0  0
 16  1  1  0  0  0
  1  2  1  0  0  0
  2  3  1  0  0  0
  3  4  1  0  0  0
  4  5  1  0  0  0
  5  6  1  0  0  0
  4 18  1  0  0  0
 18 19  2  0  0  0
 19 20  1  0  0  0
 20 21  2  0  0  0
 21 22  1  0  0  0
 22 23  1  0  0  0
 23 24  2  0  0  0
 24 25  1  0  0  0
 25 26  2  0  0  0
 16  8  1  0  0  0
  6  1  1  0  0  0
 26 18  1  0  0  0
 15 10  1  0  0  0
 26 22  1  0  0  0
  9 17  1  0  0  0
M  END
>  <minimizedAffinity>
-0.78147

>  <minimizedRMSD>
1.05099

$$$$
CSC026317833 26739000 CSSS00026317833 MCULE-3586914332 MolPort-009-461-709 PubChem-34022565 Z240229092 ZINC000026739000


 37 40  0  0  0  0  0  0  0  0999 V2000
   16.0773   -8.6537   16.6141 C   0  0  0  0  0  0  0  0  0  0  0  0
   15.9050   -8.6285   15.2278 C   0  0  0  0  0  0  0  0  0  0  0  0
   16.8877   -9.1446   14.3770 C   0  0  0  0  0  0  0  0  0  0  0  0
   18.0867   -9.6522   14.9228 C   0  0  0  0  0  0  0  0  0  0  0  0
   18.2493   -9.6749   16.3180 C   0  0  0  0  0  0  0  0  0  0  0  0
   17.2492   -9.1830   17.1580 C   0  0  0  0  0  0  0  0  0  0  0  0
   16.6646   -9.0731   12.9635 N   0  0  0  0  0  0  0  0  0  0  0  0
   17.1172  -10.0340   12.0035 C   0  0  0  0  0  0  0  0  0  0  0  0
   17.4396  -11.1959   12.3748 O   0  0  0  0  0  0  0  0  0  0  0  0
   16.1584   -8.2997   12.6245 H   0  0  0  0  0  0  0  0  0  0  0  0
   17.0860   -9.7143   10.5667 C   0  0  0  0  0  0  0  0  0  0  0  0
   18.0427   -8.9124    9.9214 C   0  0  0  0  0  0  0  0  0  0  0  0
   17.9179   -8.6112    8.5927 C   0  0  0  0  0  0  0  0  0  0  0  0
   18.9661   -7.8843    8.1808 N   0  0  0  0  0  0  0  0  0  0  0  0
   19.7965   -7.7177    9.2022 N   0  0  0  0  0  0  0  0  0  0  0  0
   19.2551   -8.3313   10.2832 C   0  0  0  0  0  0  0  0  0  0  0  0
   19.9643   -8.4421   11.5872 C   0  0  0  0  0  0  0  0  0  0  0  0
   19.2193   -7.4038    6.8338 C   0  0  0  0  0  0  0  0  0  0  0  0
   16.8993   -9.0738    7.8262 N   0  0  0  0  0  0  0  0  0  0  0  0
   15.9496   -9.8686    8.4023 C   0  0  0  0  0  0  0  0  0  0  0  0
   14.8253  -10.3887    7.5813 C   0  0  0  0  0  0  0  0  0  0  0  0
   16.0282  -10.2018    9.7723 C   0  0  0  0  0  0  0  0  0  0  0  0
   14.8240   -8.0186   17.6648 S   0  0  0  0  0  0  0  0  0  0  0  0
   13.8974   -9.1218   18.0933 O   0  0  0  0  0  0  0  0  0  0  0  0
   14.0396   -6.9764   16.9196 O   0  0  0  0  0  0  0  0  0  0  0  0
   15.5339   -7.2947   19.0714 N   0  0  0  0  0  0  0  0  0  0  0  0
   16.4672   -6.9869   19.0128 H   0  0  0  0  0  0  0  0  0  0  0  0
   13.7337   -6.2580   20.3702 C   0  0  0  0  0  0  0  0  0  0  0  0
   14.8429   -7.1179   20.3136 C   0  0  0  0  0  0  0  0  0  0  0  0
   15.2606   -7.7886   21.4737 C   0  0  0  0  0  0  0  0  0  0  0  0
   14.5849   -7.6034   22.6821 C   0  0  0  0  0  0  0  0  0  0  0  0
   13.4830   -6.7481   22.7399 C   0  0  0  0  0  0  0  0  0  0  0  0
   13.0580   -6.0783   21.5897 C   0  0  0  0  0  0  0  0  0  0  0  0
   12.1316   -4.8191   19.1471 C   0  0  0  0  0  0  0  0  0  0  0  0
   13.3224   -5.5926   19.2097 O   0  0  0  0  0  0  0  0  0  0  0  0
   19.1118  -10.0907   14.0767 O   0  0  0  0  0  0  0  0  0  0  0  0
   19.6308  -11.4136   14.1151 C   0  0  0  0  0  0  0  0  0  0  0  0
 34 35  1  0  0  0
 35 28  1  0  0  0
 28 29  2  0  0  0
 29 26  1  0  0  0
 26 23  1  0  0  0
 23  1  1  0  0  0
  1  2  2  0  0  0
  2  3  1  0  0  0
  3  7  1  0  0  0
  7  8  1  0  0  0
  8 11  1  0  0  0
 11 12  1  0  0  0
 12 13  2  0  0  0
 13 14  1  0  0  0
 14 15  1  0  0  0
 15 16  2  0  0  0
 16 17  1  0  0  0
 14 18  1  0  0  0
 13 19  1  0  0  0
 19 20  2  0  0  0
 20 21  1  0  0  0
 20 22  1  0  0  0
  8  9  2  0  0  0
  3  4  2  0  0  0
  4 36  1  0  0  0
 36 37  1  0  0  0
  4  5  1  0  0  0
  5  6  2  0  0  0
 23 24  2  0  0  0
 23 25  2  0  0  0
 29 30  1  0  0  0
 30 31  2  0  0  0
 31 32  1  0  0  0
 32 33  2  0  0  0
 33 28  1  0  0  0
  6  1  1  0  0  0
 22 11  2  0  0  0
 16 12  1  0  0  0
 26 27  1  0  0  0
  7 10  1  0  0  0
M  END
>  <minimizedAffinity>
-0.74432

>  <minimizedRMSD>
2.96487

$$$$
67691534 CSSS00105429996 MCULE-3077971271 MolPort-019-812-711 PubChem-56712853 ZINC000067691534


 25 28  0  0  0  0  0  0  0  0999 V2000
   17.6181   -9.0971   14.4292 C   0  0  0  0  0  0  0  0  0  0  0  0
   16.2641   -8.9007   13.7457 C   0  0  0  0  0  0  0  0  0  0  0  0
   16.4489   -8.1993   12.4036 C   0  0  0  0  0  0  0  0  0  0  0  0
   17.4218   -8.9334   11.5981 N   0  0  0  0  0  0  0  0  0  0  0  0
   18.7398   -9.1482   12.1917 C   0  0  0  0  0  0  0  0  0  0  0  0
   18.5861   -9.8664   13.5283 C   0  0  0  0  0  0  0  0  0  0  0  0
   17.0258   -9.4985   10.3303 C   0  0  0  0  0  0  0  0  0  0  0  0
   16.0628  -10.4691   10.3035 N   0  0  0  0  0  0  0  0  0  0  0  0
   15.6433  -11.0473    9.1401 C   0  0  0  0  0  0  0  0  0  0  0  0
   16.1791  -10.6658    7.9490 N   0  0  0  0  0  0  0  0  0  0  0  0
   17.1314   -9.7051    7.9426 C   0  0  0  0  0  0  0  0  0  0  0  0
   17.9083   -9.0783    6.5968 S   0  0  0  0  0  0  0  0  0  0  0  0
   18.8419   -7.9995    7.5025 C   0  0  0  0  0  0  0  0  0  0  0  0
   19.8308   -7.0515    6.9270 C   0  0  0  0  0  0  0  0  0  0  0  0
   18.5553   -8.1177    8.8610 C   0  0  0  0  0  0  0  0  0  0  0  0
   17.5810   -9.0963    9.1002 C   0  0  0  0  0  0  0  0  0  0  0  0
   18.0003  -10.9764   16.0836 N   0  0  0  0  0  0  0  0  0  0  0  0
   17.5434  -11.1731   17.3308 C   0  0  0  0  0  0  0  0  0  0  0  0
   17.8145  -12.1838   18.0318 O   0  0  0  0  0  0  0  0  0  0  0  0
   16.7568  -10.1656   17.7489 N   0  0  0  0  0  0  0  0  0  0  0  0
   16.6975   -9.2967   16.7477 N   0  0  0  0  0  0  0  0  0  0  0  0
   17.4495   -9.7927   15.7436 C   0  0  0  0  0  0  0  0  0  0  0  0
   16.3130  -10.0881   18.6242 H   0  0  0  0  0  0  0  0  0  0  0  0
   18.8402  -11.8609   15.2857 C   0  0  0  0  0  0  0  0  0  0  0  0
   18.0070  -12.9890   14.7076 C   0  0  0  0  0  0  0  0  0  0  0  0
 17 24  1  0  0  0
 24 25  1  0  0  0
 17 18  1  0  0  0
 18 19  2  0  0  0
 18 20  1  0  0  0
 20 21  1  0  0  0
 21 22  2  0  0  0
 22  1  1  0  0  0
  1  2  1  0  0  0
  2  3  1  0  0  0
  3  4  1  0  0  0
  4  5  1  0  0  0
  5  6  1  0  0  0
  4  7  1  0  0  0
  7  8  2  0  0  0
  8  9  1  0  0  0
  9 10  2  0  0  0
 10 11  1  0  0  0
 11 12  1  0  0  0
 12 13  1  0  0  0
 13 14  1  0  0  0
 13 15  2  0  0  0
 15 16  1  0  0  0
 22 17  1  0  0  0
  6  1  1  0  0  0
 16  7  1  0  0  0
 16 11  2  0  0  0
 20 23  1  0  0  0
M  END
>  <minimizedAffinity>
-0.72358

>  <minimizedRMSD>
1.96402

$$$$
CSSS00159569306 MCULE-6928104370 MolPort-005-158-946


 38 41  0  0  0  0  0  0  0  0999 V2000
   15.5853   -8.0200   17.1849 C   0  0  0  0  0  0  0  0  0  0  0  0
   16.9096   -8.3673   17.4740 C   0  0  0  0  0  0  0  0  0  0  0  0
   17.7531   -8.7853   16.4952 N   0  0  0  0  0  0  0  0  0  0  0  0
   17.3434   -8.8751   15.2035 C   0  0  0  0  0  0  0  0  0  0  0  0
   16.0334   -8.5454   14.8384 C   0  0  0  0  0  0  0  0  0  0  0  0
   15.1419   -8.1119   15.8460 C   0  0  0  0  0  0  0  0  0  0  0  0
   13.9537   -7.8077   15.5511 O   0  0  0  0  0  0  0  0  0  0  0  0
   14.2137   -7.5204   20.7705 C   0  0  0  0  0  0  0  0  0  0  0  0
   15.0316   -7.9343   19.6429 N   0  0  0  0  0  0  0  0  0  0  0  0
   14.7113   -7.5710   18.2966 C   0  0  0  0  0  0  0  0  0  0  0  0
   13.6874   -6.8706   18.0682 O   0  0  0  0  0  0  0  0  0  0  0  0
   15.8320   -8.4825   19.8107 H   0  0  0  0  0  0  0  0  0  0  0  0
   15.6447   -8.6628   13.4118 C   0  0  0  0  0  0  0  0  0  0  0  0
   15.2516   -7.6531   12.7661 O   0  0  0  0  0  0  0  0  0  0  0  0
   15.7145   -9.9362   12.7597 N   0  0  0  0  0  0  0  0  0  0  0  0
   15.9918  -10.7202   13.2867 H   0  0  0  0  0  0  0  0  0  0  0  0
   15.3935  -10.1222   11.3515 C   0  0  0  0  0  0  0  0  0  0  0  0
   15.2341  -11.6014   11.0593 C   0  0  0  0  0  0  0  0  0  0  0  0
   16.4708   -9.5439   10.4918 C   0  0  0  0  0  0  0  0  0  0  0  0
   16.3225   -9.3893    9.1504 N   0  0  0  0  0  0  0  0  0  0  0  0
   17.4905   -8.8374    8.7932 C   0  0  0  0  0  0  0  0  0  0  0  0
   17.8962   -8.4580    7.5163 C   0  0  0  0  0  0  0  0  0  0  0  0
   19.1784   -7.8920    7.3855 C   0  0  0  0  0  0  0  0  0  0  0  0
   19.6653   -7.4691    6.0469 C   0  0  0  0  0  0  0  0  0  0  0  0
   20.0056   -7.7232    8.5189 C   0  0  0  0  0  0  0  0  0  0  0  0
   19.5615   -8.1180    9.7947 C   0  0  0  0  0  0  0  0  0  0  0  0
   18.2883   -8.6747    9.8844 C   0  0  0  0  0  0  0  0  0  0  0  0
   17.6641   -9.1156   10.9853 N   0  0  0  0  0  0  0  0  0  0  0  0
   17.9872   -9.1268   11.9152 H   0  0  0  0  0  0  0  0  0  0  0  0
   19.1242   -9.1239   16.8349 C   0  0  0  0  0  0  0  0  0  0  0  0
   19.1551  -10.3729   17.7023 C   0  0  0  0  0  0  0  0  0  0  0  0
   18.1499  -11.3957   17.1949 C   0  0  0  0  0  0  0  0  0  0  0  0
   18.3694  -11.7004   15.7494 C   0  0  0  0  0  0  0  0  0  0  0  0
   19.1546  -10.8420   14.9720 C   0  0  0  0  0  0  0  0  0  0  0  0
   19.3718  -11.1228   13.6195 C   0  0  0  0  0  0  0  0  0  0  0  0
   18.8079  -12.2650   13.0430 C   0  0  0  0  0  0  0  0  0  0  0  0
   18.0286  -13.1284   13.8194 C   0  0  0  0  0  0  0  0  0  0  0  0
   17.8106  -12.8479   15.1717 C   0  0  0  0  0  0  0  0  0  0  0  0
  8  9  1  0  0  0
  9 10  1  0  0  0
 10 11  2  0  0  0
 10  1  1  0  0  0
  1  2  2  0  0  0
  2  3  1  0  0  0
  3 30  1  0  0  0
  3  4  1  0  0  0
 30 31  1  0  0  0
 31 32  1  0  0  0
 32 33  1  0  0  0
 33 34  2  0  0  0
 34 35  1  0  0  0
 35 36  2  0  0  0
 36 37  1  0  0  0
 37 38  2  0  0  0
 38 33  1  0  0  0
  4  5  2  0  0  0
  5 13  1  0  0  0
  5  6  1  0  0  0
 13 14  2  0  0  0
 13 15  1  0  0  0
 17 15  1  0  0  0
 17 18  1  0  0  0
 17 19  1  0  0  0
 19 20  2  0  0  0
 20 21  1  0  0  0
 21 22  2  0  0  0
 22 23  1  0  0  0
 23 24  1  0  0  0
 23 25  2  0  0  0
 25 26  1  0  0  0
 26 27  2  0  0  0
 27 28  1  0  0  0
 27 21  1  0  0  0
 28 19  1  0  0  0
  6  7  2  0  0  0
  6  1  1  0  0  0
  9 12  1  0  0  0
 15 16  1  0  0  0
 28 29  1  0  0  0
M  END
>  <minimizedAffinity>
-0.71911

>  <minimizedRMSD>
3.17609

$$$$
2100544734 CSSS06359894733 MCULE-8524180202 MolPort-047-961-828 PubChem-157018407


 32 36  0  0  0  0  0  0  0  0999 V2000
   16.2702   -8.8773   14.1295 C   0  0  0  0  0  0  0  0  0  0  0  0
   17.7284   -9.3516   14.1415 C   0  0  0  0  0  0  0  0  0  0  0  0
   16.9917   -9.1440   12.8174 C   0  0  0  0  0  0  0  0  0  0  0  0
   17.5418   -8.0322   11.9606 C   0  0  0  0  0  0  0  0  0  0  0  0
   17.5592   -8.6058   10.6271 N   0  0  0  0  0  0  0  0  0  0  0  0
   17.0608   -9.9779   10.5729 C   0  0  0  0  0  0  0  0  0  0  0  0
   16.5801  -10.3402   11.9725 C   0  0  0  0  0  0  0  0  0  0  0  0
   15.1899  -10.4633   11.9577 O   0  0  0  0  0  0  0  0  0  0  0  0
   18.0715   -7.8769    9.4973 C   0  0  0  0  0  0  0  0  0  0  0  0
   18.5986   -6.7474    9.6877 O   0  0  0  0  0  0  0  0  0  0  0  0
   14.7959   -9.6407   11.6276 H   0  0  0  0  0  0  0  0  0  0  0  0
   17.9973   -8.4014    8.1126 C   0  0  0  0  0  0  0  0  0  0  0  0
   17.0384   -9.2582    7.5777 C   0  0  0  0  0  0  0  0  0  0  0  0
   17.3190   -9.4858    6.2670 N   0  0  0  0  0  0  0  0  0  0  0  0
   18.4322   -8.7637    6.0408 C   0  0  0  0  0  0  0  0  0  0  0  0
   19.1219   -8.6622    4.8387 C   0  0  0  0  0  0  0  0  0  0  0  0
   20.2647   -7.8481    4.8271 C   0  0  0  0  0  0  0  0  0  0  0  0
   20.6643   -7.1798    6.0002 C   0  0  0  0  0  0  0  0  0  0  0  0
   19.9360   -7.3282    7.1433 N   0  0  0  0  0  0  0  0  0  0  0  0
   18.8554   -8.1069    7.1246 N   0  0  0  0  0  0  0  0  0  0  0  0
   17.8285  -10.7862   14.5844 C   0  0  0  0  0  0  0  0  0  0  0  0
   17.6622  -11.1268   15.9351 C   0  0  0  0  0  0  0  0  0  0  0  0
   17.8109  -12.4530   16.3512 C   0  0  0  0  0  0  0  0  0  0  0  0
   18.1433  -13.4437   15.4231 C   0  0  0  0  0  0  0  0  0  0  0  0
   18.3345  -13.1075   14.0801 C   0  0  0  0  0  0  0  0  0  0  0  0
   18.1860  -11.7814   13.6635 C   0  0  0  0  0  0  0  0  0  0  0  0
   16.2147   -7.3966   14.4781 C   0  0  0  0  0  0  0  0  0  0  0  0
   15.3216   -7.9628   18.2093 C   0  0  0  0  0  0  0  0  0  0  0  0
   15.4118   -8.1945   16.7445 C   0  0  0  0  0  0  0  0  0  0  0  0
   14.9119   -9.2384   16.2474 O   0  0  0  0  0  0  0  0  0  0  0  0
   16.0606   -7.2281   15.9156 N   0  0  0  0  0  0  0  0  0  0  0  0
   16.4190   -6.4128   16.3351 H   0  0  0  0  0  0  0  0  0  0  0  0
 28 29  1  0  0  0
 29 30  2  0  0  0
 29 31  1  0  0  0
 31 27  1  0  0  0
  1 27  1  0  0  0
  1  2  1  0  0  0
  2 21  1  0  0  0
 21 22  2  0  0  0
 22 23  1  0  0  0
 23 24  2  0  0  0
 24 25  1  0  0  0
 25 26  2  0  0  0
  2  3  1  0  0  0
  3  4  1  0  0  0
  4  5  1  0  0  0
  5  6  1  0  0  0
  6  7  1  0  0  0
  7  8  1  0  0  0
  5  9  1  0  0  0
  9 10  2  0  0  0
  9 12  1  0  0  0
 12 13  2  0  0  0
 13 14  1  0  0  0
 14 15  2  0  0  0
 15 16  1  0  0  0
 16 17  2  0  0  0
 17 18  1  0  0  0
 18 19  2  0  0  0
 19 20  1  0  0  0
  3  1  1  0  0  0
  7  3  1  0  0  0
 20 12  1  0  0  0
 26 21  1  0  0  0
 20 15  1  0  0  0
 31 32  1  0  0  0
  8 11  1  0  0  0
M  END
>  <minimizedAffinity>
-0.70622

>  <minimizedRMSD>
2.54992

$$$$
CSC027637570 CSSS00027637570 MCULE-8578307166 MolPort-023-246-479 PubChem-71849157 Z1429124042


 32 36  0  0  0  0  0  0  0  0999 V2000
   16.1070   -9.3281   12.6709 C   0  0  0  0  0  0  0  0  0  0  0  0
   15.1316   -8.5280   12.7055 O   0  0  0  0  0  0  0  0  0  0  0  0
   16.3019  -10.1389   11.4975 N   0  0  0  0  0  0  0  0  0  0  0  0
   17.0020  -11.4233   11.5594 C   0  0  0  0  0  0  0  0  0  0  0  0
   16.1408  -12.5156   10.9386 C   0  0  0  0  0  0  0  0  0  0  0  0
   15.7636  -12.1236    9.5156 C   0  0  0  0  0  0  0  0  0  0  0  0
   14.9750  -10.8151    9.5214 C   0  0  0  0  0  0  0  0  0  0  0  0
   15.7504   -9.6896   10.2158 C   0  0  0  0  0  0  0  0  0  0  0  0
   16.8204   -9.1141    9.3411 C   0  0  0  0  0  0  0  0  0  0  0  0
   16.7353   -9.0540    7.9842 N   0  0  0  0  0  0  0  0  0  0  0  0
   17.9060   -8.4817    7.6592 C   0  0  0  0  0  0  0  0  0  0  0  0
   18.3781   -8.1673    6.3877 C   0  0  0  0  0  0  0  0  0  0  0  0
   19.6484   -7.5662    6.3014 C   0  0  0  0  0  0  0  0  0  0  0  0
   20.3997   -7.3008    7.4695 C   0  0  0  0  0  0  0  0  0  0  0  0
   19.8907   -7.6332    8.7392 C   0  0  0  0  0  0  0  0  0  0  0  0
   18.6319   -8.2254    8.7830 C   0  0  0  0  0  0  0  0  0  0  0  0
   17.9500   -8.6222    9.8223 O   0  0  0  0  0  0  0  0  0  0  0  0
   17.3901   -9.0532   16.2277 C   0  0  0  0  0  0  0  0  0  0  0  0
   18.7280   -9.4241   16.0648 C   0  0  0  0  0  0  0  0  0  0  0  0
   19.2169   -9.7674   14.8024 C   0  0  0  0  0  0  0  0  0  0  0  0
   18.3666   -9.7448   13.6944 C   0  0  0  0  0  0  0  0  0  0  0  0
   17.0184   -9.3879   13.8380 C   0  0  0  0  0  0  0  0  0  0  0  0
   16.5431   -9.0336   15.1095 C   0  0  0  0  0  0  0  0  0  0  0  0
   14.9392   -7.5984   16.9557 O   0  0  0  0  0  0  0  0  0  0  0  0
   15.7227   -7.9931   17.8615 C   0  0  0  0  0  0  0  0  0  0  0  0
   15.4178   -7.7365   19.2324 N   0  0  0  0  0  0  0  0  0  0  0  0
   16.9258   -8.7016   17.5384 N   0  0  0  0  0  0  0  0  0  0  0  0
   16.0398   -8.0541   19.9263 H   0  0  0  0  0  0  0  0  0  0  0  0
   17.4928   -8.9757   18.2951 H   0  0  0  0  0  0  0  0  0  0  0  0
   14.2185   -7.0214   19.6367 C   0  0  0  0  0  0  0  0  0  0  0  0
   13.4763   -7.8365   20.6757 C   0  0  0  0  0  0  0  0  0  0  0  0
   14.3263   -6.6589   21.1029 C   0  0  0  0  0  0  0  0  0  0  0  0
 24 25  2  0  0  0
 25 26  1  0  0  0
 25 27  1  0  0  0
 26 30  1  0  0  0
 30 31  1  0  0  0
 31 32  1  0  0  0
 32 30  1  0  0  0
 27 18  1  0  0  0
 18 19  2  0  0  0
 19 20  1  0  0  0
 20 21  2  0  0  0
 21 22  1  0  0  0
 22 23  2  0  0  0
 22  1  1  0  0  0
 23 18  1  0  0  0
  1  2  2  0  0  0
  1  3  1  0  0  0
  3  4  1  0  0  0
  4  5  1  0  0  0
  5  6  1  0  0  0
  6  7  1  0  0  0
  7  8  1  0  0  0
  8  9  1  0  0  0
  8  3  1  0  0  0
  9 10  2  0  0  0
 10 11  1  0  0  0
 11 12  2  0  0  0
 12 13  1  0  0  0
 13 14  2  0  0  0
 14 15  1  0  0  0
 15 16  2  0  0  0
 16 17  1  0  0  0
 16 11  1  0  0  0
 17  9  1  0  0  0
 26 28  1  0  0  0
 27 29  1  0  0  0
M  END
>  <minimizedAffinity>
-0.68785

>  <minimizedRMSD>
1.38707

$$$$
14536938 CSSS00160429699 MCULE-4331756542 MolPort-004-981-970 PubChem-26140444 ZINC000014536938


 33 36  0  0  0  0  0  0  0  0999 V2000
   16.9869   -9.4271   15.3615 C   0  0  0  0  0  0  0  0  0  0  0  0
   16.8772   -8.3961   14.2865 C   0  0  0  0  0  0  0  0  0  0  0  0
   17.2826   -8.9858   13.0046 N   0  0  0  0  0  0  0  0  0  0  0  0
   18.4555   -9.8727   12.9716 C   0  0  0  0  0  0  0  0  0  0  0  0
   18.2907  -11.0618   13.9329 C   0  0  0  0  0  0  0  0  0  0  0  0
   17.6439  -10.6184   15.2095 C   0  0  0  0  0  0  0  0  0  0  0  0
   17.5403  -11.3164   16.3536 N   0  0  0  0  0  0  0  0  0  0  0  0
   16.8574  -10.6117   17.2451 N   0  0  0  0  0  0  0  0  0  0  0  0
   16.5083   -9.4425   16.6608 C   0  0  0  0  0  0  0  0  0  0  0  0
   18.0769  -12.6419   16.6086 C   0  0  0  0  0  0  0  0  0  0  0  0
   16.7313   -8.4623   11.7834 C   0  0  0  0  0  0  0  0  0  0  0  0
   16.1029   -7.3684   11.8095 O   0  0  0  0  0  0  0  0  0  0  0  0
   16.8489   -9.2027   10.5001 C   0  0  0  0  0  0  0  0  0  0  0  0
   16.1225  -10.3899   10.3409 C   0  0  0  0  0  0  0  0  0  0  0  0
   16.1818  -11.0972    9.1409 C   0  0  0  0  0  0  0  0  0  0  0  0
   15.4089  -12.3566    8.9854 C   0  0  0  0  0  0  0  0  0  0  0  0
   16.9415  -10.6372    8.1138 N   0  0  0  0  0  0  0  0  0  0  0  0
   17.6612   -9.4901    8.2182 C   0  0  0  0  0  0  0  0  0  0  0  0
   18.4341   -9.0583    7.1366 C   0  0  0  0  0  0  0  0  0  0  0  0
   19.1875   -7.8863    7.2355 C   0  0  0  0  0  0  0  0  0  0  0  0
   19.9348   -7.4720    6.1847 F   0  0  0  0  0  0  0  0  0  0  0  0
   19.1739   -7.1430    8.4179 C   0  0  0  0  0  0  0  0  0  0  0  0
   18.4031   -7.5668    9.5036 C   0  0  0  0  0  0  0  0  0  0  0  0
   17.6332   -8.7380    9.4186 C   0  0  0  0  0  0  0  0  0  0  0  0
   15.7305   -8.3927   17.3332 C   0  0  0  0  0  0  0  0  0  0  0  0
   15.8091   -8.2564   18.7546 N   0  0  0  0  0  0  0  0  0  0  0  0
   15.0004   -7.6150   16.6608 O   0  0  0  0  0  0  0  0  0  0  0  0
   16.4052   -8.8597   19.2545 H   0  0  0  0  0  0  0  0  0  0  0  0
   15.0439   -7.2624   19.4923 C   0  0  0  0  0  0  0  0  0  0  0  0
   13.6839   -7.8227   19.8618 C   0  0  0  0  0  0  0  0  0  0  0  0
   12.7678   -6.6909   20.2764 C   0  0  0  0  0  0  0  0  0  0  0  0
   11.6220   -6.7057   19.4827 O   0  0  0  0  0  0  0  0  0  0  0  0
   10.9888   -5.4950   19.7592 C   0  0  0  0  0  0  0  0  0  0  0  0
  1  2  1  0  0  0
  2  3  1  0  0  0
  3  4  1  0  0  0
  4  5  1  0  0  0
  5  6  1  0  0  0
  6  7  1  0  0  0
  7  8  1  0  0  0
  8  9  2  0  0  0
  9 25  1  0  0  0
 25 26  1  0  0  0
 26 29  1  0  0  0
 29 30  1  0  0  0
 30 31  1  0  0  0
 31 32  1  0  0  0
 32 33  1  0  0  0
 25 27  2  0  0  0
  7 10  1  0  0  0
  3 11  1  0  0  0
 11 12  2  0  0  0
 11 13  1  0  0  0
 13 14  2  0  0  0
 14 15  1  0  0  0
 15 16  1  0  0  0
 15 17  2  0  0  0
 17 18  1  0  0  0
 18 19  2  0  0  0
 19 20  1  0  0  0
 20 21  1  0  0  0
 20 22  2  0  0  0
 22 23  1  0  0  0
 23 24  2  0  0  0
  6  1  2  0  0  0
 24 13  1  0  0  0
  9  1  1  0  0  0
 24 18  1  0  0  0
 26 28  1  0  0  0
M  END
>  <minimizedAffinity>
-0.67898

>  <minimizedRMSD>
1.00162

$$$$
CSSS14948278317


 29 32  0  0  0  0  0  0  0  0999 V2000
   16.3172  -10.5714   14.0821 C   0  0  0  0  0  0  0  0  0  0  0  0
   17.6720  -11.1422   13.6499 C   0  0  0  0  0  0  0  0  0  0  0  0
   18.5881  -10.0549   13.0903 C   0  0  0  0  0  0  0  0  0  0  0  0
   17.8893   -9.2980   12.0530 N   0  0  0  0  0  0  0  0  0  0  0  0
   16.6131   -8.6879   12.4174 C   0  0  0  0  0  0  0  0  0  0  0  0
   15.6631   -9.7520   12.9644 C   0  0  0  0  0  0  0  0  0  0  0  0
   18.5612   -8.9545   10.8243 C   0  0  0  0  0  0  0  0  0  0  0  0
   19.9311   -8.6307   10.8217 C   0  0  0  0  0  0  0  0  0  0  0  0
   20.5588   -8.3049    9.6055 C   0  0  0  0  0  0  0  0  0  0  0  0
   22.2604   -7.8970    9.5897 Cl  0  0  0  0  0  0  0  0  0  0  0  0
   19.8520   -8.3090    8.4396 N   0  0  0  0  0  0  0  0  0  0  0  0
   18.5365   -8.6307    8.4798 C   0  0  0  0  0  0  0  0  0  0  0  0
   17.6471   -8.7245    7.4426 C   0  0  0  0  0  0  0  0  0  0  0  0
   16.4517   -9.1205    8.0323 C   0  0  0  0  0  0  0  0  0  0  0  0
   16.6524   -9.2475    9.3695 N   0  0  0  0  0  0  0  0  0  0  0  0
   17.9162   -8.9425    9.6221 N   0  0  0  0  0  0  0  0  0  0  0  0
   17.8912   -8.4870    6.0467 C   0  0  0  0  0  0  0  0  0  0  0  0
   18.0882   -8.2958    4.9226 N   0  0  0  0  0  0  0  0  0  0  0  0
   15.9327   -8.6810   17.0641 C   0  0  0  0  0  0  0  0  0  0  0  0
   15.3546   -9.2042   15.9653 N   0  0  0  0  0  0  0  0  0  0  0  0
   16.4011   -9.8138   15.3721 C   0  0  0  0  0  0  0  0  0  0  0  0
   17.5441   -9.6707   16.0660 N   0  0  0  0  0  0  0  0  0  0  0  0
   17.2485   -8.9543   17.1363 N   0  0  0  0  0  0  0  0  0  0  0  0
   17.8694   -8.6752   17.8475 H   0  0  0  0  0  0  0  0  0  0  0  0
   14.8646   -7.2737   20.4879 C   0  0  0  0  0  0  0  0  0  0  0  0
   15.5521   -8.0252   19.4515 N   0  0  0  0  0  0  0  0  0  0  0  0
   15.2077   -7.8997   18.0708 C   0  0  0  0  0  0  0  0  0  0  0  0
   14.2834   -7.1203   17.7134 O   0  0  0  0  0  0  0  0  0  0  0  0
   16.2771   -8.6396   19.7087 H   0  0  0  0  0  0  0  0  0  0  0  0
 25 26  1  0  0  0
 26 27  1  0  0  0
 27 28  2  0  0  0
 27 19  1  0  0  0
 19 20  2  0  0  0
 20 21  1  0  0  0
 21 22  2  0  0  0
 22 23  1  0  0  0
 21  1  1  0  0  0
  1  2  1  0  0  0
  2  3  1  0  0  0
  3  4  1  0  0  0
  4  5  1  0  0  0
  5  6  1  0  0  0
  4  7  1  0  0  0
  7  8  2  0  0  0
  8  9  1  0  0  0
  9 10  1  0  0  0
  9 11  2  0  0  0
 11 12  1  0  0  0
 12 13  2  0  0  0
 13 14  1  0  0  0
 14 15  2  0  0  0
 15 16  1  0  0  0
 13 17  1  0  0  0
 17 18  3  0  0  0
 23 19  1  0  0  0
  6  1  1  0  0  0
 16  7  1  0  0  0
 16 12  1  0  0  0
 26 29  1  0  0  0
 23 24  1  0  0  0
M  END
>  <minimizedAffinity>
-0.67803

>  <minimizedRMSD>
1.78851

$$$$
253401299 CSSS00160615974 MolPort-039-058-131 PubChem-110208207 ZINC000253401299


 39 43  0  0  0  0  0  0  0  0999 V2000
   15.7212   -6.8720   20.2617 C   0  0  0  0  0  0  0  0  0  0  0  0
   14.4176   -6.3056   20.2816 C   0  0  0  0  0  0  0  0  0  0  0  0
   14.0136   -5.4884   21.3339 O   0  0  0  0  0  0  0  0  0  0  0  0
   13.5095   -6.5548   19.2263 C   0  0  0  0  0  0  0  0  0  0  0  0
   12.1329   -5.9770   19.2760 C   0  0  0  0  0  0  0  0  0  0  0  0
   13.8889   -7.3528   18.1331 C   0  0  0  0  0  0  0  0  0  0  0  0
   12.9832   -7.6456   17.1182 O   0  0  0  0  0  0  0  0  0  0  0  0
   15.1892   -7.8596   18.0931 C   0  0  0  0  0  0  0  0  0  0  0  0
   16.0657   -7.6498   19.1437 C   0  0  0  0  0  0  0  0  0  0  0  0
   17.2732   -8.2976   18.9303 O   0  0  0  0  0  0  0  0  0  0  0  0
   17.1921   -8.8853   17.6763 C   0  0  0  0  0  0  0  0  0  0  0  0
   18.2525   -9.3078   16.9889 C   0  0  0  0  0  0  0  0  0  0  0  0
   18.1110   -9.5748   15.5458 C   0  0  0  0  0  0  0  0  0  0  0  0
   19.0089  -10.2399   14.9646 O   0  0  0  0  0  0  0  0  0  0  0  0
   16.9345   -9.0043   14.8048 C   0  0  0  0  0  0  0  0  0  0  0  0
   16.8326   -9.0606   13.4524 C   0  0  0  0  0  0  0  0  0  0  0  0
   15.6083   -8.5706   12.7391 C   0  0  0  0  0  0  0  0  0  0  0  0
   15.8822   -8.3740   15.6662 C   0  0  0  0  0  0  0  0  0  0  0  0
   15.0831   -7.5094   15.2144 O   0  0  0  0  0  0  0  0  0  0  0  0
   15.8037   -8.8129   17.1065 C   0  0  0  0  0  0  0  0  0  0  0  0
   15.1265  -10.1726   17.2051 C   0  0  0  0  0  0  0  0  0  0  0  0
   14.6011   -5.3117   22.0421 H   0  0  0  0  0  0  0  0  0  0  0  0
   12.1126   -7.3010   17.1534 H   0  0  0  0  0  0  0  0  0  0  0  0
   16.4081   -7.0383   22.7737 C   0  0  0  0  0  0  0  0  0  0  0  0
   16.7055   -6.6676   21.3605 C   0  0  0  0  0  0  0  0  0  0  0  0
   17.8422   -6.1863   21.1091 O   0  0  0  0  0  0  0  0  0  0  0  0
   17.8952   -9.6163   12.6694 N   0  0  0  0  0  0  0  0  0  0  0  0
   18.8200   -9.3617   12.8912 H   0  0  0  0  0  0  0  0  0  0  0  0
   17.6806  -10.5374   11.5629 C   0  0  0  0  0  0  0  0  0  0  0  0
   17.0745   -9.7950   10.3841 C   0  0  0  0  0  0  0  0  0  0  0  0
   18.1038   -8.9526    9.7024 C   0  0  0  0  0  0  0  0  0  0  0  0
   19.0764   -8.2644   10.3426 N   0  0  0  0  0  0  0  0  0  0  0  0
   19.7853   -7.6230    9.4161 N   0  0  0  0  0  0  0  0  0  0  0  0
   19.2256   -7.9359    8.2331 C   0  0  0  0  0  0  0  0  0  0  0  0
   19.6228   -7.4896    6.9761 C   0  0  0  0  0  0  0  0  0  0  0  0
   18.8778   -7.9427    5.8731 C   0  0  0  0  0  0  0  0  0  0  0  0
   17.7806   -8.8101    6.0532 C   0  0  0  0  0  0  0  0  0  0  0  0
   17.4315   -9.2233    7.3479 C   0  0  0  0  0  0  0  0  0  0  0  0
   18.1815   -8.7600    8.3779 N   0  0  0  0  0  0  0  0  0  0  0  0
 24 25  1  0  0  0
 25 26  2  0  0  0
 25  1  1  0  0  0
  1  2  2  0  0  0
  2  3  1  0  0  0
  2  4  1  0  0  0
  4  5  1  0  0  0
  4  6  2  0  0  0
  6  7  1  0  0  0
  6  8  1  0  0  0
  8  9  2  0  0  0
  9 10  1  0  0  0
 10 11  1  0  0  0
 11 12  2  0  0  0
 12 13  1  0  0  0
 13 14  2  0  0  0
 13 15  1  0  0  0
 15 16  2  0  0  0
 16 17  1  0  0  0
 16 27  1  0  0  0
 27 29  1  0  0  0
 29 30  1  0  0  0
 30 31  1  0  0  0
 31 32  2  0  0  0
 32 33  1  0  0  0
 33 34  2  0  0  0
 34 35  1  0  0  0
 35 36  2  0  0  0
 36 37  1  0  0  0
 37 38  2  0  0  0
 38 39  1  0  0  0
 15 18  1  0  0  0
 18 19  2  0  0  0
 18 20  1  0  0  0
 20 21  1  0  0  0
  9  1  1  0  0  0
 20 11  1  0  0  0
 20  8  1  0  0  0
 39 31  1  0  0  0
 39 34  1  0  0  0
  3 22  1  0  0  0
  7 23  1  0  0  0
 27 28  1  0  0  0
M  END
>  <minimizedAffinity>
-0.64963

>  <minimizedRMSD>
3.31182

$$$$
4619484 CSSS00160332886 LN01820992 MCULE-8835412614 MolPort-001-623-849 PubChem-2973275 ZINC000004619484


 29 32  0  0  0  0  0  0  0  0999 V2000
   16.2019   -9.5999   10.3353 C   0  0  0  0  0  0  0  0  0  0  0  0
   14.8160   -9.7518   10.1196 C   0  0  0  0  0  0  0  0  0  0  0  0
   13.9647  -10.1808   11.1624 C   0  0  0  0  0  0  0  0  0  0  0  0
   12.5086  -10.3327   10.9095 C   0  0  0  0  0  0  0  0  0  0  0  0
   14.4851  -10.4651   12.4385 C   0  0  0  0  0  0  0  0  0  0  0  0
   15.8556  -10.3068   12.6227 C   0  0  0  0  0  0  0  0  0  0  0  0
   16.6792   -9.8928   11.6177 C   0  0  0  0  0  0  0  0  0  0  0  0
   17.8997   -9.8356   12.0793 O   0  0  0  0  0  0  0  0  0  0  0  0
   17.8205  -10.2068   13.3452 C   0  0  0  0  0  0  0  0  0  0  0  0
   16.5606  -10.5179   13.7462 N   0  0  0  0  0  0  0  0  0  0  0  0
   17.0693   -9.1628    9.2780 N   0  0  0  0  0  0  0  0  0  0  0  0
   18.1031   -8.3409    9.4583 N   0  0  0  0  0  0  0  0  0  0  0  0
   18.6376   -8.1897    8.2382 C   0  0  0  0  0  0  0  0  0  0  0  0
   17.9141   -8.9237    7.3502 C   0  0  0  0  0  0  0  0  0  0  0  0
   18.2237   -8.9712    5.9948 C   0  0  0  0  0  0  0  0  0  0  0  0
   19.3345   -8.2173    5.5672 C   0  0  0  0  0  0  0  0  0  0  0  0
   20.0872   -7.4536    6.4912 C   0  0  0  0  0  0  0  0  0  0  0  0
   19.7402   -7.4324    7.8565 C   0  0  0  0  0  0  0  0  0  0  0  0
   16.9215   -9.5398    8.0080 N   0  0  0  0  0  0  0  0  0  0  0  0
   19.2376  -10.2890   14.4335 S   0  0  0  0  0  0  0  0  0  0  0  0
   19.0157   -8.5803   15.0224 C   0  0  0  0  0  0  0  0  0  0  0  0
   17.6037   -8.3440   15.4354 C   0  0  0  0  0  0  0  0  0  0  0  0
   16.8411   -7.6838   14.6806 O   0  0  0  0  0  0  0  0  0  0  0  0
   17.1291   -8.8654   16.6831 N   0  0  0  0  0  0  0  0  0  0  0  0
   17.7735   -9.3476   17.2501 H   0  0  0  0  0  0  0  0  0  0  0  0
   15.7606   -8.7345   17.1762 C   0  0  0  0  0  0  0  0  0  0  0  0
   15.0093   -7.6820   16.3814 C   0  0  0  0  0  0  0  0  0  0  0  0
   15.0351  -10.0645   17.0811 C   0  0  0  0  0  0  0  0  0  0  0  0
   15.8017   -8.3078   18.6281 C   0  0  0  0  0  0  0  0  0  0  0  0
 11 12  1  0  0  0
 12 13  2  0  0  0
 13 14  1  0  0  0
 14 15  1  0  0  0
 15 16  2  0  0  0
 16 17  1  0  0  0
 17 18  2  0  0  0
 14 19  2  0  0  0
 11  1  1  0  0  0
  1  2  2  0  0  0
  2  3  1  0  0  0
  3  4  1  0  0  0
  3  5  2  0  0  0
  5  6  1  0  0  0
  6  7  2  0  0  0
  7  8  1  0  0  0
  8  9  1  0  0  0
  9 10  2  0  0  0
  9 20  1  0  0  0
 20 21  1  0  0  0
 21 22  1  0  0  0
 22 23  2  0  0  0
 22 24  1  0  0  0
 24 26  1  0  0  0
 26 27  1  0  0  0
 26 28  1  0  0  0
 26 29  1  0  0  0
 19 11  1  0  0  0
  7  1  1  0  0  0
 18 13  1  0  0  0
 10  6  1  0  0  0
 24 25  1  0  0  0
M  END
>  <minimizedAffinity>
-0.62686

>  <minimizedRMSD>
1.62995

$$$$
CSC025860640 CSSS00025860640 MCULE-1932855831 MolPort-009-240-315 PubChem-45837941 Z18198564


 35 38  0  0  0  0  0  0  0  0999 V2000
   16.0352   -9.9534   10.0183 C   0  0  0  0  0  0  0  0  0  0  0  0
   15.5172  -11.2910    9.5265 C   0  0  0  0  0  0  0  0  0  0  0  0
   17.0017   -9.3829    9.0314 C   0  0  0  0  0  0  0  0  0  0  0  0
   16.7634   -9.5320    7.6975 N   0  0  0  0  0  0  0  0  0  0  0  0
   17.6370   -8.9967    6.8126 C   0  0  0  0  0  0  0  0  0  0  0  0
   18.7633   -8.3024    7.2137 C   0  0  0  0  0  0  0  0  0  0  0  0
   19.5273   -7.8402    6.1315 C   0  0  0  0  0  0  0  0  0  0  0  0
   18.9493   -8.1605    4.9014 C   0  0  0  0  0  0  0  0  0  0  0  0
   19.5886   -7.8664    3.5800 C   0  0  0  0  0  0  0  0  0  0  0  0
   20.6374   -6.7588    3.7224 C   0  0  0  0  0  0  0  0  0  0  0  0
   21.4570   -6.6736    2.4526 C   0  0  0  0  0  0  0  0  0  0  0  0
   21.5594   -7.0313    4.9144 C   0  0  0  0  0  0  0  0  0  0  0  0
   20.7703   -7.0016    6.2278 C   0  0  0  0  0  0  0  0  0  0  0  0
   17.5349   -9.0569    5.1361 S   0  0  0  0  0  0  0  0  0  0  0  0
   18.9954   -8.1537    8.5843 C   0  0  0  0  0  0  0  0  0  0  0  0
   20.0025   -7.5328    9.0149 O   0  0  0  0  0  0  0  0  0  0  0  0
   18.1057   -8.6978    9.4620 N   0  0  0  0  0  0  0  0  0  0  0  0
   18.2610   -8.5956   10.4288 H   0  0  0  0  0  0  0  0  0  0  0  0
   16.6608  -10.1227   11.2855 O   0  0  0  0  0  0  0  0  0  0  0  0
   16.4964   -9.2108   12.3337 C   0  0  0  0  0  0  0  0  0  0  0  0
   16.1133   -8.0315   12.0971 O   0  0  0  0  0  0  0  0  0  0  0  0
   17.2993  -10.4437   16.3600 C   0  0  0  0  0  0  0  0  0  0  0  0
   17.7785  -11.1937   15.2737 C   0  0  0  0  0  0  0  0  0  0  0  0
   17.5160  -10.7905   13.9629 C   0  0  0  0  0  0  0  0  0  0  0  0
   16.7705   -9.6326   13.7163 C   0  0  0  0  0  0  0  0  0  0  0  0
   16.2920   -8.8819   14.7976 C   0  0  0  0  0  0  0  0  0  0  0  0
   16.5513   -9.2781   16.1147 C   0  0  0  0  0  0  0  0  0  0  0  0
   15.9303   -8.3066   17.4439 S   0  0  0  0  0  0  0  0  0  0  0  0
   15.4158   -9.3436   18.7258 N   0  0  0  0  0  0  0  0  0  0  0  0
   14.7601   -7.4874   16.9765 O   0  0  0  0  0  0  0  0  0  0  0  0
   17.0074   -7.3837   17.9396 O   0  0  0  0  0  0  0  0  0  0  0  0
   14.6850   -9.9683   18.3853 H   0  0  0  0  0  0  0  0  0  0  0  0
   15.0507   -8.7798   19.4935 H   0  0  0  0  0  0  0  0  0  0  0  0
   18.5379  -11.8101   18.0139 C   0  0  0  0  0  0  0  0  0  0  0  0
   17.5558  -10.8395   17.6781 O   0  0  0  0  0  0  0  0  0  0  0  0
 34 35  1  0  0  0
 35 22  1  0  0  0
 22 23  2  0  0  0
 23 24  1  0  0  0
 24 25  2  0  0  0
 25 26  1  0  0  0
 25 20  1  0  0  0
 26 27  2  0  0  0
 27 28  1  0  0  0
 27 22  1  0  0  0
 28 29  1  0  0  0
 28 30  2  0  0  0
 28 31  2  0  0  0
 20 21  2  0  0  0
 20 19  1  0  0  0
  1 19  1  0  0  0
  1  2  1  0  0  0
  1  3  1  0  0  0
  3  4  2  0  0  0
  4  5  1  0  0  0
  5  6  2  0  0  0
  6  7  1  0  0  0
  6 15  1  0  0  0
  7  8  2  0  0  0
  8  9  1  0  0  0
  8 14  1  0  0  0
  9 10  1  0  0  0
 10 11  1  0  0  0
 10 12  1  0  0  0
 12 13  1  0  0  0
 13  7  1  0  0  0
 14  5  1  0  0  0
 15 16  2  0  0  0
 15 17  1  0  0  0
 17  3  1  0  0  0
 29 32  1  0  0  0
 29 33  1  0  0  0
 17 18  1  0  0  0
M  END
>  <minimizedAffinity>
-0.62544

>  <minimizedRMSD>
1.58086

$$$$
CSC027072584 CSSS00027072584 MCULE-4313916709 MolPort-005-522-429 PubChem-16383475 Z112484004


 35 39  0  0  0  0  0  0  0  0999 V2000
   19.7649   -7.8501    9.7175 C   0  0  0  0  0  0  0  0  0  0  0  0
   18.9015   -9.0768    9.4897 C   0  0  0  0  0  0  0  0  0  0  0  0
   18.8592   -9.9174   10.7234 C   0  0  0  0  0  0  0  0  0  0  0  0
   19.3360  -11.0821   10.6849 O   0  0  0  0  0  0  0  0  0  0  0  0
   18.2746   -9.3954   11.9239 N   0  0  0  0  0  0  0  0  0  0  0  0
   17.9391   -8.4705   11.8870 H   0  0  0  0  0  0  0  0  0  0  0  0
   18.1294  -10.0845   13.1726 C   0  0  0  0  0  0  0  0  0  0  0  0
   17.3308   -9.6294   14.2363 C   0  0  0  0  0  0  0  0  0  0  0  0
   17.3927  -10.5239   15.3127 C   0  0  0  0  0  0  0  0  0  0  0  0
   18.1776  -11.5966   15.1093 C   0  0  0  0  0  0  0  0  0  0  0  0
   18.2219  -12.5419   16.2336 C   0  0  0  0  0  0  0  0  0  0  0  0
   17.2855  -11.8678   17.2593 C   0  0  0  0  0  0  0  0  0  0  0  0
   16.7532  -10.5529   16.6439 C   0  0  0  0  0  0  0  0  0  0  0  0
   18.8753  -11.5602   13.5869 S   0  0  0  0  0  0  0  0  0  0  0  0
   16.5325   -8.3847   14.2250 C   0  0  0  0  0  0  0  0  0  0  0  0
   16.7078   -7.4012   15.2401 N   0  0  0  0  0  0  0  0  0  0  0  0
   15.6798   -8.1826   13.3202 O   0  0  0  0  0  0  0  0  0  0  0  0
   17.3701   -7.5437   15.9544 H   0  0  0  0  0  0  0  0  0  0  0  0
   16.1668   -6.5787   15.2273 H   0  0  0  0  0  0  0  0  0  0  0  0
   17.2241   -8.5649    9.0028 S   0  0  0  0  0  0  0  0  0  0  0  0
   17.5687   -8.7494    7.2548 C   0  0  0  0  0  0  0  0  0  0  0  0
   18.5228   -7.9720    6.6121 C   0  0  0  0  0  0  0  0  0  0  0  0
   19.3760   -6.9713    7.0348 C   0  0  0  0  0  0  0  0  0  0  0  0
   20.0933   -6.5805    5.9477 N   0  0  0  0  0  0  0  0  0  0  0  0
   19.7195   -7.2937    4.8876 N   0  0  0  0  0  0  0  0  0  0  0  0
   18.7596   -8.1446    5.2890 C   0  0  0  0  0  0  0  0  0  0  0  0
   18.0870   -9.0575    4.5438 N   0  0  0  0  0  0  0  0  0  0  0  0
   17.1415   -9.8245    5.1661 C   0  0  0  0  0  0  0  0  0  0  0  0
   16.8893   -9.6686    6.5056 N   0  0  0  0  0  0  0  0  0  0  0  0
   20.2855   -7.1331    3.5744 C   0  0  0  0  0  0  0  0  0  0  0  0
   20.8649   -8.2172    2.8932 C   0  0  0  0  0  0  0  0  0  0  0  0
   21.4108   -8.0443    1.6175 C   0  0  0  0  0  0  0  0  0  0  0  0
   21.3824   -6.7856    1.0101 C   0  0  0  0  0  0  0  0  0  0  0  0
   20.8076   -5.7004    1.6781 C   0  0  0  0  0  0  0  0  0  0  0  0
   20.2621   -5.8738    2.9536 C   0  0  0  0  0  0  0  0  0  0  0  0
  2  1  1  0  0  0
  2 20  1  0  0  0
  2  3  1  0  0  0
 20 21  1  0  0  0
 21 22  2  0  0  0
 22 23  1  0  0  0
 23 24  2  0  0  0
 24 25  1  0  0  0
 25 26  1  0  0  0
 25 30  1  0  0  0
 26 27  2  0  0  0
 26 22  1  0  0  0
 27 28  1  0  0  0
 28 29  2  0  0  0
 29 21  1  0  0  0
 30 31  2  0  0  0
 31 32  1  0  0  0
 32 33  2  0  0  0
 33 34  1  0  0  0
 34 35  2  0  0  0
 35 30  1  0  0  0
  3  4  2  0  0  0
  3  5  1  0  0  0
  5  7  1  0  0  0
  7  8  2  0  0  0
  8 15  1  0  0  0
  8  9  1  0  0  0
 15 16  1  0  0  0
 15 17  2  0  0  0
  9 10  2  0  0  0
 10 11  1  0  0  0
 10 14  1  0  0  0
 11 12  1  0  0  0
 12 13  1  0  0  0
 13  9  1  0  0  0
 14  7  1  0  0  0
  5  6  1  0  0  0
 16 18  1  0  0  0
 16 19  1  0  0  0
M  END
>  <minimizedAffinity>
-0.60643

>  <minimizedRMSD>
3.14793

$$$$
CSSS16638314427


 28 30  0  0  0  0  0  0  0  0999 V2000
   19.4837   -9.7587   11.3433 O   0  0  0  0  0  0  0  0  0  0  0  0
   19.0593   -8.9752   10.2694 C   0  0  0  0  0  0  0  0  0  0  0  0
   19.7789   -8.0283    9.8496 O   0  0  0  0  0  0  0  0  0  0  0  0
   18.3973   -8.9410    7.1588 C   0  0  0  0  0  0  0  0  0  0  0  0
   17.4501   -9.2522    8.2658 C   0  0  0  0  0  0  0  0  0  0  0  0
   17.7626   -9.2611    9.6284 C   0  0  0  0  0  0  0  0  0  0  0  0
   16.5843   -9.5993   10.2554 C   0  0  0  0  0  0  0  0  0  0  0  0
   16.2595   -9.7678   11.5989 C   0  0  0  0  0  0  0  0  0  0  0  0
   14.9337  -10.1220   11.9007 C   0  0  0  0  0  0  0  0  0  0  0  0
   13.9963  -10.2917   10.8586 C   0  0  0  0  0  0  0  0  0  0  0  0
   14.3665  -10.1144    9.5548 N   0  0  0  0  0  0  0  0  0  0  0  0
   15.6487   -9.7724    9.2732 C   0  0  0  0  0  0  0  0  0  0  0  0
   16.1501   -9.5664    8.0426 N   0  0  0  0  0  0  0  0  0  0  0  0
   15.6815   -9.6291    7.1790 H   0  0  0  0  0  0  0  0  0  0  0  0
   19.7393   -9.2055   12.6257 C   0  0  0  0  0  0  0  0  0  0  0  0
   18.8587   -9.8571   13.6310 C   0  0  0  0  0  0  0  0  0  0  0  0
   17.9644   -9.0867   14.3811 C   0  0  0  0  0  0  0  0  0  0  0  0
   17.1100   -9.7013   15.3032 C   0  0  0  0  0  0  0  0  0  0  0  0
   17.1516  -11.0900   15.4713 C   0  0  0  0  0  0  0  0  0  0  0  0
   18.0390  -11.8614   14.7152 C   0  0  0  0  0  0  0  0  0  0  0  0
   18.0827  -13.5986   14.9218 Cl  0  0  0  0  0  0  0  0  0  0  0  0
   18.8893  -11.2459   13.7920 C   0  0  0  0  0  0  0  0  0  0  0  0
   16.0009   -8.7307   16.2539 S   0  0  0  0  0  0  0  0  0  0  0  0
   16.6330   -8.5271   17.8483 N   0  0  0  0  0  0  0  0  0  0  0  0
   15.8244   -7.3857   15.6068 O   0  0  0  0  0  0  0  0  0  0  0  0
   14.6641   -9.4137   16.3287 O   0  0  0  0  0  0  0  0  0  0  0  0
   17.5402   -8.0636   17.7978 H   0  0  0  0  0  0  0  0  0  0  0  0
   16.7417   -9.4400   18.2901 H   0  0  0  0  0  0  0  0  0  0  0  0
  4  5  1  0  0  0
  5  6  2  0  0  0
  6  2  1  0  0  0
  2  3  2  0  0  0
  2  1  1  0  0  0
  1 15  1  0  0  0
 15 16  1  0  0  0
 16 17  2  0  0  0
 17 18  1  0  0  0
 18 19  2  0  0  0
 19 20  1  0  0  0
 20 21  1  0  0  0
 20 22  2  0  0  0
 18 23  1  0  0  0
 23 24  1  0  0  0
 23 25  2  0  0  0
 23 26  2  0  0  0
  6  7  1  0  0  0
  7  8  2  0  0  0
  8  9  1  0  0  0
  9 10  2  0  0  0
 10 11  1  0  0  0
 11 12  2  0  0  0
 12 13  1  0  0  0
 13  5  1  0  0  0
 22 16  1  0  0  0
 12  7  1  0  0  0
 24 27  1  0  0  0
 24 28  1  0  0  0
 13 14  1  0  0  0
M  END
>  <minimizedAffinity>
-0.58239

>  <minimizedRMSD>
1.69662

$$$$
CSSS00161116725 MCULE-8492143737 MolPort-047-311-351 PubChem-146121880 Z1000940198


 38 42  0  0  0  0  0  0  0  0999 V2000
   19.3960   -7.8808    9.7261 C   0  0  0  0  0  0  0  0  0  0  0  0
   19.6796   -6.7024   10.0694 O   0  0  0  0  0  0  0  0  0  0  0  0
   19.4717   -8.9393   10.6872 N   0  0  0  0  0  0  0  0  0  0  0  0
   19.3518   -9.8665   10.3788 H   0  0  0  0  0  0  0  0  0  0  0  0
   19.5127   -7.8983    5.9323 C   0  0  0  0  0  0  0  0  0  0  0  0
   19.8408   -7.6648    7.2896 C   0  0  0  0  0  0  0  0  0  0  0  0
   19.0448   -8.1897    8.3274 C   0  0  0  0  0  0  0  0  0  0  0  0
   17.9361   -8.9621    7.9383 C   0  0  0  0  0  0  0  0  0  0  0  0
   16.9556   -9.7008    8.5861 C   0  0  0  0  0  0  0  0  0  0  0  0
   16.8053   -9.9512   10.0455 C   0  0  0  0  0  0  0  0  0  0  0  0
   16.1534  -10.2725    7.6567 N   0  0  0  0  0  0  0  0  0  0  0  0
   16.6013   -9.9238    6.4812 O   0  0  0  0  0  0  0  0  0  0  0  0
   17.6553   -9.1622    6.6163 C   0  0  0  0  0  0  0  0  0  0  0  0
   18.4122   -8.6470    5.6186 N   0  0  0  0  0  0  0  0  0  0  0  0
   22.6535   -4.9767    3.3259 C   0  0  0  0  0  0  0  0  0  0  0  0
   21.7310   -6.0724    3.7241 C   0  0  0  0  0  0  0  0  0  0  0  0
   21.1130   -6.1758    4.9573 C   0  0  0  0  0  0  0  0  0  0  0  0
   20.3619   -7.3367    4.8619 C   0  0  0  0  0  0  0  0  0  0  0  0
   20.5775   -7.8480    3.5916 C   0  0  0  0  0  0  0  0  0  0  0  0
   19.9907   -9.0872    3.0109 C   0  0  0  0  0  0  0  0  0  0  0  0
   21.4006   -7.0683    2.9375 O   0  0  0  0  0  0  0  0  0  0  0  0
   19.7188   -8.7000   12.1026 C   0  0  0  0  0  0  0  0  0  0  0  0
   19.1744   -9.8242   12.9169 C   0  0  0  0  0  0  0  0  0  0  0  0
   19.1518  -11.1194   12.3924 C   0  0  0  0  0  0  0  0  0  0  0  0
   18.6100  -12.1671   13.1406 C   0  0  0  0  0  0  0  0  0  0  0  0
   18.0824  -11.9192   14.4115 C   0  0  0  0  0  0  0  0  0  0  0  0
   18.0918  -10.6206   14.9491 C   0  0  0  0  0  0  0  0  0  0  0  0
   18.6421   -9.5774   14.1863 C   0  0  0  0  0  0  0  0  0  0  0  0
   17.5009  -10.3597   16.3192 C   0  0  0  0  0  0  0  0  0  0  0  0
   17.7118  -11.5544   17.2379 C   0  0  0  0  0  0  0  0  0  0  0  0
   16.0727  -10.0588   16.2402 N   0  0  0  0  0  0  0  0  0  0  0  0
   15.8941   -8.7435   16.7509 C   0  0  0  0  0  0  0  0  0  0  0  0
   14.7708   -8.1780   16.7983 O   0  0  0  0  0  0  0  0  0  0  0  0
   17.0850   -8.1182   17.1948 N   0  0  0  0  0  0  0  0  0  0  0  0
   18.0665   -9.1114   16.9359 C   0  0  0  0  0  0  0  0  0  0  0  0
   19.2836   -8.9443   17.2151 O   0  0  0  0  0  0  0  0  0  0  0  0
   15.3673  -10.6544   15.8981 H   0  0  0  0  0  0  0  0  0  0  0  0
   17.2026   -7.2217   17.5843 H   0  0  0  0  0  0  0  0  0  0  0  0
 15 16  1  0  0  0
 16 17  2  0  0  0
 17 18  1  0  0  0
 18 19  2  0  0  0
 19 20  1  0  0  0
 19 21  1  0  0  0
 18  5  1  0  0  0
  5  6  2  0  0  0
  6  7  1  0  0  0
  7  1  1  0  0  0
  1  2  2  0  0  0
  1  3  1  0  0  0
  3 22  1  0  0  0
 22 23  1  0  0  0
 23 24  2  0  0  0
 24 25  1  0  0  0
 25 26  2  0  0  0
 26 27  1  0  0  0
 27 28  2  0  0  0
 27 29  1  0  0  0
 29 30  1  0  0  0
 29 31  1  0  0  0
 31 32  1  0  0  0
 32 33  2  0  0  0
 32 34  1  0  0  0
 34 35  1  0  0  0
 35 36  2  0  0  0
  7  8  2  0  0  0
  8  9  1  0  0  0
  9 10  1  0  0  0
  9 11  2  0  0  0
 11 12  1  0  0  0
 12 13  1  0  0  0
 13 14  2  0  0  0
 21 16  1  0  0  0
 14  5  1  0  0  0
 28 23  1  0  0  0
 35 29  1  0  0  0
 13  8  1  0  0  0
  3  4  1  0  0  0
 31 37  1  0  0  0
 34 38  1  0  0  0
M  END
>  <minimizedAffinity>
-0.57926

>  <minimizedRMSD>
2.01538

$$$$
253411703 CSSS00160616006 MolPort-039-056-995 PubChem-110207106 ZINC000253411703


 39 43  0  0  0  0  0  0  0  0999 V2000
   15.7329   -6.9009   20.2346 C   0  0  0  0  0  0  0  0  0  0  0  0
   14.4367   -6.3195   20.2543 C   0  0  0  0  0  0  0  0  0  0  0  0
   14.0429   -5.4984   21.3073 O   0  0  0  0  0  0  0  0  0  0  0  0
   13.5272   -6.5567   19.1971 C   0  0  0  0  0  0  0  0  0  0  0  0
   12.1576   -5.9624   19.2455 C   0  0  0  0  0  0  0  0  0  0  0  0
   13.8993   -7.3575   18.1031 C   0  0  0  0  0  0  0  0  0  0  0  0
   12.9925   -7.6377   17.0859 O   0  0  0  0  0  0  0  0  0  0  0  0
   15.1939   -7.8798   18.0649 C   0  0  0  0  0  0  0  0  0  0  0  0
   16.0711   -7.6805   19.1168 C   0  0  0  0  0  0  0  0  0  0  0  0
   17.2708   -8.3436   18.9067 O   0  0  0  0  0  0  0  0  0  0  0  0
   17.1846   -8.9313   17.6527 C   0  0  0  0  0  0  0  0  0  0  0  0
   18.2402   -9.3702   16.9684 C   0  0  0  0  0  0  0  0  0  0  0  0
   18.0980   -9.6352   15.5248 C   0  0  0  0  0  0  0  0  0  0  0  0
   18.9871  -10.3141   14.9460 O   0  0  0  0  0  0  0  0  0  0  0  0
   16.9339   -9.0442   14.7802 C   0  0  0  0  0  0  0  0  0  0  0  0
   16.8390   -9.0923   13.4269 C   0  0  0  0  0  0  0  0  0  0  0  0
   15.6310   -8.5714   12.7082 C   0  0  0  0  0  0  0  0  0  0  0  0
   15.8871   -8.4009   15.6395 C   0  0  0  0  0  0  0  0  0  0  0  0
   15.0977   -7.5286   15.1859 O   0  0  0  0  0  0  0  0  0  0  0  0
   15.7987   -8.8401   17.0792 C   0  0  0  0  0  0  0  0  0  0  0  0
   15.1037  -10.1911   17.1750 C   0  0  0  0  0  0  0  0  0  0  0  0
   14.6323   -5.3302   22.0160 H   0  0  0  0  0  0  0  0  0  0  0  0
   12.1259   -7.2828   17.1200 H   0  0  0  0  0  0  0  0  0  0  0  0
   16.3825   -6.9921   22.7574 C   0  0  0  0  0  0  0  0  0  0  0  0
   16.7176   -6.7059   21.3330 C   0  0  0  0  0  0  0  0  0  0  0  0
   17.8836   -6.3068   21.0724 O   0  0  0  0  0  0  0  0  0  0  0  0
   17.8932   -9.6687   12.6473 N   0  0  0  0  0  0  0  0  0  0  0  0
   18.8234   -9.4783   12.9076 H   0  0  0  0  0  0  0  0  0  0  0  0
   17.6614  -10.5209   11.4907 C   0  0  0  0  0  0  0  0  0  0  0  0
   17.0211   -9.7094   10.3761 C   0  0  0  0  0  0  0  0  0  0  0  0
   18.0234   -8.9068    9.6880 N   0  0  0  0  0  0  0  0  0  0  0  0
   19.0226   -8.1838   10.2505 C   0  0  0  0  0  0  0  0  0  0  0  0
   19.7840   -7.5449    9.3206 N   0  0  0  0  0  0  0  0  0  0  0  0
   19.2192   -7.9009    8.1516 C   0  0  0  0  0  0  0  0  0  0  0  0
   19.6030   -7.5174    6.8690 C   0  0  0  0  0  0  0  0  0  0  0  0
   18.8481   -8.0176    5.7910 C   0  0  0  0  0  0  0  0  0  0  0  0
   17.7463   -8.8732    6.0197 C   0  0  0  0  0  0  0  0  0  0  0  0
   17.3850   -9.2402    7.3293 C   0  0  0  0  0  0  0  0  0  0  0  0
   18.1579   -8.7258    8.3693 C   0  0  0  0  0  0  0  0  0  0  0  0
 24 25  1  0  0  0
 25 26  2  0  0  0
 25  1  1  0  0  0
  1  2  2  0  0  0
  2  3  1  0  0  0
  2  4  1  0  0  0
  4  5  1  0  0  0
  4  6  2  0  0  0
  6  7  1  0  0  0
  6  8  1  0  0  0
  8  9  2  0  0  0
  9 10  1  0  0  0
 10 11  1  0  0  0
 11 12  2  0  0  0
 12 13  1  0  0  0
 13 14  2  0  0  0
 13 15  1  0  0  0
 15 16  2  0  0  0
 16 17  1  0  0  0
 16 27  1  0  0  0
 27 29  1  0  0  0
 29 30  1  0  0  0
 30 31  1  0  0  0
 31 32  1  0  0  0
 32 33  2  0  0  0
 33 34  1  0  0  0
 34 35  2  0  0  0
 35 36  1  0  0  0
 36 37  2  0  0  0
 37 38  1  0  0  0
 38 39  2  0  0  0
 15 18  1  0  0  0
 18 19  2  0  0  0
 18 20  1  0  0  0
 20 21  1  0  0  0
  9  1  1  0  0  0
 20 11  1  0  0  0
 20  8  1  0  0  0
 39 31  1  0  0  0
 39 34  1  0  0  0
  3 22  1  0  0  0
  7 23  1  0  0  0
 27 28  1  0  0  0
M  END
>  <minimizedAffinity>
-0.55551

>  <minimizedRMSD>
3.47852

$$$$
CSC026066177 6230040 CSSS00026066177 MCULE-9500270850 MolPort-004-166-579 PubChem-4020095 Z19315277 ZINC000006230040


 29 32  0  0  0  0  0  0  0  0999 V2000
   16.6722   -9.4683   12.5844 N   0  0  0  0  0  0  0  0  0  0  0  0
   17.2400   -9.6420   11.2815 C   0  0  0  0  0  0  0  0  0  0  0  0
   18.2475  -10.3745   11.0992 O   0  0  0  0  0  0  0  0  0  0  0  0
   15.9061   -8.8542   12.6561 H   0  0  0  0  0  0  0  0  0  0  0  0
   16.9071   -9.5700   15.0814 C   0  0  0  0  0  0  0  0  0  0  0  0
   17.4385  -10.4266   16.0542 C   0  0  0  0  0  0  0  0  0  0  0  0
   18.0108  -11.5429   15.5708 C   0  0  0  0  0  0  0  0  0  0  0  0
   18.5577  -12.4415   16.5969 C   0  0  0  0  0  0  0  0  0  0  0  0
   18.2316  -11.6806   17.8992 C   0  0  0  0  0  0  0  0  0  0  0  0
   17.4997  -10.3703   17.5290 C   0  0  0  0  0  0  0  0  0  0  0  0
   17.9224  -11.5951   13.8992 S   0  0  0  0  0  0  0  0  0  0  0  0
   17.1092  -10.1005   13.7953 C   0  0  0  0  0  0  0  0  0  0  0  0
   15.5688   -8.0880   16.6198 N   0  0  0  0  0  0  0  0  0  0  0  0
   16.2268   -8.2899   15.3732 C   0  0  0  0  0  0  0  0  0  0  0  0
   16.2209   -7.3616   14.5226 O   0  0  0  0  0  0  0  0  0  0  0  0
   15.5642   -8.8039   17.2956 H   0  0  0  0  0  0  0  0  0  0  0  0
   15.1185   -7.2326   16.8059 H   0  0  0  0  0  0  0  0  0  0  0  0
   16.6193   -8.9544   10.1157 C   0  0  0  0  0  0  0  0  0  0  0  0
   16.1175  -10.1670    8.8538 S   0  0  0  0  0  0  0  0  0  0  0  0
   17.1289   -9.4175    7.5707 C   0  0  0  0  0  0  0  0  0  0  0  0
   18.2813   -8.6778    7.8777 C   0  0  0  0  0  0  0  0  0  0  0  0
   19.0193   -8.1221    6.8113 C   0  0  0  0  0  0  0  0  0  0  0  0
   20.1753   -7.3811    7.0728 C   0  0  0  0  0  0  0  0  0  0  0  0
   20.6006   -7.1900    8.3908 C   0  0  0  0  0  0  0  0  0  0  0  0
   19.8717   -7.7389    9.4505 C   0  0  0  0  0  0  0  0  0  0  0  0
   18.7147   -8.4813    9.1963 C   0  0  0  0  0  0  0  0  0  0  0  0
   18.6053   -8.3076    5.5319 N   0  0  0  0  0  0  0  0  0  0  0  0
   17.4837   -9.0238    5.2601 C   0  0  0  0  0  0  0  0  0  0  0  0
   16.7579   -9.5685    6.2715 N   0  0  0  0  0  0  0  0  0  0  0  0
 13 14  1  0  0  0
 14  5  1  0  0  0
  5  6  1  0  0  0
  6  7  2  0  0  0
  7  8  1  0  0  0
  8  9  1  0  0  0
  9 10  1  0  0  0
  7 11  1  0  0  0
 11 12  1  0  0  0
 12  1  1  0  0  0
  1  2  1  0  0  0
  2 18  1  0  0  0
 18 19  1  0  0  0
 19 20  1  0  0  0
 20 21  1  0  0  0
 21 22  1  0  0  0
 22 23  2  0  0  0
 23 24  1  0  0  0
 24 25  2  0  0  0
 25 26  1  0  0  0
 22 27  1  0  0  0
 27 28  2  0  0  0
 28 29  1  0  0  0
  2  3  2  0  0  0
 14 15  2  0  0  0
 12  5  2  0  0  0
 29 20  2  0  0  0
 10  6  1  0  0  0
 26 21  2  0  0  0
 13 16  1  0  0  0
 13 17  1  0  0  0
  1  4  1  0  0  0
M  END
>  <minimizedAffinity>
-0.54901

>  <minimizedRMSD>
2.45865

$$$$
CSSS02125493164 MolPort-038-398-348


 31 34  0  0  0  0  0  0  0  0999 V2000
   15.3218   -9.1673   10.7078 C   0  0  0  0  0  0  0  0  0  0  0  0
   16.2531   -9.1127    9.5329 C   0  0  0  0  0  0  0  0  0  0  0  0
   16.0639   -9.9922    8.4619 C   0  0  0  0  0  0  0  0  0  0  0  0
   16.8943   -9.9536    7.3847 N   0  0  0  0  0  0  0  0  0  0  0  0
   17.9236   -9.0682    7.3129 C   0  0  0  0  0  0  0  0  0  0  0  0
   18.7610   -9.0506    6.1940 C   0  0  0  0  0  0  0  0  0  0  0  0
   19.8175   -8.1360    6.1273 C   0  0  0  0  0  0  0  0  0  0  0  0
   20.0388   -7.2382    7.1777 C   0  0  0  0  0  0  0  0  0  0  0  0
   19.2050   -7.2505    8.3007 C   0  0  0  0  0  0  0  0  0  0  0  0
   18.1487   -8.1621    8.3719 C   0  0  0  0  0  0  0  0  0  0  0  0
   17.3061   -8.1901    9.4821 C   0  0  0  0  0  0  0  0  0  0  0  0
   14.6537  -10.5381   10.8179 C   0  0  0  0  0  0  0  0  0  0  0  0
   14.3298  -10.8561   12.2674 C   0  0  0  0  0  0  0  0  0  0  0  0
   12.8475  -10.7571   11.9672 C   0  0  0  0  0  0  0  0  0  0  0  0
   12.2705  -12.0249   12.0448 O   0  0  0  0  0  0  0  0  0  0  0  0
   13.1672  -10.4342   10.5213 C   0  0  0  0  0  0  0  0  0  0  0  0
   12.8049  -12.6550   11.5366 H   0  0  0  0  0  0  0  0  0  0  0  0
   16.9222   -9.8030   12.5736 C   0  0  0  0  0  0  0  0  0  0  0  0
   17.1294  -10.9231   12.0300 O   0  0  0  0  0  0  0  0  0  0  0  0
   16.0468   -8.8671   11.9373 N   0  0  0  0  0  0  0  0  0  0  0  0
   15.9284   -7.9803   12.3481 H   0  0  0  0  0  0  0  0  0  0  0  0
   19.3935  -11.2796   13.6224 C   0  0  0  0  0  0  0  0  0  0  0  0
   18.7397  -10.1553   14.3519 C   0  0  0  0  0  0  0  0  0  0  0  0
   17.6019   -9.4764   13.8539 C   0  0  0  0  0  0  0  0  0  0  0  0
   17.0927   -8.4258   14.6279 C   0  0  0  0  0  0  0  0  0  0  0  0
   17.6724   -8.0855   15.8063 N   0  0  0  0  0  0  0  0  0  0  0  0
   18.7601   -8.7537   16.2627 C   0  0  0  0  0  0  0  0  0  0  0  0
   19.3544   -8.3830   17.5004 N   0  0  0  0  0  0  0  0  0  0  0  0
   19.2831   -9.7744   15.5380 N   0  0  0  0  0  0  0  0  0  0  0  0
   18.9750   -7.6423   18.0264 H   0  0  0  0  0  0  0  0  0  0  0  0
   20.1453   -8.8670   17.8313 H   0  0  0  0  0  0  0  0  0  0  0  0
 22 23  1  0  0  0
 23 24  2  0  0  0
 24 25  1  0  0  0
 25 26  2  0  0  0
 26 27  1  0  0  0
 27 28  1  0  0  0
 27 29  2  0  0  0
 24 18  1  0  0  0
 18 19  2  0  0  0
 18 20  1  0  0  0
 20  1  1  0  0  0
 12  1  1  0  0  0
 12 13  1  0  0  0
 13 14  1  0  0  0
 14 15  1  0  0  0
 14 16  1  0  0  0
  1  2  1  0  0  0
  2  3  2  0  0  0
  3  4  1  0  0  0
  4  5  2  0  0  0
  5  6  1  0  0  0
  6  7  2  0  0  0
  7  8  1  0  0  0
  8  9  2  0  0  0
  9 10  1  0  0  0
 10 11  2  0  0  0
 29 23  1  0  0  0
 16 12  1  0  0  0
 11  2  1  0  0  0
 10  5  1  0  0  0
 28 30  1  0  0  0
 28 31  1  0  0  0
 20 21  1  0  0  0
 15 17  1  0  0  0
M  END
>  <minimizedAffinity>
-0.49792

>  <minimizedRMSD>
2.75936

$$$$
CSC027806471 CSSS00027806471 MCULE-6168727529 MolPort-009-171-053 PubChem-31806329 Z286197682


 28 30  0  0  0  0  0  0  0  0999 V2000
   17.9562   -9.2240   13.7702 S   0  0  0  0  0  0  0  0  0  0  0  0
   19.4227   -8.9007   13.7111 O   0  0  0  0  0  0  0  0  0  0  0  0
   17.1558   -7.9857   13.4761 O   0  0  0  0  0  0  0  0  0  0  0  0
   17.8889  -11.1295   15.7636 C   0  0  0  0  0  0  0  0  0  0  0  0
   17.5598   -9.8180   15.3777 C   0  0  0  0  0  0  0  0  0  0  0  0
   16.9075   -8.9704   16.2800 C   0  0  0  0  0  0  0  0  0  0  0  0
   16.5758   -9.4121   17.5680 C   0  0  0  0  0  0  0  0  0  0  0  0
   16.9039  -10.7156   17.9481 C   0  0  0  0  0  0  0  0  0  0  0  0
   17.5550  -11.5690   17.0549 C   0  0  0  0  0  0  0  0  0  0  0  0
   15.9072   -8.5646   18.5123 N   0  0  0  0  0  0  0  0  0  0  0  0
   14.8284   -7.6616   18.2389 C   0  0  0  0  0  0  0  0  0  0  0  0
   14.2550   -6.8569   19.3484 C   0  0  0  0  0  0  0  0  0  0  0  0
   14.3566   -7.5366   17.0780 O   0  0  0  0  0  0  0  0  0  0  0  0
   16.2217   -8.6076   19.4442 H   0  0  0  0  0  0  0  0  0  0  0  0
   18.0749  -13.2819   14.5515 C   0  0  0  0  0  0  0  0  0  0  0  0
   18.5424  -11.9759   14.8601 O   0  0  0  0  0  0  0  0  0  0  0  0
   17.5691  -10.4462   12.6050 N   0  0  0  0  0  0  0  0  0  0  0  0
   17.6219  -11.3892   12.8829 H   0  0  0  0  0  0  0  0  0  0  0  0
   17.1769  -10.1566   11.2604 C   0  0  0  0  0  0  0  0  0  0  0  0
   15.8306  -10.1636   10.8973 C   0  0  0  0  0  0  0  0  0  0  0  0
   15.4254   -9.8920    9.6246 C   0  0  0  0  0  0  0  0  0  0  0  0
   14.0536   -9.9878    9.6282 C   0  0  0  0  0  0  0  0  0  0  0  0
   13.6893  -10.3112   10.8950 N   0  0  0  0  0  0  0  0  0  0  0  0
   14.7650  -10.4194   11.6700 N   0  0  0  0  0  0  0  0  0  0  0  0
   16.3237   -9.5902    8.6052 C   0  0  0  0  0  0  0  0  0  0  0  0
   17.6921   -9.5736    8.9350 C   0  0  0  0  0  0  0  0  0  0  0  0
   18.1174   -9.8547   10.2529 C   0  0  0  0  0  0  0  0  0  0  0  0
   14.7766  -10.6445   12.6283 H   0  0  0  0  0  0  0  0  0  0  0  0
 15 16  1  0  0  0
 16  4  1  0  0  0
  4  5  2  0  0  0
  5  1  1  0  0  0
  1 17  1  0  0  0
 17 19  1  0  0  0
 19 20  1  0  0  0
 20 21  2  0  0  0
 21 22  1  0  0  0
 22 23  2  0  0  0
 23 24  1  0  0  0
 21 25  1  0  0  0
 25 26  2  0  0  0
 26 27  1  0  0  0
  1  2  2  0  0  0
  1  3  2  0  0  0
  5  6  1  0  0  0
  6  7  2  0  0  0
  7 10  1  0  0  0
 10 11  1  0  0  0
 11 12  1  0  0  0
 11 13  2  0  0  0
  7  8  1  0  0  0
  8  9  2  0  0  0
  9  4  1  0  0  0
 27 19  2  0  0  0
 24 20  1  0  0  0
 17 18  1  0  0  0
 24 28  1  0  0  0
 10 14  1  0  0  0
M  END
>  <minimizedAffinity>
-0.44606

>  <minimizedRMSD>
2.08818

$$$$
CSSS14880538092 MCULE-8199576084


 32 34  0  0  0  0  0  0  0  0999 V2000
   16.8567   -9.3485   12.5454 S   0  0  0  0  0  0  0  0  0  0  0  0
   16.2362   -8.0239   12.1954 O   0  0  0  0  0  0  0  0  0  0  0  0
   18.1851   -9.4594   11.8524 O   0  0  0  0  0  0  0  0  0  0  0  0
   17.0996   -9.4567   14.2859 C   0  0  0  0  0  0  0  0  0  0  0  0
   18.1409  -10.2352   14.8209 C   0  0  0  0  0  0  0  0  0  0  0  0
   18.3012  -10.3032   16.2141 C   0  0  0  0  0  0  0  0  0  0  0  0
   17.4389   -9.6051   17.0619 C   0  0  0  0  0  0  0  0  0  0  0  0
   16.4016   -8.8283   16.5321 C   0  0  0  0  0  0  0  0  0  0  0  0
   16.2394   -8.7605   15.1424 C   0  0  0  0  0  0  0  0  0  0  0  0
   15.4907   -8.0916   17.4259 C   0  0  0  0  0  0  0  0  0  0  0  0
   15.7303   -8.0727   18.8355 N   0  0  0  0  0  0  0  0  0  0  0  0
   14.8602   -7.3605   19.7560 C   0  0  0  0  0  0  0  0  0  0  0  0
   14.4981   -7.4768   16.9476 O   0  0  0  0  0  0  0  0  0  0  0  0
   16.5090   -8.5573   19.1935 H   0  0  0  0  0  0  0  0  0  0  0  0
   18.9975  -10.9347   13.9598 O   0  0  0  0  0  0  0  0  0  0  0  0
   18.7787  -12.2840   13.5634 C   0  0  0  0  0  0  0  0  0  0  0  0
   18.0760  -13.0463   14.6709 C   0  0  0  0  0  0  0  0  0  0  0  0
   15.8217  -10.6287   12.0110 N   0  0  0  0  0  0  0  0  0  0  0  0
   15.6389  -11.2713   12.7818 H   0  0  0  0  0  0  0  0  0  0  0  0
   14.5745  -10.0341   11.5568 C   0  0  0  0  0  0  0  0  0  0  0  0
   14.3891  -10.2885   10.0695 C   0  0  0  0  0  0  0  0  0  0  0  0
   14.9637   -9.1462    9.2404 C   0  0  0  0  0  0  0  0  0  0  0  0
   16.2918   -9.4818    8.7445 N   0  0  0  0  0  0  0  0  0  0  0  0
   17.0814   -8.7064    7.9813 C   0  0  0  0  0  0  0  0  0  0  0  0
   16.8343   -7.4272    7.4848 C   0  0  0  0  0  0  0  0  0  0  0  0
   17.8520   -6.8257    6.7204 C   0  0  0  0  0  0  0  0  0  0  0  0
   19.0687   -7.5043    6.4784 C   0  0  0  0  0  0  0  0  0  0  0  0
   19.2866   -8.7949    6.9969 C   0  0  0  0  0  0  0  0  0  0  0  0
   18.2580   -9.3601    7.7465 C   0  0  0  0  0  0  0  0  0  0  0  0
   18.1342  -10.5688    8.3988 C   0  0  0  0  0  0  0  0  0  0  0  0
   19.1499  -11.6545    8.4595 C   0  0  0  0  0  0  0  0  0  0  0  0
   16.9232  -10.6227    9.0034 N   0  0  0  0  0  0  0  0  0  0  0  0
  1 18  1  0  0  0
 18 20  1  0  0  0
 20 21  1  0  0  0
 21 22  1  0  0  0
 22 23  1  0  0  0
 23 24  1  0  0  0
 24 25  2  0  0  0
 25 26  1  0  0  0
 26 27  2  0  0  0
 27 28  1  0  0  0
 28 29  2  0  0  0
 29 30  1  0  0  0
 30 31  1  0  0  0
 30 32  2  0  0  0
  1  2  2  0  0  0
  1  3  2  0  0  0
  1  4  1  0  0  0
  4  5  2  0  0  0
  5 15  1  0  0  0
 15 16  1  0  0  0
 16 17  1  0  0  0
  5  6  1  0  0  0
  6  7  2  0  0  0
  7  8  1  0  0  0
  8  9  2  0  0  0
  8 10  1  0  0  0
 10 11  1  0  0  0
 11 12  1  0  0  0
 10 13  2  0  0  0
 32 23  1  0  0  0
  9  4  1  0  0  0
 29 24  1  0  0  0
 18 19  1  0  0  0
 11 14  1  0  0  0
M  END
>  <minimizedAffinity>
-0.41637

>  <minimizedRMSD>
1.22184

$$$$
CSC026737469 CSSS00026737469 MCULE-1700450819 MolPort-007-052-488 PubChem-46633625 Z133869352


 30 33  0  0  0  0  0  0  0  0999 V2000
   17.4656   -9.2161   12.3688 S   0  0  0  0  0  0  0  0  0  0  0  0
   16.9619   -7.8054   12.5129 O   0  0  0  0  0  0  0  0  0  0  0  0
   18.8556   -9.1766   11.7973 O   0  0  0  0  0  0  0  0  0  0  0  0
   17.5722  -11.2341   16.4589 C   0  0  0  0  0  0  0  0  0  0  0  0
   17.0081   -9.9541   16.3242 C   0  0  0  0  0  0  0  0  0  0  0  0
   16.9852   -9.3406   15.0626 C   0  0  0  0  0  0  0  0  0  0  0  0
   17.5189   -9.9869   13.9446 C   0  0  0  0  0  0  0  0  0  0  0  0
   18.0750  -11.2603   14.0800 C   0  0  0  0  0  0  0  0  0  0  0  0
   18.1031  -11.8805   15.3302 C   0  0  0  0  0  0  0  0  0  0  0  0
   16.4636   -9.3035   17.4829 N   0  0  0  0  0  0  0  0  0  0  0  0
   15.5521   -8.1978   17.4986 C   0  0  0  0  0  0  0  0  0  0  0  0
   15.0833   -7.6610   18.8023 C   0  0  0  0  0  0  0  0  0  0  0  0
   15.1422   -7.6711   16.4310 O   0  0  0  0  0  0  0  0  0  0  0  0
   16.7463   -9.6539   18.3584 H   0  0  0  0  0  0  0  0  0  0  0  0
   18.7401  -11.8367   18.5582 C   0  0  0  0  0  0  0  0  0  0  0  0
   17.5938  -11.8450   17.7181 O   0  0  0  0  0  0  0  0  0  0  0  0
   16.4235  -10.1203   11.3147 N   0  0  0  0  0  0  0  0  0  0  0  0
   15.8759   -9.1986   10.3230 C   0  0  0  0  0  0  0  0  0  0  0  0
   14.3723   -9.3920   10.2574 C   0  0  0  0  0  0  0  0  0  0  0  0
   14.0691  -10.5092   11.2202 C   0  0  0  0  0  0  0  0  0  0  0  0
   15.2905  -10.5905   12.1001 C   0  0  0  0  0  0  0  0  0  0  0  0
   16.4972   -9.4556    8.9871 C   0  0  0  0  0  0  0  0  0  0  0  0
   17.4810   -8.7216    8.4478 N   0  0  0  0  0  0  0  0  0  0  0  0
   17.7277   -9.3222    7.2777 C   0  0  0  0  0  0  0  0  0  0  0  0
   18.7098   -8.8444    6.4152 C   0  0  0  0  0  0  0  0  0  0  0  0
   19.4253   -7.7073    6.8296 C   0  0  0  0  0  0  0  0  0  0  0  0
   19.1461   -7.0930    8.0680 C   0  0  0  0  0  0  0  0  0  0  0  0
   18.1430   -7.6250    8.8927 C   0  0  0  0  0  0  0  0  0  0  0  0
   16.9340  -10.3916    7.0856 N   0  0  0  0  0  0  0  0  0  0  0  0
   16.1592  -10.4762    8.1646 N   0  0  0  0  0  0  0  0  0  0  0  0
 15 16  1  0  0  0
 16  4  1  0  0  0
  4  5  2  0  0  0
  5 10  1  0  0  0
 10 11  1  0  0  0
 11 12  1  0  0  0
 11 13  2  0  0  0
  5  6  1  0  0  0
  6  7  2  0  0  0
  7  1  1  0  0  0
  1 17  1  0  0  0
 17 18  1  0  0  0
 18 22  1  0  0  0
 22 23  1  0  0  0
 23 24  1  0  0  0
 24 25  1  0  0  0
 25 26  2  0  0  0
 26 27  1  0  0  0
 27 28  2  0  0  0
 24 29  2  0  0  0
 29 30  1  0  0  0
 18 19  1  0  0  0
 19 20  1  0  0  0
 20 21  1  0  0  0
  1  2  2  0  0  0
  1  3  2  0  0  0
  7  8  1  0  0  0
  8  9  2  0  0  0
  9  4  1  0  0  0
 21 17  1  0  0  0
 30 22  2  0  0  0
 28 23  1  0  0  0
 10 14  1  0  0  0
M  END
>  <minimizedAffinity>
-0.41166

>  <minimizedRMSD>
1.05569

$$$$
CSC027314575 CSSS00027314575 MCULE-7493615209 MolPort-023-149-166 Z1159732226


 27 29  0  0  0  0  0  0  0  0999 V2000
   17.6180   -8.7665   13.2039 N   0  0  0  0  0  0  0  0  0  0  0  0
   18.1139   -9.5080   12.0859 C   0  0  0  0  0  0  0  0  0  0  0  0
   19.1622  -10.1966   12.2161 O   0  0  0  0  0  0  0  0  0  0  0  0
   16.8046   -8.2233   13.0919 H   0  0  0  0  0  0  0  0  0  0  0  0
   17.3848   -9.4586   10.7908 C   0  0  0  0  0  0  0  0  0  0  0  0
   17.9014   -8.8551    9.6159 C   0  0  0  0  0  0  0  0  0  0  0  0
   17.1160   -8.8694    8.4352 C   0  0  0  0  0  0  0  0  0  0  0  0
   17.5976   -8.2826    7.2614 C   0  0  0  0  0  0  0  0  0  0  0  0
   18.8559   -7.6777    7.2434 C   0  0  0  0  0  0  0  0  0  0  0  0
   19.6382   -7.6570    8.3996 C   0  0  0  0  0  0  0  0  0  0  0  0
   19.1640   -8.2413    9.5766 C   0  0  0  0  0  0  0  0  0  0  0  0
   15.8899   -9.4532    8.4360 N   0  0  0  0  0  0  0  0  0  0  0  0
   15.3790  -10.0355    9.5501 C   0  0  0  0  0  0  0  0  0  0  0  0
   14.1217  -10.6218    9.5106 O   0  0  0  0  0  0  0  0  0  0  0  0
   16.1136  -10.0465   10.7346 C   0  0  0  0  0  0  0  0  0  0  0  0
   13.6265  -10.6153    8.7151 H   0  0  0  0  0  0  0  0  0  0  0  0
   18.2753   -8.7885   14.5000 C   0  0  0  0  0  0  0  0  0  0  0  0
   17.6099  -10.8620   15.7708 N   0  0  0  0  0  0  0  0  0  0  0  0
   17.4427   -9.5574   15.4689 C   0  0  0  0  0  0  0  0  0  0  0  0
   16.3812   -9.0354   16.1131 N   0  0  0  0  0  0  0  0  0  0  0  0
   15.8613  -10.0066   16.8512 N   0  0  0  0  0  0  0  0  0  0  0  0
   16.6110  -11.1044   16.6378 C   0  0  0  0  0  0  0  0  0  0  0  0
   16.2957  -12.6861   17.4142 S   0  0  0  0  0  0  0  0  0  0  0  0
   15.2134  -12.5824   18.2312 H   0  0  0  0  0  0  0  0  0  0  0  0
   18.0522  -12.6861   14.1896 C   0  0  0  0  0  0  0  0  0  0  0  0
   18.6151  -11.8110   15.2945 C   0  0  0  0  0  0  0  0  0  0  0  0
   19.8569  -11.0848   14.8109 C   0  0  0  0  0  0  0  0  0  0  0  0
 25 26  1  0  0  0
 26 18  1  0  0  0
 18 19  1  0  0  0
 19 17  1  0  0  0
 17  1  1  0  0  0
  1  2  1  0  0  0
  2  5  1  0  0  0
  5  6  1  0  0  0
  6  7  1  0  0  0
  7  8  2  0  0  0
  8  9  1  0  0  0
  9 10  2  0  0  0
 10 11  1  0  0  0
  7 12  1  0  0  0
 12 13  2  0  0  0
 13 14  1  0  0  0
 13 15  1  0  0  0
  2  3  2  0  0  0
 19 20  2  0  0  0
 20 21  1  0  0  0
 21 22  2  0  0  0
 22 23  1  0  0  0
 26 27  1  0  0  0
 22 18  1  0  0  0
 15  5  2  0  0  0
 11  6  2  0  0  0
  1  4  1  0  0  0
 14 16  1  0  0  0
 23 24  1  0  0  0
M  END
>  <minimizedAffinity>
-0.39549

>  <minimizedRMSD>
1.95199

$$$$
72159331 CSSS00160040268 MCULE-1526089056 MolPort-020-221-095 PubChem-56908617 ZINC000072159331 ZINC72159331


 28 30  0  0  0  0  0  0  0  0999 V2000
   18.3244  -10.2788   12.3637 N   0  0  0  0  0  0  0  0  0  0  0  0
   19.2746  -10.0326   12.2892 H   0  0  0  0  0  0  0  0  0  0  0  0
   17.4359   -9.9426   11.2977 C   0  0  0  0  0  0  0  0  0  0  0  0
   17.9020   -9.3311   10.1446 C   0  0  0  0  0  0  0  0  0  0  0  0
   19.1523   -8.9163    9.7208 C   0  0  0  0  0  0  0  0  0  0  0  0
   18.9880   -8.3619    8.4882 N   0  0  0  0  0  0  0  0  0  0  0  0
   17.7035   -8.4235    8.1553 N   0  0  0  0  0  0  0  0  0  0  0  0
   17.1514   -7.9251    6.9081 C   0  0  0  0  0  0  0  0  0  0  0  0
   17.0382   -9.0108    9.1542 C   0  0  0  0  0  0  0  0  0  0  0  0
   15.7100   -9.2649    9.2301 N   0  0  0  0  0  0  0  0  0  0  0  0
   15.2326   -9.8885   10.3547 C   0  0  0  0  0  0  0  0  0  0  0  0
   16.0957  -10.2026   11.3798 N   0  0  0  0  0  0  0  0  0  0  0  0
   13.7529  -10.1361   10.5108 C   0  0  0  0  0  0  0  0  0  0  0  0
   13.0194   -8.8102   10.4801 C   0  0  0  0  0  0  0  0  0  0  0  0
   13.2258  -11.0136    9.3880 C   0  0  0  0  0  0  0  0  0  0  0  0
   13.4527  -10.8311   11.8283 C   0  0  0  0  0  0  0  0  0  0  0  0
   17.8673  -10.9741   13.5560 C   0  0  0  0  0  0  0  0  0  0  0  0
   17.0461   -8.7229   16.4944 C   0  0  0  0  0  0  0  0  0  0  0  0
   16.9023   -9.5727   15.3877 C   0  0  0  0  0  0  0  0  0  0  0  0
   18.0294  -10.0935   14.7438 C   0  0  0  0  0  0  0  0  0  0  0  0
   19.3090   -9.7563   15.1954 C   0  0  0  0  0  0  0  0  0  0  0  0
   19.4609   -8.9103   16.2971 C   0  0  0  0  0  0  0  0  0  0  0  0
   18.3336   -8.3963   16.9446 C   0  0  0  0  0  0  0  0  0  0  0  0
   14.6656   -7.5903   19.3183 C   0  0  0  0  0  0  0  0  0  0  0  0
   15.8145   -8.1195   18.6031 N   0  0  0  0  0  0  0  0  0  0  0  0
   15.8583   -8.1775   17.1749 C   0  0  0  0  0  0  0  0  0  0  0  0
   14.8786   -7.7612   16.4974 O   0  0  0  0  0  0  0  0  0  0  0  0
   16.5867   -8.4483   19.1177 H   0  0  0  0  0  0  0  0  0  0  0  0
 24 25  1  0  0  0
 25 26  1  0  0  0
 26 27  2  0  0  0
 26 18  1  0  0  0
 18 19  2  0  0  0
 19 20  1  0  0  0
 20 17  1  0  0  0
 20 21  2  0  0  0
 17  1  1  0  0  0
  1  3  1  0  0  0
  3  4  2  0  0  0
  4  5  1  0  0  0
  5  6  2  0  0  0
  6  7  1  0  0  0
  7  8  1  0  0  0
  7  9  1  0  0  0
  9 10  2  0  0  0
  9  4  1  0  0  0
 10 11  1  0  0  0
 11 12  2  0  0  0
 11 13  1  0  0  0
 12  3  1  0  0  0
 13 14  1  0  0  0
 13 15  1  0  0  0
 13 16  1  0  0  0
 21 22  1  0  0  0
 22 23  2  0  0  0
 23 18  1  0  0  0
 25 28  1  0  0  0
  1  2  1  0  0  0
M  END
>  <minimizedAffinity>
-0.38817

>  <minimizedRMSD>
1.97788

$$$$
CSC026598660 CSSS00026598660 MCULE-7926735577 MolPort-044-227-228 PubChem-4849286 Z49890770 ZINC000254792060


 27 29  0  0  0  0  0  0  0  0999 V2000
   16.9313  -10.4549   12.7613 C   0  0  0  0  0  0  0  0  0  0  0  0
   16.1030  -10.0436   11.8585 N   0  0  0  0  0  0  0  0  0  0  0  0
   15.9384   -8.4582   15.8192 C   0  0  0  0  0  0  0  0  0  0  0  0
   16.7850   -9.0254   16.7829 C   0  0  0  0  0  0  0  0  0  0  0  0
   16.7451   -8.5655   18.0948 O   0  0  0  0  0  0  0  0  0  0  0  0
   17.6719  -10.0538   16.4310 C   0  0  0  0  0  0  0  0  0  0  0  0
   17.7060  -10.5123   15.1045 C   0  0  0  0  0  0  0  0  0  0  0  0
   16.8666   -9.9551   14.1381 C   0  0  0  0  0  0  0  0  0  0  0  0
   15.9850   -8.9287   14.4980 C   0  0  0  0  0  0  0  0  0  0  0  0
   16.1538   -7.8787   18.3327 H   0  0  0  0  0  0  0  0  0  0  0  0
   14.2088   -7.5266   17.3255 C   0  0  0  0  0  0  0  0  0  0  0  0
   15.0634   -7.4327   16.1939 O   0  0  0  0  0  0  0  0  0  0  0  0
   18.5064  -10.6029   17.4106 O   0  0  0  0  0  0  0  0  0  0  0  0
   18.3163  -11.9084   17.9391 C   0  0  0  0  0  0  0  0  0  0  0  0
   16.1926  -10.5289   10.5493 N   0  0  0  0  0  0  0  0  0  0  0  0
   16.0143  -11.4815   10.3763 H   0  0  0  0  0  0  0  0  0  0  0  0
   16.5370   -9.6738    9.4576 C   0  0  0  0  0  0  0  0  0  0  0  0
   17.7644   -8.9833    9.3750 C   0  0  0  0  0  0  0  0  0  0  0  0
   17.9331   -8.0941    8.3247 C   0  0  0  0  0  0  0  0  0  0  0  0
   19.4496   -7.3824    8.3722 S   0  0  0  0  0  0  0  0  0  0  0  0
   19.9419   -8.2274    9.7473 C   0  0  0  0  0  0  0  0  0  0  0  0
   18.9234   -9.0830   10.1769 C   0  0  0  0  0  0  0  0  0  0  0  0
   19.1324  -10.0666   11.2792 C   0  0  0  0  0  0  0  0  0  0  0  0
   21.2964   -8.1096   10.3559 C   0  0  0  0  0  0  0  0  0  0  0  0
   16.9943   -7.9075    7.3682 N   0  0  0  0  0  0  0  0  0  0  0  0
   15.8322   -8.6101    7.4418 C   0  0  0  0  0  0  0  0  0  0  0  0
   15.6147   -9.4768    8.4727 N   0  0  0  0  0  0  0  0  0  0  0  0
 11 12  1  0  0  0
 12  3  1  0  0  0
  3  4  2  0  0  0
  4  5  1  0  0  0
  4  6  1  0  0  0
  6 13  1  0  0  0
 13 14  1  0  0  0
  6  7  2  0  0  0
  7  8  1  0  0  0
  8  1  1  0  0  0
  1  2  2  0  0  0
  2 15  1  0  0  0
 15 17  1  0  0  0
 17 18  1  0  0  0
 18 19  2  0  0  0
 19 20  1  0  0  0
 20 21  1  0  0  0
 21 22  2  0  0  0
 22 23  1  0  0  0
 21 24  1  0  0  0
 19 25  1  0  0  0
 25 26  2  0  0  0
 26 27  1  0  0  0
  8  9  2  0  0  0
  9  3  1  0  0  0
 27 17  2  0  0  0
 22 18  1  0  0  0
  5 10  1  0  0  0
 15 16  1  0  0  0
M  END
>  <minimizedAffinity>
-0.37023

>  <minimizedRMSD>
1.34107

$$$$
CSSS03496580974 MolPort-047-848-883 PubChem-166335377 Z5009968970


 26 28  0  0  0  0  0  0  0  0999 V2000
   18.8374   -9.8721   11.5474 C   0  0  0  0  0  0  0  0  0  0  0  0
   19.5316  -10.5918   10.7791 O   0  0  0  0  0  0  0  0  0  0  0  0
   18.5701   -8.5092   11.2109 N   0  0  0  0  0  0  0  0  0  0  0  0
   18.0516   -7.9583   11.8409 H   0  0  0  0  0  0  0  0  0  0  0  0
   17.0900  -10.4185   14.6792 C   0  0  0  0  0  0  0  0  0  0  0  0
   17.4689   -9.7104   13.5965 N   0  0  0  0  0  0  0  0  0  0  0  0
   18.2961  -10.4328   12.7916 C   0  0  0  0  0  0  0  0  0  0  0  0
   18.5867  -11.7302   13.2244 C   0  0  0  0  0  0  0  0  0  0  0  0
   17.7605  -11.9514   14.6770 S   0  0  0  0  0  0  0  0  0  0  0  0
   15.1170   -8.1659   17.1278 C   0  0  0  0  0  0  0  0  0  0  0  0
   16.0526   -8.5439   16.0374 C   0  0  0  0  0  0  0  0  0  0  0  0
   16.6830   -7.6436   15.4222 O   0  0  0  0  0  0  0  0  0  0  0  0
   16.2221   -9.9251   15.7039 N   0  0  0  0  0  0  0  0  0  0  0  0
   15.7028  -10.5849   16.2179 H   0  0  0  0  0  0  0  0  0  0  0  0
   19.1242   -7.7912    9.7368 S   0  0  0  0  0  0  0  0  0  0  0  0
   18.8607   -6.3127    9.7717 O   0  0  0  0  0  0  0  0  0  0  0  0
   20.6024   -8.0238    9.5995 O   0  0  0  0  0  0  0  0  0  0  0  0
   18.2653   -8.4962    8.3751 C   0  0  0  0  0  0  0  0  0  0  0  0
   17.1538   -9.3366    8.4072 C   0  0  0  0  0  0  0  0  0  0  0  0
   16.3243   -9.8901    9.8490 Cl  0  0  0  0  0  0  0  0  0  0  0  0
   16.7811   -9.6897    7.1450 N   0  0  0  0  0  0  0  0  0  0  0  0
   17.6967   -9.0376    6.4027 C   0  0  0  0  0  0  0  0  0  0  0  0
   17.9530   -8.9427    4.7566 S   0  0  0  0  0  0  0  0  0  0  0  0
   19.3076   -7.9079    4.9726 C   0  0  0  0  0  0  0  0  0  0  0  0
   19.4985   -7.6824    6.3487 C   0  0  0  0  0  0  0  0  0  0  0  0
   18.5734   -8.3356    7.0862 N   0  0  0  0  0  0  0  0  0  0  0  0
 10 11  1  0  0  0
 11 12  2  0  0  0
 11 13  1  0  0  0
 13  5  1  0  0  0
  5  6  2  0  0  0
  6  7  1  0  0  0
  7  8  2  0  0  0
  8  9  1  0  0  0
  7  1  1  0  0  0
  1  2  2  0  0  0
  1  3  1  0  0  0
  3 15  1  0  0  0
 15 16  2  0  0  0
 15 17  2  0  0  0
 15 18  1  0  0  0
 18 19  2  0  0  0
 19 20  1  0  0  0
 19 21  1  0  0  0
 21 22  2  0  0  0
 22 23  1  0  0  0
 23 24  1  0  0  0
 24 25  2  0  0  0
 25 26  1  0  0  0
  9  5  1  0  0  0
 26 18  1  0  0  0
 26 22  1  0  0  0
 13 14  1  0  0  0
  3  4  1  0  0  0
M  END
>  <minimizedAffinity>
-0.33148

>  <minimizedRMSD>
2.11999

$$$$
CSC027409816 29268731 CSSS00027409816 MCULE-3231506928 MolPort-009-479-640 PubChem-36456117 Z282690158 ZINC000029268731 ZINC29268731


 36 40  0  0  0  0  0  0  0  0999 V2000
   17.4418   -9.4762   14.6711 C   0  0  0  0  0  0  0  0  0  0  0  0
   18.7334   -8.9092   15.2464 C   0  0  0  0  0  0  0  0  0  0  0  0
   19.0047   -9.6917   16.5108 C   0  0  0  0  0  0  0  0  0  0  0  0
   17.6428  -10.0766   17.0405 C   0  0  0  0  0  0  0  0  0  0  0  0
   16.7343  -10.1821   15.8298 C   0  0  0  0  0  0  0  0  0  0  0  0
   17.7680  -10.4478   13.5529 C   0  0  0  0  0  0  0  0  0  0  0  0
   18.2678  -11.5738   13.8320 O   0  0  0  0  0  0  0  0  0  0  0  0
   17.5109  -10.1201   12.1736 N   0  0  0  0  0  0  0  0  0  0  0  0
   17.8642  -11.0652   11.1181 C   0  0  0  0  0  0  0  0  0  0  0  0
   16.6709  -11.2651   10.1860 C   0  0  0  0  0  0  0  0  0  0  0  0
   16.1393   -9.9244    9.6672 C   0  0  0  0  0  0  0  0  0  0  0  0
   15.8153   -8.9746   10.8298 C   0  0  0  0  0  0  0  0  0  0  0  0
   17.0107   -8.8085   11.7678 C   0  0  0  0  0  0  0  0  0  0  0  0
   17.0586   -9.3253    8.6379 C   0  0  0  0  0  0  0  0  0  0  0  0
   17.0112   -9.6907    7.3290 N   0  0  0  0  0  0  0  0  0  0  0  0
   17.9669   -8.9296    6.7787 C   0  0  0  0  0  0  0  0  0  0  0  0
   18.3595   -8.8912    5.4430 C   0  0  0  0  0  0  0  0  0  0  0  0
   19.3952   -8.0024    5.0991 C   0  0  0  0  0  0  0  0  0  0  0  0
   19.9998   -7.1893    6.0842 C   0  0  0  0  0  0  0  0  0  0  0  0
   19.5758   -7.2554    7.4246 C   0  0  0  0  0  0  0  0  0  0  0  0
   18.5493   -8.1464    7.7272 C   0  0  0  0  0  0  0  0  0  0  0  0
   17.9899   -8.3744    8.9231 N   0  0  0  0  0  0  0  0  0  0  0  0
   18.1998   -7.9585    9.7904 H   0  0  0  0  0  0  0  0  0  0  0  0
   14.8073   -6.9242   14.2343 O   0  0  0  0  0  0  0  0  0  0  0  0
   15.4330   -7.8670   14.7873 C   0  0  0  0  0  0  0  0  0  0  0  0
   14.9848   -8.3893   16.0418 N   0  0  0  0  0  0  0  0  0  0  0  0
   16.5931   -8.4068   14.1440 N   0  0  0  0  0  0  0  0  0  0  0  0
   15.4424   -9.1776   16.4139 H   0  0  0  0  0  0  0  0  0  0  0  0
   16.8413   -8.0252   13.2710 H   0  0  0  0  0  0  0  0  0  0  0  0
   13.8818   -7.8061   16.7922 C   0  0  0  0  0  0  0  0  0  0  0  0
   14.3014   -7.5322   18.1963 C   0  0  0  0  0  0  0  0  0  0  0  0
   15.5325   -8.0049   18.6657 C   0  0  0  0  0  0  0  0  0  0  0  0
   15.9337   -7.7308   19.9768 C   0  0  0  0  0  0  0  0  0  0  0  0
   15.1063   -6.9815   20.8189 C   0  0  0  0  0  0  0  0  0  0  0  0
   13.8781   -6.5051   20.3499 C   0  0  0  0  0  0  0  0  0  0  0  0
   13.4766   -6.7790   19.0388 C   0  0  0  0  0  0  0  0  0  0  0  0
 24 25  2  0  0  0
 25 26  1  0  0  0
 25 27  1  0  0  0
 26 30  1  0  0  0
 30 31  1  0  0  0
 31 32  2  0  0  0
 32 33  1  0  0  0
 33 34  2  0  0  0
 34 35  1  0  0  0
 35 36  2  0  0  0
 36 31  1  0  0  0
 27  1  1  0  0  0
  1  2  1  0  0  0
  1  6  1  0  0  0
  2  3  1  0  0  0
  3  4  1  0  0  0
  4  5  1  0  0  0
  5  1  1  0  0  0
  6  7  2  0  0  0
  6  8  1  0  0  0
  8  9  1  0  0  0
  9 10  1  0  0  0
 10 11  1  0  0  0
 11 12  1  0  0  0
 11 14  1  0  0  0
 12 13  1  0  0  0
 13  8  1  0  0  0
 14 15  2  0  0  0
 15 16  1  0  0  0
 16 17  2  0  0  0
 17 18  1  0  0  0
 18 19  2  0  0  0
 19 20  1  0  0  0
 20 21  2  0  0  0
 21 22  1  0  0  0
 21 16  1  0  0  0
 22 14  1  0  0  0
 26 28  1  0  0  0
 27 29  1  0  0  0
 22 23  1  0  0  0
M  END
>  <minimizedAffinity>
-0.24929

>  <minimizedRMSD>
2.49888

$$$$
CSC027851960 CSSS00027851960 MCULE-7649814605 MolPort-044-540-432 PubChem-126838613 Z2635918419


 31 34  0  0  0  0  0  0  0  0999 V2000
   16.2655   -9.8874   12.2928 C   0  0  0  0  0  0  0  0  0  0  0  0
   19.2219  -11.9540   13.4478 C   0  0  0  0  0  0  0  0  0  0  0  0
   19.5463  -11.3434   14.6612 C   0  0  0  0  0  0  0  0  0  0  0  0
   18.8008  -10.2530   15.1160 C   0  0  0  0  0  0  0  0  0  0  0  0
   17.7293   -9.7642   14.3605 C   0  0  0  0  0  0  0  0  0  0  0  0
   17.4021  -10.3785   13.1344 C   0  0  0  0  0  0  0  0  0  0  0  0
   18.1529  -11.4733   12.6878 C   0  0  0  0  0  0  0  0  0  0  0  0
   16.9439   -8.6097   14.8973 C   0  0  0  0  0  0  0  0  0  0  0  0
   15.9808   -9.0688   15.8883 N   0  0  0  0  0  0  0  0  0  0  0  0
   15.0304   -7.9791   16.0775 C   0  0  0  0  0  0  0  0  0  0  0  0
   14.8615   -7.7606   17.5601 C   0  0  0  0  0  0  0  0  0  0  0  0
   16.1647   -8.2236   18.1451 C   0  0  0  0  0  0  0  0  0  0  0  0
   16.6964   -9.2381   17.1539 C   0  0  0  0  0  0  0  0  0  0  0  0
   16.4624  -10.6392   17.6960 C   0  0  0  0  0  0  0  0  0  0  0  0
   17.6813  -11.2937   17.8733 O   0  0  0  0  0  0  0  0  0  0  0  0
   18.1405  -11.3583   17.0213 H   0  0  0  0  0  0  0  0  0  0  0  0
   16.7623   -9.3265   11.0436 N   0  0  0  0  0  0  0  0  0  0  0  0
   18.1437   -9.0318   10.8132 C   0  0  0  0  0  0  0  0  0  0  0  0
   18.9705   -9.1675   11.7566 O   0  0  0  0  0  0  0  0  0  0  0  0
   16.1170   -9.1413   10.3235 H   0  0  0  0  0  0  0  0  0  0  0  0
   18.6179   -8.5402    9.4918 C   0  0  0  0  0  0  0  0  0  0  0  0
   18.0392   -8.9180    8.2506 C   0  0  0  0  0  0  0  0  0  0  0  0
   16.9678   -9.8197    8.1664 C   0  0  0  0  0  0  0  0  0  0  0  0
   16.4400  -10.1646    6.9622 N   0  0  0  0  0  0  0  0  0  0  0  0
   16.9253   -9.6579    5.7993 C   0  0  0  0  0  0  0  0  0  0  0  0
   17.9935   -8.7627    5.8182 C   0  0  0  0  0  0  0  0  0  0  0  0
   18.5591   -8.3889    7.0413 C   0  0  0  0  0  0  0  0  0  0  0  0
   19.6414   -7.5001    7.0707 C   0  0  0  0  0  0  0  0  0  0  0  0
   20.2123   -7.1397    8.2891 C   0  0  0  0  0  0  0  0  0  0  0  0
   19.7068   -7.6547    9.4820 C   0  0  0  0  0  0  0  0  0  0  0  0
   20.1507   -6.9862    5.9225 F   0  0  0  0  0  0  0  0  0  0  0  0
  2  3  2  0  0  0
  3  4  1  0  0  0
  4  5  2  0  0  0
  5  8  1  0  0  0
  8  9  1  0  0  0
  9 10  1  0  0  0
 10 11  1  0  0  0
 11 12  1  0  0  0
 12 13  1  0  0  0
 13 14  1  0  0  0
 14 15  1  0  0  0
  5  6  1  0  0  0
  6  7  2  0  0  0
  6  1  1  0  0  0
  1 17  1  0  0  0
 17 18  1  0  0  0
 18 19  2  0  0  0
 18 21  1  0  0  0
 21 22  1  0  0  0
 22 23  2  0  0  0
 23 24  1  0  0  0
 24 25  2  0  0  0
 25 26  1  0  0  0
 26 27  2  0  0  0
 27 28  1  0  0  0
 28 29  2  0  0  0
 29 30  1  0  0  0
 28 31  1  0  0  0
  7  2  1  0  0  0
 13  9  1  0  0  0
 30 21  2  0  0  0
 27 22  1  0  0  0
 15 16  1  0  0  0
 17 20  1  0  0  0
M  END
>  <minimizedAffinity>
-0.23912

>  <minimizedRMSD>
2.08028

$$$$
CSC028317762 8882736 CSSS00028317762 MCULE-3637613419 MolPort-004-495-661 PubChem-16275423 Z15989037 ZINC000008882736 ZINC08882736


 31 33  0  0  0  0  0  0  0  0999 V2000
   17.9683  -10.5370   13.4612 N   0  0  0  0  0  0  0  0  0  0  0  0
   17.3609  -10.0669   12.2509 C   0  0  0  0  0  0  0  0  0  0  0  0
   16.8020   -8.9397   12.1940 O   0  0  0  0  0  0  0  0  0  0  0  0
   18.3790  -11.4312   13.4306 H   0  0  0  0  0  0  0  0  0  0  0  0
   16.9928   -8.7753   16.6321 C   0  0  0  0  0  0  0  0  0  0  0  0
   18.2553   -8.4691   17.1497 C   0  0  0  0  0  0  0  0  0  0  0  0
   19.4069   -8.8472   16.4546 C   0  0  0  0  0  0  0  0  0  0  0  0
   19.2978   -9.5302   15.2398 C   0  0  0  0  0  0  0  0  0  0  0  0
   18.0396   -9.8393   14.7117 C   0  0  0  0  0  0  0  0  0  0  0  0
   16.8875   -9.4558   15.4146 C   0  0  0  0  0  0  0  0  0  0  0  0
   15.9804   -7.6120   19.0252 N   0  0  0  0  0  0  0  0  0  0  0  0
   15.5460   -8.2912   17.4969 S   0  0  0  0  0  0  0  0  0  0  0  0
   14.6705   -9.4901   17.7307 O   0  0  0  0  0  0  0  0  0  0  0  0
   14.7948   -7.2710   16.6895 O   0  0  0  0  0  0  0  0  0  0  0  0
   15.1364   -7.3318   19.5249 H   0  0  0  0  0  0  0  0  0  0  0  0
   16.5750   -6.7964   18.8781 H   0  0  0  0  0  0  0  0  0  0  0  0
   17.4251  -10.9137   11.0253 C   0  0  0  0  0  0  0  0  0  0  0  0
   17.3441  -10.0815    9.8301 N   0  0  0  0  0  0  0  0  0  0  0  0
   16.1139   -9.8152    9.3106 C   0  0  0  0  0  0  0  0  0  0  0  0
   15.9833   -9.0338    8.2078 N   0  0  0  0  0  0  0  0  0  0  0  0
   17.0717   -8.4996    7.6002 C   0  0  0  0  0  0  0  0  0  0  0  0
   16.9182   -7.6968    6.4675 C   0  0  0  0  0  0  0  0  0  0  0  0
   18.0411   -7.1465    5.8432 C   0  0  0  0  0  0  0  0  0  0  0  0
   19.3287   -7.3933    6.3451 C   0  0  0  0  0  0  0  0  0  0  0  0
   19.4796   -8.1997    7.4822 C   0  0  0  0  0  0  0  0  0  0  0  0
   18.3578   -8.7549    8.1134 C   0  0  0  0  0  0  0  0  0  0  0  0
   18.4716   -9.5653    9.2519 C   0  0  0  0  0  0  0  0  0  0  0  0
   19.6096   -9.8174    9.7387 O   0  0  0  0  0  0  0  0  0  0  0  0
   20.4808   -6.8284    5.7049 N   0  0  0  0  0  0  0  0  0  0  0  0
   21.7183   -7.4086    5.8644 O   0  0  0  0  0  0  0  0  0  0  0  0
   20.3753   -5.8057    4.9962 O   0  0  0  0  0  0  0  0  0  0  0  0
 11 12  1  0  0  0
 12 13  2  0  0  0
 12 14  2  0  0  0
 12  5  1  0  0  0
  5  6  2  0  0  0
  6  7  1  0  0  0
  7  8  2  0  0  0
  8  9  1  0  0  0
  9  1  1  0  0  0
  9 10  2  0  0  0
  1  2  1  0  0  0
  2  3  2  0  0  0
  2 17  1  0  0  0
 17 18  1  0  0  0
 18 19  1  0  0  0
 19 20  2  0  0  0
 20 21  1  0  0  0
 21 22  2  0  0  0
 22 23  1  0  0  0
 23 24  2  0  0  0
 24 25  1  0  0  0
 24 29  1  0  0  0
 25 26  2  0  0  0
 26 27  1  0  0  0
 26 21  1  0  0  0
 27 28  2  0  0  0
 27 18  1  0  0  0
 29 30  1  0  0  0
 29 31  2  0  0  0
 10  5  1  0  0  0
 11 15  1  0  0  0
 11 16  1  0  0  0
  1  4  1  0  0  0
M  CHG 1  29   1
M  CHG 1  30  -1
M  END
>  <minimizedAffinity>
-0.23568

>  <minimizedRMSD>
1.41117

$$$$
67920237 CSSS00159556047 MCULE-6108000460 MolPort-019-821-382 ZINC000067920237


 28 31  0  0  0  0  0  0  0  0999 V2000
   16.5267  -10.4062   13.4116 C   0  0  0  0  0  0  0  0  0  0  0  0
   15.7915   -9.1945   12.8351 C   0  0  0  0  0  0  0  0  0  0  0  0
   15.4989   -9.4154   11.3548 C   0  0  0  0  0  0  0  0  0  0  0  0
   16.7390   -9.7483   10.6577 N   0  0  0  0  0  0  0  0  0  0  0  0
   17.4949  -10.8955   11.1529 C   0  0  0  0  0  0  0  0  0  0  0  0
   17.8105  -10.6970   12.6322 C   0  0  0  0  0  0  0  0  0  0  0  0
   17.2448   -8.9694    9.5565 C   0  0  0  0  0  0  0  0  0  0  0  0
   16.4172   -8.6243    8.5220 N   0  0  0  0  0  0  0  0  0  0  0  0
   16.8608   -7.8869    7.4550 C   0  0  0  0  0  0  0  0  0  0  0  0
   15.9626   -7.5533    6.4041 N   0  0  0  0  0  0  0  0  0  0  0  0
   18.1605   -7.4713    7.3949 N   0  0  0  0  0  0  0  0  0  0  0  0
   18.9860   -7.8082    8.4136 C   0  0  0  0  0  0  0  0  0  0  0  0
   20.2819   -7.4933    8.5263 N   0  0  0  0  0  0  0  0  0  0  0  0
   20.6217   -8.0684    9.7115 C   0  0  0  0  0  0  0  0  0  0  0  0
   19.5936   -8.7173   10.3231 N   0  0  0  0  0  0  0  0  0  0  0  0
   18.5716   -8.5333    9.4749 C   0  0  0  0  0  0  0  0  0  0  0  0
   15.0252   -7.8514    6.4445 H   0  0  0  0  0  0  0  0  0  0  0  0
   16.2782   -7.0242    5.6361 H   0  0  0  0  0  0  0  0  0  0  0  0
   20.8467   -6.9760    7.9076 H   0  0  0  0  0  0  0  0  0  0  0  0
   17.7551  -10.8743   15.5765 N   0  0  0  0  0  0  0  0  0  0  0  0
   17.6250  -10.3517   16.8066 C   0  0  0  0  0  0  0  0  0  0  0  0
   18.3107  -10.7066   17.8017 O   0  0  0  0  0  0  0  0  0  0  0  0
   16.6723   -9.4038   16.8581 N   0  0  0  0  0  0  0  0  0  0  0  0
   16.1688   -9.3121   15.6338 N   0  0  0  0  0  0  0  0  0  0  0  0
   16.8258  -10.2043   14.8642 C   0  0  0  0  0  0  0  0  0  0  0  0
   16.4021   -8.8814   17.6476 H   0  0  0  0  0  0  0  0  0  0  0  0
   18.6484  -11.9422   15.1452 C   0  0  0  0  0  0  0  0  0  0  0  0
   17.8784  -13.2418   15.0078 C   0  0  0  0  0  0  0  0  0  0  0  0
 20 27  1  0  0  0
 27 28  1  0  0  0
 20 21  1  0  0  0
 21 22  2  0  0  0
 21 23  1  0  0  0
 23 24  1  0  0  0
 24 25  2  0  0  0
 25  1  1  0  0  0
  1  2  1  0  0  0
  2  3  1  0  0  0
  3  4  1  0  0  0
  4  5  1  0  0  0
  5  6  1  0  0  0
  4  7  1  0  0  0
  7  8  2  0  0  0
  8  9  1  0  0  0
  9 10  1  0  0  0
  9 11  2  0  0  0
 11 12  1  0  0  0
 12 13  1  0  0  0
 13 14  1  0  0  0
 14 15  2  0  0  0
 15 16  1  0  0  0
 25 20  1  0  0  0
  6  1  1  0  0  0
 16  7  1  0  0  0
 16 12  2  0  0  0
 23 26  1  0  0  0
 10 17  1  0  0  0
 10 18  1  0  0  0
 13 19  1  0  0  0
M  END
>  <minimizedAffinity>
-0.18621

>  <minimizedRMSD>
2.50010

$$$$
CSSS00160556264 MCULE-4519025313 MolPort-046-924-801 PubChem-146114983 Z3416868260


 30 34  0  0  0  0  0  0  0  0999 V2000
   17.4553  -10.6892   14.6196 C   0  0  0  0  0  0  0  0  0  0  0  0
   17.6665  -11.9162   13.7499 C   0  0  0  0  0  0  0  0  0  0  0  0
   19.1412  -11.5787   13.7038 C   0  0  0  0  0  0  0  0  0  0  0  0
   18.6397  -10.1552   13.8364 C   0  0  0  0  0  0  0  0  0  0  0  0
   18.0049  -10.0020   12.5420 N   0  0  0  0  0  0  0  0  0  0  0  0
   17.2886  -11.2738   12.4193 C   0  0  0  0  0  0  0  0  0  0  0  0
   18.5419   -9.2408   11.4504 C   0  0  0  0  0  0  0  0  0  0  0  0
   19.5792   -8.5495   11.6392 O   0  0  0  0  0  0  0  0  0  0  0  0
   17.8689   -9.2231   10.1251 C   0  0  0  0  0  0  0  0  0  0  0  0
   16.5938   -9.7925   10.0163 C   0  0  0  0  0  0  0  0  0  0  0  0
   15.9113   -9.7801    8.8001 C   0  0  0  0  0  0  0  0  0  0  0  0
   16.4853   -9.2082    7.7069 N   0  0  0  0  0  0  0  0  0  0  0  0
   17.7188   -8.6431    7.7600 C   0  0  0  0  0  0  0  0  0  0  0  0
   18.2681   -8.0759    6.6066 C   0  0  0  0  0  0  0  0  0  0  0  0
   19.5411   -7.5027    6.6439 C   0  0  0  0  0  0  0  0  0  0  0  0
   20.2712   -7.4966    7.8342 C   0  0  0  0  0  0  0  0  0  0  0  0
   19.7289   -8.0606    8.9918 C   0  0  0  0  0  0  0  0  0  0  0  0
   18.4472   -8.6345    8.9751 C   0  0  0  0  0  0  0  0  0  0  0  0
   14.6434  -10.3570    8.7243 O   0  0  0  0  0  0  0  0  0  0  0  0
   13.7636  -10.3902    9.8381 C   0  0  0  0  0  0  0  0  0  0  0  0
   17.2872  -10.1810   17.1546 C   0  0  0  0  0  0  0  0  0  0  0  0
   17.7634  -10.9060   16.0827 C   0  0  0  0  0  0  0  0  0  0  0  0
   18.5471  -11.8437   16.5547 O   0  0  0  0  0  0  0  0  0  0  0  0
   18.5732  -11.7220   17.8648 C   0  0  0  0  0  0  0  0  0  0  0  0
   17.8010  -10.6963   18.2872 N   0  0  0  0  0  0  0  0  0  0  0  0
   14.9030   -7.4143   18.3895 C   0  0  0  0  0  0  0  0  0  0  0  0
   15.8175   -8.5429   18.3524 N   0  0  0  0  0  0  0  0  0  0  0  0
   16.3663   -9.0332   17.1279 C   0  0  0  0  0  0  0  0  0  0  0  0
   16.0600   -8.4863   16.0339 O   0  0  0  0  0  0  0  0  0  0  0  0
   16.0665   -8.9832   19.1970 H   0  0  0  0  0  0  0  0  0  0  0  0
 26 27  1  0  0  0
 27 28  1  0  0  0
 28 29  2  0  0  0
 28 21  1  0  0  0
 21 22  2  0  0  0
 22 23  1  0  0  0
 23 24  1  0  0  0
 24 25  2  0  0  0
 22  1  1  0  0  0
  1  2  1  0  0  0
  2  3  1  0  0  0
  3  4  1  0  0  0
  4  5  1  0  0  0
  5  6  1  0  0  0
  5  7  1  0  0  0
  7  8  2  0  0  0
  7  9  1  0  0  0
  9 10  2  0  0  0
 10 11  1  0  0  0
 11 19  1  0  0  0
 19 20  1  0  0  0
 11 12  2  0  0  0
 12 13  1  0  0  0
 13 14  2  0  0  0
 14 15  1  0  0  0
 15 16  2  0  0  0
 16 17  1  0  0  0
 17 18  2  0  0  0
 25 21  1  0  0  0
  4  1  1  0  0  0
 18  9  1  0  0  0
  6  2  1  0  0  0
 18 13  1  0  0  0
 27 30  1  0  0  0
M  END
>  <minimizedAffinity>
-0.18539

>  <minimizedRMSD>
1.07568

$$$$
CSSS00133032709 MCULE-2288077027 MolPort-044-610-135 PubChem-132322912 Z2640946558


 31 34  0  0  0  0  0  0  0  0999 V2000
   17.3534   -9.6980   11.3672 C   0  0  0  0  0  0  0  0  0  0  0  0
   15.4795   -9.8728    9.6625 C   0  0  0  0  0  0  0  0  0  0  0  0
   15.9230   -9.9866   10.9961 C   0  0  0  0  0  0  0  0  0  0  0  0
   14.9765  -10.2443   11.9987 C   0  0  0  0  0  0  0  0  0  0  0  0
   13.6319  -10.4130   11.6742 C   0  0  0  0  0  0  0  0  0  0  0  0
   13.2360  -10.3012   10.3426 C   0  0  0  0  0  0  0  0  0  0  0  0
   14.1565  -10.0333    9.3786 N   0  0  0  0  0  0  0  0  0  0  0  0
   19.8208   -7.3837    8.1920 C   0  0  0  0  0  0  0  0  0  0  0  0
   19.1703   -7.3025    9.4443 C   0  0  0  0  0  0  0  0  0  0  0  0
   17.9787   -8.0126    9.6774 C   0  0  0  0  0  0  0  0  0  0  0  0
   17.4709   -8.7731    8.6249 C   0  0  0  0  0  0  0  0  0  0  0  0
   18.1078   -8.8678    7.4248 C   0  0  0  0  0  0  0  0  0  0  0  0
   19.2917   -8.1850    7.1616 C   0  0  0  0  0  0  0  0  0  0  0  0
   17.4511   -9.7166    6.6118 N   0  0  0  0  0  0  0  0  0  0  0  0
   16.4055  -10.1421    7.3705 C   0  0  0  0  0  0  0  0  0  0  0  0
   16.3861   -9.5621    8.5959 N   0  0  0  0  0  0  0  0  0  0  0  0
   17.5159   -9.6014   12.8135 N   0  0  0  0  0  0  0  0  0  0  0  0
   16.9188   -8.5593   13.5886 C   0  0  0  0  0  0  0  0  0  0  0  0
   16.0328   -7.8148   13.0916 O   0  0  0  0  0  0  0  0  0  0  0  0
   18.0586  -10.2813   13.2744 H   0  0  0  0  0  0  0  0  0  0  0  0
   17.3838   -8.3155   14.9815 C   0  0  0  0  0  0  0  0  0  0  0  0
   17.9227   -9.5468   15.5444 N   0  0  0  0  0  0  0  0  0  0  0  0
   19.0536  -10.1731   14.8693 C   0  0  0  0  0  0  0  0  0  0  0  0
   18.6476  -11.5141   14.2700 C   0  0  0  0  0  0  0  0  0  0  0  0
   18.7558  -12.6344   15.3008 C   0  0  0  0  0  0  0  0  0  0  0  0
   17.6762  -12.5476   16.3740 C   0  0  0  0  0  0  0  0  0  0  0  0
   17.9200  -11.3828   17.3216 C   0  0  0  0  0  0  0  0  0  0  0  0
   17.3582  -10.1125   16.7415 C   0  0  0  0  0  0  0  0  0  0  0  0
   16.3897   -9.5374   17.3114 O   0  0  0  0  0  0  0  0  0  0  0  0
   17.3258  -11.6667   18.5523 O   0  0  0  0  0  0  0  0  0  0  0  0
   16.3718  -11.7917   18.4296 H   0  0  0  0  0  0  0  0  0  0  0  0
  8  9  2  0  0  0
  9 10  1  0  0  0
 10 11  2  0  0  0
 11 12  1  0  0  0
 12 13  2  0  0  0
 12 14  1  0  0  0
 14 15  2  0  0  0
 15 16  1  0  0  0
 16  2  1  0  0  0
  2  3  1  0  0  0
  3  4  2  0  0  0
  4  5  1  0  0  0
  5  6  2  0  0  0
  6  7  1  0  0  0
  3  1  1  0  0  0
  1 17  1  0  0  0
 17 18  1  0  0  0
 18 19  2  0  0  0
 18 21  1  0  0  0
 21 22  1  0  0  0
 22 23  1  0  0  0
 23 24  1  0  0  0
 24 25  1  0  0  0
 25 26  1  0  0  0
 26 27  1  0  0  0
 27 28  1  0  0  0
 28 29  2  0  0  0
 27 30  1  0  0  0
 13  8  1  0  0  0
 16 11  1  0  0  0
  7  2  2  0  0  0
 28 22  1  0  0  0
 17 20  1  0  0  0
 30 31  1  0  0  0
M  END
>  <minimizedAffinity>
-0.16354

>  <minimizedRMSD>
2.06633

$$$$
CSC026221603 32873927 CSSS00026221603 MCULE-5961268847 MolPort-009-436-655 PubChem-40108373 Z221489434 ZINC000032873927 ZINC32873927


 28 30  0  0  0  0  0  0  0  0999 V2000
   16.7790   -9.4544   13.5916 C   0  0  0  0  0  0  0  0  0  0  0  0
   17.9512   -9.7324   13.9632 O   0  0  0  0  0  0  0  0  0  0  0  0
   15.8123   -9.0105   14.5542 N   0  0  0  0  0  0  0  0  0  0  0  0
   14.9078   -8.8026   14.2259 H   0  0  0  0  0  0  0  0  0  0  0  0
   14.6088  -10.0383   10.5669 C   0  0  0  0  0  0  0  0  0  0  0  0
   15.0481   -9.9047   11.8837 C   0  0  0  0  0  0  0  0  0  0  0  0
   16.3824   -9.5802   12.1636 C   0  0  0  0  0  0  0  0  0  0  0  0
   17.2730   -9.3914   11.0762 C   0  0  0  0  0  0  0  0  0  0  0  0
   18.6266   -9.0643   11.2586 C   0  0  0  0  0  0  0  0  0  0  0  0
   19.4731   -8.8862   10.1615 C   0  0  0  0  0  0  0  0  0  0  0  0
   18.9779   -9.0327    8.8646 C   0  0  0  0  0  0  0  0  0  0  0  0
   17.6353   -9.3576    8.6615 C   0  0  0  0  0  0  0  0  0  0  0  0
   16.7820   -9.5374    9.7541 C   0  0  0  0  0  0  0  0  0  0  0  0
   15.4794   -9.8530    9.5389 N   0  0  0  0  0  0  0  0  0  0  0  0
   12.3709   -9.1344   10.0161 C   0  0  0  0  0  0  0  0  0  0  0  0
   13.1801  -10.3850   10.3028 C   0  0  0  0  0  0  0  0  0  0  0  0
   12.5828  -11.1262   11.4838 C   0  0  0  0  0  0  0  0  0  0  0  0
   16.0594   -8.8463   15.9538 C   0  0  0  0  0  0  0  0  0  0  0  0
   15.3260   -8.0639   16.7706 N   0  0  0  0  0  0  0  0  0  0  0  0
   15.7949   -8.1051   18.0473 C   0  0  0  0  0  0  0  0  0  0  0  0
   16.9003   -8.9270   18.2716 C   0  0  0  0  0  0  0  0  0  0  0  0
   17.2954   -9.6121   16.7827 S   0  0  0  0  0  0  0  0  0  0  0  0
   15.1352   -7.3447   19.1458 C   0  0  0  0  0  0  0  0  0  0  0  0
   13.6704   -7.2376   18.8950 C   0  0  0  0  0  0  0  0  0  0  0  0
   12.7723   -8.1450   19.5229 N   0  0  0  0  0  0  0  0  0  0  0  0
   13.2294   -6.3649   18.1030 O   0  0  0  0  0  0  0  0  0  0  0  0
   13.1161   -8.8283   20.1427 H   0  0  0  0  0  0  0  0  0  0  0  0
   11.8070   -8.0896   19.3375 H   0  0  0  0  0  0  0  0  0  0  0  0
 15 16  1  0  0  0
 16 17  1  0  0  0
 16  5  1  0  0  0
  5  6  2  0  0  0
  6  7  1  0  0  0
  7  1  1  0  0  0
  7  8  2  0  0  0
  1  2  2  0  0  0
  1  3  1  0  0  0
  3 18  1  0  0  0
 18 19  2  0  0  0
 19 20  1  0  0  0
 20 23  1  0  0  0
 20 21  2  0  0  0
 23 24  1  0  0  0
 24 25  1  0  0  0
 24 26  2  0  0  0
 21 22  1  0  0  0
 22 18  1  0  0  0
  8  9  1  0  0  0
  9 10  2  0  0  0
 10 11  1  0  0  0
 11 12  2  0  0  0
 12 13  1  0  0  0
 13 14  2  0  0  0
 13  8  1  0  0  0
 14  5  1  0  0  0
  3  4  1  0  0  0
 25 27  1  0  0  0
 25 28  1  0  0  0
M  END
>  <minimizedAffinity>
-0.14985

>  <minimizedRMSD>
3.22671

$$$$
CSC026056051 CSSS00026056051 MCULE-7648979152 MolPort-009-319-170 PubChem-45895004 Z424332642


 33 36  0  0  0  0  0  0  0  0999 V2000
   15.7587   -9.6674   12.9764 C   0  0  0  0  0  0  0  0  0  0  0  0
   15.5567   -8.4411   13.1818 O   0  0  0  0  0  0  0  0  0  0  0  0
   16.1725  -10.5420   14.0344 N   0  0  0  0  0  0  0  0  0  0  0  0
   16.3189  -11.4858   13.7955 H   0  0  0  0  0  0  0  0  0  0  0  0
   16.3951  -10.1832   15.4046 C   0  0  0  0  0  0  0  0  0  0  0  0
   17.3475  -10.8935   16.1407 C   0  0  0  0  0  0  0  0  0  0  0  0
   17.5883  -10.5749   17.4789 C   0  0  0  0  0  0  0  0  0  0  0  0
   16.8763   -9.5405   18.0901 C   0  0  0  0  0  0  0  0  0  0  0  0
   15.9217   -8.8069   17.3671 C   0  0  0  0  0  0  0  0  0  0  0  0
   15.6833   -9.1462   16.0250 C   0  0  0  0  0  0  0  0  0  0  0  0
   15.1145   -7.7078   18.0268 C   0  0  0  0  0  0  0  0  0  0  0  0
   14.7895   -6.5906   17.0450 C   0  0  0  0  0  0  0  0  0  0  0  0
   15.8147   -7.1441   19.1784 N   0  0  0  0  0  0  0  0  0  0  0  0
   15.0054   -7.3938   20.3213 C   0  0  0  0  0  0  0  0  0  0  0  0
   15.3386   -7.0396   21.4816 O   0  0  0  0  0  0  0  0  0  0  0  0
   13.7920   -8.0711   20.0456 N   0  0  0  0  0  0  0  0  0  0  0  0
   13.8576   -8.2546   18.6389 C   0  0  0  0  0  0  0  0  0  0  0  0
   12.9357   -8.8137   17.9874 O   0  0  0  0  0  0  0  0  0  0  0  0
   16.6825   -6.6793   19.1659 H   0  0  0  0  0  0  0  0  0  0  0  0
   13.0828   -8.3451   20.6710 H   0  0  0  0  0  0  0  0  0  0  0  0
   15.5990  -10.2131   11.5984 C   0  0  0  0  0  0  0  0  0  0  0  0
   21.0033   -7.7587    8.9450 C   0  0  0  0  0  0  0  0  0  0  0  0
   19.6699   -8.0880    8.3642 C   0  0  0  0  0  0  0  0  0  0  0  0
   18.6402   -8.6260    9.1571 C   0  0  0  0  0  0  0  0  0  0  0  0
   18.8342   -8.8628   10.4812 N   0  0  0  0  0  0  0  0  0  0  0  0
   17.8450   -9.3793   11.2542 C   0  0  0  0  0  0  0  0  0  0  0  0
   16.6297   -9.6754   10.7178 N   0  0  0  0  0  0  0  0  0  0  0  0
   16.3815   -9.4560    9.3906 C   0  0  0  0  0  0  0  0  0  0  0  0
   15.2504   -9.7334    8.9002 O   0  0  0  0  0  0  0  0  0  0  0  0
   17.3898   -8.9222    8.5746 C   0  0  0  0  0  0  0  0  0  0  0  0
   17.1821   -8.6792    7.2093 C   0  0  0  0  0  0  0  0  0  0  0  0
   18.2096   -8.1464    6.4274 C   0  0  0  0  0  0  0  0  0  0  0  0
   19.4482   -7.8516    7.0039 C   0  0  0  0  0  0  0  0  0  0  0  0
 22 23  1  0  0  0
 23 24  2  0  0  0
 24 25  1  0  0  0
 25 26  2  0  0  0
 26 27  1  0  0  0
 27 21  1  0  0  0
 27 28  1  0  0  0
 21  1  1  0  0  0
  1  2  2  0  0  0
  1  3  1  0  0  0
  3  5  1  0  0  0
  5  6  2  0  0  0
  6  7  1  0  0  0
  7  8  2  0  0  0
  8  9  1  0  0  0
  9 10  2  0  0  0
 10  5  1  0  0  0
 11  9  1  0  0  0
 11 12  1  0  0  0
 11 13  1  0  0  0
 13 14  1  0  0  0
 14 15  2  0  0  0
 14 16  1  0  0  0
 16 17  1  0  0  0
 17 18  2  0  0  0
 17 11  1  0  0  0
 28 29  2  0  0  0
 28 30  1  0  0  0
 30 31  2  0  0  0
 30 24  1  0  0  0
 31 32  1  0  0  0
 32 33  2  0  0  0
 33 23  1  0  0  0
  3  4  1  0  0  0
 13 19  1  0  0  0
 16 20  1  0  0  0
M  END
>  <minimizedAffinity>
-0.14012

>  <minimizedRMSD>
2.43823

$$$$
CSSS03519710208 Z99051993


 29 31  0  0  0  0  0  0  0  0999 V2000
   19.2248  -10.0813   11.5306 O   0  0  0  0  0  0  0  0  0  0  0  0
   18.8461   -9.2327   10.4925 C   0  0  0  0  0  0  0  0  0  0  0  0
   19.6036   -8.2841   10.1500 O   0  0  0  0  0  0  0  0  0  0  0  0
   18.4112   -9.1008    7.3629 C   0  0  0  0  0  0  0  0  0  0  0  0
   17.3730   -9.3899    8.3912 C   0  0  0  0  0  0  0  0  0  0  0  0
   16.1162   -9.6431    8.0851 O   0  0  0  0  0  0  0  0  0  0  0  0
   15.4811   -9.8596    9.2078 C   0  0  0  0  0  0  0  0  0  0  0  0
   14.1653  -10.1493    9.3313 N   0  0  0  0  0  0  0  0  0  0  0  0
   13.6532  -10.3368   10.5812 C   0  0  0  0  0  0  0  0  0  0  0  0
   14.4510  -10.2296   11.6884 N   0  0  0  0  0  0  0  0  0  0  0  0
   13.8433  -10.4353   12.9939 C   0  0  0  0  0  0  0  0  0  0  0  0
   15.7852   -9.9317   11.5722 C   0  0  0  0  0  0  0  0  0  0  0  0
   16.5053   -9.8133   12.5988 O   0  0  0  0  0  0  0  0  0  0  0  0
   16.3121   -9.7540   10.2883 C   0  0  0  0  0  0  0  0  0  0  0  0
   17.5698   -9.4476    9.7759 C   0  0  0  0  0  0  0  0  0  0  0  0
   19.2653   -9.6521   12.8833 C   0  0  0  0  0  0  0  0  0  0  0  0
   19.0661  -10.8246   13.7810 C   0  0  0  0  0  0  0  0  0  0  0  0
   19.6338  -11.9138   13.5019 O   0  0  0  0  0  0  0  0  0  0  0  0
   18.1932  -10.7299   14.9604 C   0  0  0  0  0  0  0  0  0  0  0  0
   18.3061  -11.5124   16.1053 C   0  0  0  0  0  0  0  0  0  0  0  0
   17.3369  -11.2124   17.0733 C   0  0  0  0  0  0  0  0  0  0  0  0
   16.4709  -10.2045   16.6720 C   0  0  0  0  0  0  0  0  0  0  0  0
   16.9004   -9.6659   15.1411 S   0  0  0  0  0  0  0  0  0  0  0  0
   15.3652   -9.6442   17.4989 C   0  0  0  0  0  0  0  0  0  0  0  0
   15.5262   -8.1710   17.6522 C   0  0  0  0  0  0  0  0  0  0  0  0
   15.2853   -7.4078   16.6813 O   0  0  0  0  0  0  0  0  0  0  0  0
   15.9854   -7.6286   18.8848 N   0  0  0  0  0  0  0  0  0  0  0  0
   16.1741   -8.2249   19.6451 H   0  0  0  0  0  0  0  0  0  0  0  0
   16.1143   -6.6570   18.9774 H   0  0  0  0  0  0  0  0  0  0  0  0
  4  5  1  0  0  0
  5  6  1  0  0  0
  6  7  1  0  0  0
  7  8  1  0  0  0
  8  9  2  0  0  0
  9 10  1  0  0  0
 10 11  1  0  0  0
 10 12  1  0  0  0
 12 13  2  0  0  0
 12 14  1  0  0  0
 14 15  1  0  0  0
 15  2  1  0  0  0
  2  3  2  0  0  0
  2  1  1  0  0  0
  1 16  1  0  0  0
 16 17  1  0  0  0
 17 18  2  0  0  0
 17 19  1  0  0  0
 19 20  2  0  0  0
 20 21  1  0  0  0
 21 22  2  0  0  0
 22 24  1  0  0  0
 24 25  1  0  0  0
 25 26  2  0  0  0
 25 27  1  0  0  0
 22 23  1  0  0  0
 15  5  2  0  0  0
 23 19  1  0  0  0
 14  7  2  0  0  0
 27 28  1  0  0  0
 27 29  1  0  0  0
M  END
>  <minimizedAffinity>
-0.11101

>  <minimizedRMSD>
1.93037

$$$$
CSC027417299 58154580 CSSS00027417299 MCULE-3019389024 MolPort-009-112-737 PubChem-47086358 Z941453872 ZINC000058154580


 32 36  0  0  0  0  0  0  0  0999 V2000
   15.8384  -10.7467   10.1215 C   0  0  0  0  0  0  0  0  0  0  0  0
   16.3215  -10.3650    8.7672 C   0  0  0  0  0  0  0  0  0  0  0  0
   15.6800  -10.7237    7.6296 N   0  0  0  0  0  0  0  0  0  0  0  0
   16.2944  -10.1471    6.6325 O   0  0  0  0  0  0  0  0  0  0  0  0
   17.2930   -9.4321    7.0809 C   0  0  0  0  0  0  0  0  0  0  0  0
   18.1239   -8.6549    6.3464 N   0  0  0  0  0  0  0  0  0  0  0  0
   19.0960   -7.9282    6.9791 C   0  0  0  0  0  0  0  0  0  0  0  0
   19.2240   -8.0063    8.3884 C   0  0  0  0  0  0  0  0  0  0  0  0
   18.3676   -8.8267    9.1493 C   0  0  0  0  0  0  0  0  0  0  0  0
   17.3836   -9.5350    8.4399 C   0  0  0  0  0  0  0  0  0  0  0  0
   20.0040   -7.0698    6.1887 C   0  0  0  0  0  0  0  0  0  0  0  0
   19.5058   -5.9337    5.5320 C   0  0  0  0  0  0  0  0  0  0  0  0
   20.3571   -5.1166    4.7826 C   0  0  0  0  0  0  0  0  0  0  0  0
   21.7154   -5.4279    4.6827 C   0  0  0  0  0  0  0  0  0  0  0  0
   22.6203   -4.5592    3.8860 C   0  0  0  0  0  0  0  0  0  0  0  0
   22.2228   -6.5560    5.3319 C   0  0  0  0  0  0  0  0  0  0  0  0
   21.3715   -7.3732    6.0813 C   0  0  0  0  0  0  0  0  0  0  0  0
   18.5722   -8.9213   10.6056 C   0  0  0  0  0  0  0  0  0  0  0  0
   19.6379   -8.4718   11.1075 O   0  0  0  0  0  0  0  0  0  0  0  0
   17.6076   -9.5936   11.4263 N   0  0  0  0  0  0  0  0  0  0  0  0
   16.8336   -9.9874   10.9625 H   0  0  0  0  0  0  0  0  0  0  0  0
   17.6503   -9.7532   12.8506 C   0  0  0  0  0  0  0  0  0  0  0  0
   18.5274  -10.7146   13.3953 C   0  0  0  0  0  0  0  0  0  0  0  0
   18.6052  -10.9173   14.7840 C   0  0  0  0  0  0  0  0  0  0  0  0
   17.7918  -10.1438   15.6095 C   0  0  0  0  0  0  0  0  0  0  0  0
   17.6954  -10.1760   17.1052 C   0  0  0  0  0  0  0  0  0  0  0  0
   16.6864   -9.1563   17.4151 N   0  0  0  0  0  0  0  0  0  0  0  0
   16.2503   -8.5948   16.1829 C   0  0  0  0  0  0  0  0  0  0  0  0
   15.3827   -7.6871   16.0941 O   0  0  0  0  0  0  0  0  0  0  0  0
   16.9370   -9.2098   15.0802 C   0  0  0  0  0  0  0  0  0  0  0  0
   16.8369   -8.9861   13.7094 C   0  0  0  0  0  0  0  0  0  0  0  0
   16.3689   -8.9062   18.3128 H   0  0  0  0  0  0  0  0  0  0  0  0
  1  2  1  0  0  0
  2  3  2  0  0  0
  3  4  1  0  0  0
  4  5  1  0  0  0
  5  6  2  0  0  0
  6  7  1  0  0  0
  7  8  2  0  0  0
  8  9  1  0  0  0
  9 18  1  0  0  0
 18 19  2  0  0  0
 18 20  1  0  0  0
 20 22  1  0  0  0
 22 23  2  0  0  0
 23 24  1  0  0  0
 24 25  2  0  0  0
 25 26  1  0  0  0
 26 27  1  0  0  0
 27 28  1  0  0  0
 28 29  2  0  0  0
 28 30  1  0  0  0
 30 31  2  0  0  0
  9 10  2  0  0  0
  7 11  1  0  0  0
 11 12  2  0  0  0
 12 13  1  0  0  0
 13 14  2  0  0  0
 14 15  1  0  0  0
 14 16  1  0  0  0
 16 17  2  0  0  0
 10  2  1  0  0  0
 17 11  1  0  0  0
 10  5  1  0  0  0
 31 22  1  0  0  0
 30 25  1  0  0  0
 20 21  1  0  0  0
 27 32  1  0  0  0
M  END
>  <minimizedAffinity>
-0.10802

>  <minimizedRMSD>
1.89107

$$$$
2948645 CSSS03437101904 MCULE-9622453477 MolPort-007-917-785 PubChem-3586589 ZINC000002948645


 36 38  0  0  0  0  0  0  0  0999 V2000
   16.3830  -10.2124   12.5871 N   0  0  0  0  0  0  0  0  0  0  0  0
   15.5868  -10.3238   11.4045 C   0  0  0  0  0  0  0  0  0  0  0  0
   14.3452  -10.1094   11.4429 O   0  0  0  0  0  0  0  0  0  0  0  0
   17.3595  -10.3081   12.5062 H   0  0  0  0  0  0  0  0  0  0  0  0
   15.8160   -9.9635   13.9072 C   0  0  0  0  0  0  0  0  0  0  0  0
   15.7465   -8.4677   14.1997 C   0  0  0  0  0  0  0  0  0  0  0  0
   15.2890   -7.7526   18.4068 C   0  0  0  0  0  0  0  0  0  0  0  0
   14.2768   -7.3805   17.5158 C   0  0  0  0  0  0  0  0  0  0  0  0
   14.4324   -7.6079   16.1469 C   0  0  0  0  0  0  0  0  0  0  0  0
   15.5989   -8.2082   15.6619 C   0  0  0  0  0  0  0  0  0  0  0  0
   16.6117   -8.5843   16.5525 C   0  0  0  0  0  0  0  0  0  0  0  0
   16.4579   -8.3536   17.9226 C   0  0  0  0  0  0  0  0  0  0  0  0
   15.0731   -7.4908   20.1279 S   0  0  0  0  0  0  0  0  0  0  0  0
   16.4943   -6.7749   20.8013 N   0  0  0  0  0  0  0  0  0  0  0  0
   13.9073   -6.5698   20.3544 O   0  0  0  0  0  0  0  0  0  0  0  0
   14.8149   -8.8100   20.8013 O   0  0  0  0  0  0  0  0  0  0  0  0
   16.3592   -6.6267   21.8014 H   0  0  0  0  0  0  0  0  0  0  0  0
   16.6725   -5.8797   20.3460 H   0  0  0  0  0  0  0  0  0  0  0  0
   16.2239  -10.7371   10.1236 C   0  0  0  0  0  0  0  0  0  0  0  0
   15.3490   -9.9862    8.7147 S   0  0  0  0  0  0  0  0  0  0  0  0
   16.8220   -9.1828    8.0991 C   0  0  0  0  0  0  0  0  0  0  0  0
   17.0532   -9.1344    6.7615 N   0  0  0  0  0  0  0  0  0  0  0  0
   18.1717   -8.5442    6.2694 C   0  0  0  0  0  0  0  0  0  0  0  0
   18.3912   -8.5019    4.8890 C   0  0  0  0  0  0  0  0  0  0  0  0
   19.5466   -7.8975    4.3838 C   0  0  0  0  0  0  0  0  0  0  0  0
   20.4831   -7.3321    5.2563 C   0  0  0  0  0  0  0  0  0  0  0  0
   20.2672   -7.3677    6.6382 C   0  0  0  0  0  0  0  0  0  0  0  0
   19.1098   -7.9703    7.1515 C   0  0  0  0  0  0  0  0  0  0  0  0
   18.8512   -8.0296    8.5276 C   0  0  0  0  0  0  0  0  0  0  0  0
   17.7136   -8.6341    8.9674 N   0  0  0  0  0  0  0  0  0  0  0  0
   19.7937   -7.4937    9.4664 N   0  0  0  0  0  0  0  0  0  0  0  0
   20.1042   -6.5678    9.3423 H   0  0  0  0  0  0  0  0  0  0  0  0
   20.3130   -8.2540   10.5943 C   0  0  0  0  0  0  0  0  0  0  0  0
   19.4114   -9.4399   10.8792 C   0  0  0  0  0  0  0  0  0  0  0  0
   19.0123   -9.4100   12.2138 O   0  0  0  0  0  0  0  0  0  0  0  0
   19.1601  -10.7252   12.6546 C   0  0  0  0  0  0  0  0  0  0  0  0
 13 14  1  0  0  0
 13 15  2  0  0  0
 13 16  2  0  0  0
 13  7  1  0  0  0
  7  8  2  0  0  0
  8  9  1  0  0  0
  9 10  2  0  0  0
 10 11  1  0  0  0
 11 12  2  0  0  0
 10  6  1  0  0  0
  6  5  1  0  0  0
  5  1  1  0  0  0
  1  2  1  0  0  0
  2 19  1  0  0  0
 19 20  1  0  0  0
 20 21  1  0  0  0
 21 22  2  0  0  0
 22 23  1  0  0  0
 23 24  2  0  0  0
 24 25  1  0  0  0
 25 26  2  0  0  0
 26 27  1  0  0  0
 27 28  2  0  0  0
 28 29  1  0  0  0
 29 31  1  0  0  0
 31 33  1  0  0  0
 33 34  1  0  0  0
 34 35  1  0  0  0
 35 36  1  0  0  0
 29 30  2  0  0  0
  2  3  2  0  0  0
 12  7  1  0  0  0
 30 21  1  0  0  0
 28 23  1  0  0  0
 14 17  1  0  0  0
 14 18  1  0  0  0
  1  4  1  0  0  0
 31 32  1  0  0  0
M  END
>  <minimizedAffinity>
-0.09863

>  <minimizedRMSD>
3.17685

$$$$
CSC026657754 6318933 CSSS00026657754 MCULE-7561346016 MolPort-004-268-125 PubChem-3479543 Z54556310 ZINC000006318933 ZINC06318933


 31 33  0  0  0  0  0  0  0  0999 V2000
   17.7928   -9.4891   13.4606 O   0  0  0  0  0  0  0  0  0  0  0  0
   18.4176   -9.5396   14.7083 C   0  0  0  0  0  0  0  0  0  0  0  0
   19.6281   -9.8851   14.8011 O   0  0  0  0  0  0  0  0  0  0  0  0
   16.1651   -8.5361   18.2163 C   0  0  0  0  0  0  0  0  0  0  0  0
   17.4210   -9.1534   18.3259 C   0  0  0  0  0  0  0  0  0  0  0  0
   18.1577   -9.4805   17.1879 C   0  0  0  0  0  0  0  0  0  0  0  0
   17.6525   -9.1942   15.9165 C   0  0  0  0  0  0  0  0  0  0  0  0
   16.4007   -8.5821   15.7996 C   0  0  0  0  0  0  0  0  0  0  0  0
   15.6415   -8.2473   16.9311 C   0  0  0  0  0  0  0  0  0  0  0  0
   14.3577   -7.6217   16.7373 N   0  0  0  0  0  0  0  0  0  0  0  0
   13.9949   -7.1785   15.4857 O   0  0  0  0  0  0  0  0  0  0  0  0
   13.5471   -7.4878   17.6767 O   0  0  0  0  0  0  0  0  0  0  0  0
   15.4319   -8.2027   19.4010 N   0  0  0  0  0  0  0  0  0  0  0  0
   14.6307   -8.7318   19.6189 H   0  0  0  0  0  0  0  0  0  0  0  0
   14.6773   -6.8496   21.2652 C   0  0  0  0  0  0  0  0  0  0  0  0
   15.8105   -7.1222   20.2983 C   0  0  0  0  0  0  0  0  0  0  0  0
   17.9732  -10.5040   12.4844 C   0  0  0  0  0  0  0  0  0  0  0  0
   17.8189   -9.9128   11.1197 C   0  0  0  0  0  0  0  0  0  0  0  0
   18.8439   -9.1739   10.6205 N   0  0  0  0  0  0  0  0  0  0  0  0
   18.7622   -8.5893    9.4015 C   0  0  0  0  0  0  0  0  0  0  0  0
   19.8335   -7.8352    8.9132 C   0  0  0  0  0  0  0  0  0  0  0  0
   19.7464   -7.2291    7.6564 C   0  0  0  0  0  0  0  0  0  0  0  0
   18.5889   -7.3760    6.8855 C   0  0  0  0  0  0  0  0  0  0  0  0
   17.5143   -8.1285    7.3699 C   0  0  0  0  0  0  0  0  0  0  0  0
   17.5951   -8.7385    8.6305 C   0  0  0  0  0  0  0  0  0  0  0  0
   16.5409   -9.4972    9.1570 C   0  0  0  0  0  0  0  0  0  0  0  0
   15.4804   -9.6492    8.4873 O   0  0  0  0  0  0  0  0  0  0  0  0
   16.6634  -10.0706   10.3957 N   0  0  0  0  0  0  0  0  0  0  0  0
   15.5469  -10.8411   10.9482 C   0  0  0  0  0  0  0  0  0  0  0  0
   15.0171  -10.1801   12.1471 C   0  0  0  0  0  0  0  0  0  0  0  0
   14.6014   -9.6585   13.0927 N   0  0  0  0  0  0  0  0  0  0  0  0
 15 16  1  0  0  0
 16 13  1  0  0  0
 13  4  1  0  0  0
  4  5  2  0  0  0
  5  6  1  0  0  0
  6  7  2  0  0  0
  7  8  1  0  0  0
  7  2  1  0  0  0
  8  9  2  0  0  0
  9 10  1  0  0  0
  9  4  1  0  0  0
 10 11  1  0  0  0
 10 12  2  0  0  0
  2  3  2  0  0  0
  2  1  1  0  0  0
  1 17  1  0  0  0
 17 18  1  0  0  0
 18 19  2  0  0  0
 19 20  1  0  0  0
 20 21  2  0  0  0
 21 22  1  0  0  0
 22 23  2  0  0  0
 23 24  1  0  0  0
 24 25  2  0  0  0
 25 26  1  0  0  0
 25 20  1  0  0  0
 26 27  2  0  0  0
 26 28  1  0  0  0
 28 29  1  0  0  0
 28 18  1  0  0  0
 29 30  1  0  0  0
 30 31  3  0  0  0
 13 14  1  0  0  0
M  CHG 1  10   1
M  CHG 1  11  -1
M  END
>  <minimizedAffinity>
-0.05718

>  <minimizedRMSD>
1.64767

$$$$
CSC026160801 13068343 CSSS00026160801 MCULE-7826945593 MolPort-005-328-477 PubChem-16267883 Z22283070 ZINC000013068343


 29 31  0  0  0  0  0  0  0  0999 V2000
   18.1009  -11.3094   13.6601 N   0  0  0  0  0  0  0  0  0  0  0  0
   18.9615  -10.4921   12.8568 C   0  0  0  0  0  0  0  0  0  0  0  0
   19.4791   -9.4391   13.3147 O   0  0  0  0  0  0  0  0  0  0  0  0
   17.7446  -12.1238   13.2371 H   0  0  0  0  0  0  0  0  0  0  0  0
   16.5341   -9.7586   16.7013 C   0  0  0  0  0  0  0  0  0  0  0  0
   16.9019   -9.9689   15.3682 C   0  0  0  0  0  0  0  0  0  0  0  0
   17.7052  -11.0638   15.0160 C   0  0  0  0  0  0  0  0  0  0  0  0
   18.1324  -11.9476   16.0129 C   0  0  0  0  0  0  0  0  0  0  0  0
   17.7641  -11.7427   17.3458 C   0  0  0  0  0  0  0  0  0  0  0  0
   16.9651  -10.6494   17.6896 C   0  0  0  0  0  0  0  0  0  0  0  0
   15.9907   -7.7850   18.6788 N   0  0  0  0  0  0  0  0  0  0  0  0
   15.5221   -8.3923   17.1307 S   0  0  0  0  0  0  0  0  0  0  0  0
   14.0841   -8.8252   17.1747 O   0  0  0  0  0  0  0  0  0  0  0  0
   15.6857   -7.3002   16.1117 O   0  0  0  0  0  0  0  0  0  0  0  0
   15.8834   -8.5192   19.3787 H   0  0  0  0  0  0  0  0  0  0  0  0
   15.4000   -6.9910   18.9256 H   0  0  0  0  0  0  0  0  0  0  0  0
   19.2216  -10.8791   11.4418 C   0  0  0  0  0  0  0  0  0  0  0  0
   19.0761   -9.7501   10.5879 O   0  0  0  0  0  0  0  0  0  0  0  0
   17.9203   -9.5163    9.8335 C   0  0  0  0  0  0  0  0  0  0  0  0
   18.0094   -8.8732    8.5937 C   0  0  0  0  0  0  0  0  0  0  0  0
   16.8226   -8.6563    7.8638 C   0  0  0  0  0  0  0  0  0  0  0  0
   16.8743   -8.0154    6.6228 C   0  0  0  0  0  0  0  0  0  0  0  0
   18.1023   -7.5903    6.1065 C   0  0  0  0  0  0  0  0  0  0  0  0
   19.2806   -7.8047    6.8290 C   0  0  0  0  0  0  0  0  0  0  0  0
   19.2362   -8.4449    8.0712 C   0  0  0  0  0  0  0  0  0  0  0  0
   20.9501   -7.2224    6.1197 Br  0  0  0  0  0  0  0  0  0  0  0  0
   15.6326   -9.0696    8.3694 N   0  0  0  0  0  0  0  0  0  0  0  0
   15.5680   -9.6932    9.5747 C   0  0  0  0  0  0  0  0  0  0  0  0
   16.7005   -9.9121   10.2934 N   0  0  0  0  0  0  0  0  0  0  0  0
 11 12  1  0  0  0
 12  5  1  0  0  0
  5  6  2  0  0  0
  6  7  1  0  0  0
  7  1  1  0  0  0
  1  2  1  0  0  0
  2 17  1  0  0  0
 17 18  1  0  0  0
 18 19  1  0  0  0
 19 20  1  0  0  0
 20 21  1  0  0  0
 21 22  2  0  0  0
 22 23  1  0  0  0
 23 24  2  0  0  0
 24 25  1  0  0  0
 24 26  1  0  0  0
 21 27  1  0  0  0
 27 28  2  0  0  0
 28 29  1  0  0  0
  2  3  2  0  0  0
  7  8  2  0  0  0
  8  9  1  0  0  0
  9 10  2  0  0  0
 12 13  2  0  0  0
 12 14  2  0  0  0
 10  5  1  0  0  0
 29 19  2  0  0  0
 25 20  2  0  0  0
 11 15  1  0  0  0
 11 16  1  0  0  0
  1  4  1  0  0  0
M  END
>  <minimizedAffinity>
0.02788

>  <minimizedRMSD>
1.57404

$$$$
CSSS00654518080


 35 38  0  0  0  0  0  0  0  0999 V2000
   15.3956  -10.1567   11.7601 C   0  0  0  0  0  0  0  0  0  0  0  0
   15.4089  -10.0875   10.2741 C   0  0  0  0  0  0  0  0  0  0  0  0
   14.3114  -10.3260    9.5172 N   0  0  0  0  0  0  0  0  0  0  0  0
   14.6293  -10.0819    8.2749 O   0  0  0  0  0  0  0  0  0  0  0  0
   15.8753   -9.6923    8.2044 C   0  0  0  0  0  0  0  0  0  0  0  0
   16.5385   -9.3048    7.0890 N   0  0  0  0  0  0  0  0  0  0  0  0
   17.8345   -8.8777    7.1941 C   0  0  0  0  0  0  0  0  0  0  0  0
   18.4645   -8.8556    8.4635 C   0  0  0  0  0  0  0  0  0  0  0  0
   17.7774   -9.2727    9.6207 C   0  0  0  0  0  0  0  0  0  0  0  0
   16.4464   -9.6861    9.4453 C   0  0  0  0  0  0  0  0  0  0  0  0
   18.5665   -8.4444    5.9850 C   0  0  0  0  0  0  0  0  0  0  0  0
   18.0263   -8.6794    4.7121 C   0  0  0  0  0  0  0  0  0  0  0  0
   18.7157   -8.2805    3.5645 C   0  0  0  0  0  0  0  0  0  0  0  0
   19.9504   -7.6379    3.6789 C   0  0  0  0  0  0  0  0  0  0  0  0
   20.4982   -7.3777    4.9422 C   0  0  0  0  0  0  0  0  0  0  0  0
   19.8090   -7.7984    6.0881 C   0  0  0  0  0  0  0  0  0  0  0  0
   21.8493   -6.7354    5.0649 C   0  0  0  0  0  0  0  0  0  0  0  0
   21.7786   -5.3940    4.7303 F   0  0  0  0  0  0  0  0  0  0  0  0
   22.3183   -6.8418    6.3629 F   0  0  0  0  0  0  0  0  0  0  0  0
   22.7346   -7.3675    4.2117 F   0  0  0  0  0  0  0  0  0  0  0  0
   18.4893   -9.2860   10.9111 C   0  0  0  0  0  0  0  0  0  0  0  0
   19.6341   -8.7630   10.9899 O   0  0  0  0  0  0  0  0  0  0  0  0
   17.9227   -9.9569   12.0419 N   0  0  0  0  0  0  0  0  0  0  0  0
   17.0513  -10.3981   11.9184 H   0  0  0  0  0  0  0  0  0  0  0  0
   18.5246  -10.0360   13.3374 C   0  0  0  0  0  0  0  0  0  0  0  0
   18.0788   -9.3840   14.4242 N   0  0  0  0  0  0  0  0  0  0  0  0
   18.8894   -9.7170   15.4108 N   0  0  0  0  0  0  0  0  0  0  0  0
   19.8353  -10.5750   14.9848 C   0  0  0  0  0  0  0  0  0  0  0  0
   19.6338  -10.8070   13.6325 C   0  0  0  0  0  0  0  0  0  0  0  0
   18.7346   -9.2498   16.7783 C   0  0  0  0  0  0  0  0  0  0  0  0
   17.4464   -9.7397   17.3439 C   0  0  0  0  0  0  0  0  0  0  0  0
   17.3037  -11.1072   17.7086 N   0  0  0  0  0  0  0  0  0  0  0  0
   16.4724   -8.9524   17.4652 O   0  0  0  0  0  0  0  0  0  0  0  0
   18.0653  -11.7239   17.6140 H   0  0  0  0  0  0  0  0  0  0  0  0
   16.4435  -11.4369   18.0556 H   0  0  0  0  0  0  0  0  0  0  0  0
  1  2  1  0  0  0
  2  3  2  0  0  0
  3  4  1  0  0  0
  4  5  1  0  0  0
  5  6  2  0  0  0
  6  7  1  0  0  0
  7  8  2  0  0  0
  8  9  1  0  0  0
  9 21  1  0  0  0
 21 22  2  0  0  0
 21 23  1  0  0  0
 23 25  1  0  0  0
 25 26  2  0  0  0
 26 27  1  0  0  0
 27 30  1  0  0  0
 30 31  1  0  0  0
 31 32  1  0  0  0
 31 33  2  0  0  0
 27 28  1  0  0  0
 28 29  2  0  0  0
  9 10  2  0  0  0
  7 11  1  0  0  0
 11 12  2  0  0  0
 12 13  1  0  0  0
 13 14  2  0  0  0
 14 15  1  0  0  0
 15 16  2  0  0  0
 15 17  1  0  0  0
 17 18  1  0  0  0
 17 19  1  0  0  0
 17 20  1  0  0  0
 10  2  1  0  0  0
 16 11  1  0  0  0
 10  5  1  0  0  0
 29 25  1  0  0  0
 23 24  1  0  0  0
 32 34  1  0  0  0
 32 35  1  0  0  0
M  END
>  <minimizedAffinity>
0.15360

>  <minimizedRMSD>
2.96947

$$$$
CSSS03542211746 MCULE-2724370803 PubChem-42912839 Z45276632


 34 36  0  0  0  0  0  0  0  0999 V2000
   16.7089   -9.7363   11.9203 C   0  0  0  0  0  0  0  0  0  0  0  0
   16.4369   -8.5086   12.0301 O   0  0  0  0  0  0  0  0  0  0  0  0
   17.3240  -10.4574   13.0456 C   0  0  0  0  0  0  0  0  0  0  0  0
   17.1280  -10.0213   14.3637 C   0  0  0  0  0  0  0  0  0  0  0  0
   17.7130  -10.7088   15.4322 C   0  0  0  0  0  0  0  0  0  0  0  0
   18.4956  -11.8414   15.1847 C   0  0  0  0  0  0  0  0  0  0  0  0
   18.6973  -12.2810   13.8738 C   0  0  0  0  0  0  0  0  0  0  0  0
   18.1136  -11.5906   12.8077 C   0  0  0  0  0  0  0  0  0  0  0  0
   17.4559  -10.1597   17.0801 S   0  0  0  0  0  0  0  0  0  0  0  0
   16.1510   -9.4175   17.1722 O   0  0  0  0  0  0  0  0  0  0  0  0
   17.4119  -11.3506   17.9943 O   0  0  0  0  0  0  0  0  0  0  0  0
   18.7443   -9.1111   17.5708 N   0  0  0  0  0  0  0  0  0  0  0  0
   19.5709   -9.6621   17.8023 H   0  0  0  0  0  0  0  0  0  0  0  0
   19.0398   -8.2180   16.4598 C   0  0  0  0  0  0  0  0  0  0  0  0
   20.3303   -8.6351   15.7755 C   0  0  0  0  0  0  0  0  0  0  0  0
   20.1315   -8.6555   14.4086 F   0  0  0  0  0  0  0  0  0  0  0  0
   21.3346   -7.7330   16.0748 F   0  0  0  0  0  0  0  0  0  0  0  0
   20.7022   -9.8980   16.1988 F   0  0  0  0  0  0  0  0  0  0  0  0
   16.4228  -10.4191   10.7328 O   0  0  0  0  0  0  0  0  0  0  0  0
   15.9146   -9.7657    9.5739 C   0  0  0  0  0  0  0  0  0  0  0  0
   15.1388  -10.7595    8.7323 C   0  0  0  0  0  0  0  0  0  0  0  0
   21.3051   -6.9666    6.6910 C   0  0  0  0  0  0  0  0  0  0  0  0
   20.0146   -7.6305    6.3391 C   0  0  0  0  0  0  0  0  0  0  0  0
   19.5957   -7.8423    5.0224 C   0  0  0  0  0  0  0  0  0  0  0  0
   18.0925   -8.6185    5.0121 S   0  0  0  0  0  0  0  0  0  0  0  0
   17.9744   -8.6850    6.6840 C   0  0  0  0  0  0  0  0  0  0  0  0
   19.0844   -8.1138    7.2765 C   0  0  0  0  0  0  0  0  0  0  0  0
   19.1456   -8.0889    8.6747 C   0  0  0  0  0  0  0  0  0  0  0  0
   20.1289   -7.5859    9.2791 O   0  0  0  0  0  0  0  0  0  0  0  0
   18.1143   -8.6257    9.3861 N   0  0  0  0  0  0  0  0  0  0  0  0
   17.0280   -9.1809    8.7657 C   0  0  0  0  0  0  0  0  0  0  0  0
   16.9579   -9.2139    7.4050 N   0  0  0  0  0  0  0  0  0  0  0  0
   20.3473   -7.4575    3.7951 C   0  0  0  0  0  0  0  0  0  0  0  0
   18.1517   -8.6138   10.3698 H   0  0  0  0  0  0  0  0  0  0  0  0
 22 23  1  0  0  0
 23 24  2  0  0  0
 24 25  1  0  0  0
 24 33  1  0  0  0
 25 26  1  0  0  0
 26 27  2  0  0  0
 27 28  1  0  0  0
 27 23  1  0  0  0
 28 29  2  0  0  0
 28 30  1  0  0  0
 30 31  1  0  0  0
 31 32  2  0  0  0
 32 26  1  0  0  0
 20 31  1  0  0  0
 20 21  1  0  0  0
 20 19  1  0  0  0
 19  1  1  0  0  0
  1  2  2  0  0  0
  1  3  1  0  0  0
  3  4  2  0  0  0
  4  5  1  0  0  0
  5  6  2  0  0  0
  5  9  1  0  0  0
  6  7  1  0  0  0
  7  8  2  0  0  0
  8  3  1  0  0  0
  9 10  2  0  0  0
  9 11  2  0  0  0
  9 12  1  0  0  0
 12 14  1  0  0  0
 14 15  1  0  0  0
 15 16  1  0  0  0
 15 17  1  0  0  0
 15 18  1  0  0  0
 30 34  1  0  0  0
 12 13  1  0  0  0
M  END
>  <minimizedAffinity>
0.30940

>  <minimizedRMSD>
2.56187

$$$$
157218768 CSSS00106832701 MCULE-8623127754 MolPort-044-580-361 PubChem-132294447 Z1252484794 ZINC000157218768


 30 33  0  0  0  0  0  0  0  0999 V2000
   16.0223   -7.8439   16.1889 C   0  0  0  0  0  0  0  0  0  0  0  0
   16.3673   -8.5112   14.9021 C   0  0  0  0  0  0  0  0  0  0  0  0
   17.6034   -9.1674   14.6813 C   0  0  0  0  0  0  0  0  0  0  0  0
   17.8165   -9.8203   13.4410 C   0  0  0  0  0  0  0  0  0  0  0  0
   16.8294   -9.7811   12.4387 C   0  0  0  0  0  0  0  0  0  0  0  0
   15.6258   -9.1123   12.6791 C   0  0  0  0  0  0  0  0  0  0  0  0
   15.3978   -8.4875   13.9001 C   0  0  0  0  0  0  0  0  0  0  0  0
   19.0817  -10.5761   13.1754 C   0  0  0  0  0  0  0  0  0  0  0  0
   18.8684   -9.2299   15.9383 S   0  0  0  0  0  0  0  0  0  0  0  0
   20.1701   -9.6383   15.3077 O   0  0  0  0  0  0  0  0  0  0  0  0
   19.0761   -7.8944   16.5965 O   0  0  0  0  0  0  0  0  0  0  0  0
   18.4313  -10.3969   17.1409 N   0  0  0  0  0  0  0  0  0  0  0  0
   18.0768   -9.9230   17.9717 H   0  0  0  0  0  0  0  0  0  0  0  0
   17.3968  -11.2484   16.5782 C   0  0  0  0  0  0  0  0  0  0  0  0
   18.0394  -12.4766   15.9659 C   0  0  0  0  0  0  0  0  0  0  0  0
   17.3789  -12.5664   17.3238 C   0  0  0  0  0  0  0  0  0  0  0  0
   17.0553  -10.4366   11.1825 N   0  0  0  0  0  0  0  0  0  0  0  0
   17.8656  -10.9876   11.0876 H   0  0  0  0  0  0  0  0  0  0  0  0
   16.1577  -10.3364   10.0381 C   0  0  0  0  0  0  0  0  0  0  0  0
   16.7267   -9.4151    9.0135 C   0  0  0  0  0  0  0  0  0  0  0  0
   15.8799   -8.6174    8.2496 C   0  0  0  0  0  0  0  0  0  0  0  0
   16.4372   -7.7553    7.3069 C   0  0  0  0  0  0  0  0  0  0  0  0
   15.6707   -7.0311    6.6140 O   0  0  0  0  0  0  0  0  0  0  0  0
   17.7956   -7.7013    7.1429 N   0  0  0  0  0  0  0  0  0  0  0  0
   18.3409   -6.8548    6.2189 C   0  0  0  0  0  0  0  0  0  0  0  0
   19.7236   -6.7872    6.0392 C   0  0  0  0  0  0  0  0  0  0  0  0
   20.5532   -7.5949    6.8146 C   0  0  0  0  0  0  0  0  0  0  0  0
   19.9969   -8.4581    7.7568 C   0  0  0  0  0  0  0  0  0  0  0  0
   18.6095   -8.5029    7.9128 C   0  0  0  0  0  0  0  0  0  0  0  0
   18.0697   -9.3440    8.8323 N   0  0  0  0  0  0  0  0  0  0  0  0
  1  2  1  0  0  0
  2  3  2  0  0  0
  3  4  1  0  0  0
  4  5  2  0  0  0
  5  6  1  0  0  0
  6  7  2  0  0  0
  5 17  1  0  0  0
 17 19  1  0  0  0
 19 20  1  0  0  0
 20 21  2  0  0  0
 21 22  1  0  0  0
 22 23  2  0  0  0
 22 24  1  0  0  0
 24 25  1  0  0  0
 25 26  2  0  0  0
 26 27  1  0  0  0
 27 28  2  0  0  0
 28 29  1  0  0  0
 29 30  2  0  0  0
  4  8  1  0  0  0
  3  9  1  0  0  0
  9 10  2  0  0  0
  9 11  2  0  0  0
  9 12  1  0  0  0
 12 14  1  0  0  0
 14 15  1  0  0  0
 15 16  1  0  0  0
  7  2  1  0  0  0
 30 20  1  0  0  0
 29 24  1  0  0  0
 16 14  1  0  0  0
 17 18  1  0  0  0
 12 13  1  0  0  0
M  END
>  <minimizedAffinity>
0.31500

>  <minimizedRMSD>
2.95998

$$$$
CSSS00161095593 MCULE-3826192883 MolPort-035-872-618 PubChem-100018502 ZINC000218530852


 30 33  0  0  0  0  0  0  0  0999 V2000
   16.7414   -9.8565   11.2365 N   0  0  0  0  0  0  0  0  0  0  0  0
   17.3104  -10.6699   12.2660 C   0  0  0  0  0  0  0  0  0  0  0  0
   17.4990  -11.8998   12.0623 O   0  0  0  0  0  0  0  0  0  0  0  0
   16.5547   -8.9105   11.4353 H   0  0  0  0  0  0  0  0  0  0  0  0
   17.6779  -10.0855   13.5693 C   0  0  0  0  0  0  0  0  0  0  0  0
   16.8082   -9.6219   14.5731 C   0  0  0  0  0  0  0  0  0  0  0  0
   15.3180   -9.6514   14.4694 C   0  0  0  0  0  0  0  0  0  0  0  0
   17.5005   -9.1193   15.6915 C   0  0  0  0  0  0  0  0  0  0  0  0
   18.8724   -9.1926   15.5542 C   0  0  0  0  0  0  0  0  0  0  0  0
   19.2811   -9.8663   14.0775 S   0  0  0  0  0  0  0  0  0  0  0  0
   19.7248   -8.7624   16.5142 N   0  0  0  0  0  0  0  0  0  0  0  0
   19.2099   -8.2367   17.6607 C   0  0  0  0  0  0  0  0  0  0  0  0
   17.8577   -8.1472   17.8339 N   0  0  0  0  0  0  0  0  0  0  0  0
   16.9871   -8.5759   16.8764 C   0  0  0  0  0  0  0  0  0  0  0  0
   15.7467   -8.4777   17.0700 O   0  0  0  0  0  0  0  0  0  0  0  0
   17.5040   -7.7644   18.6691 H   0  0  0  0  0  0  0  0  0  0  0  0
   16.4246  -10.3630    9.9053 C   0  0  0  0  0  0  0  0  0  0  0  0
   17.2437   -9.6332    8.8770 C   0  0  0  0  0  0  0  0  0  0  0  0
   17.0294   -9.7819    7.5429 N   0  0  0  0  0  0  0  0  0  0  0  0
   17.9655   -8.9830    6.9965 C   0  0  0  0  0  0  0  0  0  0  0  0
   18.2011   -8.7559    5.6430 C   0  0  0  0  0  0  0  0  0  0  0  0
   19.2464   -7.8751    5.3061 C   0  0  0  0  0  0  0  0  0  0  0  0
   20.0176   -7.2541    6.3146 C   0  0  0  0  0  0  0  0  0  0  0  0
   19.7542   -7.5051    7.6740 C   0  0  0  0  0  0  0  0  0  0  0  0
   18.7112   -8.3819    7.9693 C   0  0  0  0  0  0  0  0  0  0  0  0
   18.2651   -8.7847    9.1651 N   0  0  0  0  0  0  0  0  0  0  0  0
   18.7771   -8.4024   10.4729 C   0  0  0  0  0  0  0  0  0  0  0  0
   14.1188  -10.3828   10.9017 C   0  0  0  0  0  0  0  0  0  0  0  0
   14.9250  -10.2239    9.6240 C   0  0  0  0  0  0  0  0  0  0  0  0
   14.6136   -8.8612    9.0306 C   0  0  0  0  0  0  0  0  0  0  0  0
 28 29  1  0  0  0
 29 30  1  0  0  0
 17 29  1  0  0  0
 17  1  1  0  0  0
  1  2  1  0  0  0
  2  3  2  0  0  0
  2  5  1  0  0  0
  5  6  2  0  0  0
  6  7  1  0  0  0
  6  8  1  0  0  0
  8  9  2  0  0  0
  9 10  1  0  0  0
  9 11  1  0  0  0
 11 12  2  0  0  0
 12 13  1  0  0  0
 13 14  1  0  0  0
 14 15  2  0  0  0
 17 18  1  0  0  0
 18 19  2  0  0  0
 19 20  1  0  0  0
 20 21  2  0  0  0
 21 22  1  0  0  0
 22 23  2  0  0  0
 23 24  1  0  0  0
 24 25  2  0  0  0
 25 26  1  0  0  0
 26 27  1  0  0  0
 10  5  1  0  0  0
 26 18  1  0  0  0
 14  8  1  0  0  0
 25 20  1  0  0  0
  1  4  1  0  0  0
 13 16  1  0  0  0
M  END
>  <minimizedAffinity>
0.33528

>  <minimizedRMSD>
1.87581

$$$$
1891289 CSSS00103704925 LN01973131 MCULE-4830747258 MolPort-000-684-864 PubChem-1630825 ZINC000001891289


 35 39  0  0  0  0  0  0  0  0999 V2000
   17.5770   -9.7059   11.5363 N   0  0  0  0  0  0  0  0  0  0  0  0
   18.6263   -9.1424   10.7408 C   0  0  0  0  0  0  0  0  0  0  0  0
   19.7970   -9.0256   11.1890 O   0  0  0  0  0  0  0  0  0  0  0  0
   16.6801   -9.7318   11.1311 H   0  0  0  0  0  0  0  0  0  0  0  0
   17.7003  -10.2365   12.8636 C   0  0  0  0  0  0  0  0  0  0  0  0
   18.5394  -11.6380   13.2892 S   0  0  0  0  0  0  0  0  0  0  0  0
   18.1711  -11.5543   14.9209 C   0  0  0  0  0  0  0  0  0  0  0  0
   17.4161  -10.4117   15.1706 C   0  0  0  0  0  0  0  0  0  0  0  0
   16.9033  -10.1142   16.5537 C   0  0  0  0  0  0  0  0  0  0  0  0
   17.7324  -10.8279   17.6265 C   0  0  0  0  0  0  0  0  0  0  0  0
   17.8961  -12.3085   17.2781 C   0  0  0  0  0  0  0  0  0  0  0  0
   18.6944  -12.4709   15.9830 C   0  0  0  0  0  0  0  0  0  0  0  0
   17.1232   -9.6653   14.0058 C   0  0  0  0  0  0  0  0  0  0  0  0
   16.3083   -8.4237   13.9779 C   0  0  0  0  0  0  0  0  0  0  0  0
   16.4602   -7.4229   14.9799 N   0  0  0  0  0  0  0  0  0  0  0  0
   15.4669   -8.2355   13.0600 O   0  0  0  0  0  0  0  0  0  0  0  0
   17.1120   -7.5491   15.7069 H   0  0  0  0  0  0  0  0  0  0  0  0
   15.9133   -6.6050   14.9456 H   0  0  0  0  0  0  0  0  0  0  0  0
   18.3307   -8.7012    9.3500 C   0  0  0  0  0  0  0  0  0  0  0  0
   16.8690   -9.5746    8.7087 S   0  0  0  0  0  0  0  0  0  0  0  0
   17.3072   -9.2705    6.9980 C   0  0  0  0  0  0  0  0  0  0  0  0
   16.7218   -9.9874    5.9932 N   0  0  0  0  0  0  0  0  0  0  0  0
   17.0406   -9.7640    4.6780 C   0  0  0  0  0  0  0  0  0  0  0  0
   17.9592   -8.8101    4.3386 N   0  0  0  0  0  0  0  0  0  0  0  0
   18.5387   -8.0984    5.3372 C   0  0  0  0  0  0  0  0  0  0  0  0
   18.2354   -8.3013    6.6421 C   0  0  0  0  0  0  0  0  0  0  0  0
   19.0012   -7.4070    7.3645 C   0  0  0  0  0  0  0  0  0  0  0  0
   19.7349   -6.6996    6.4644 N   0  0  0  0  0  0  0  0  0  0  0  0
   19.4544   -7.1201    5.2332 N   0  0  0  0  0  0  0  0  0  0  0  0
   20.0607   -6.5810    4.0445 C   0  0  0  0  0  0  0  0  0  0  0  0
   20.6649   -5.3147    4.0816 C   0  0  0  0  0  0  0  0  0  0  0  0
   21.2619   -4.7787    2.9364 C   0  0  0  0  0  0  0  0  0  0  0  0
   21.2619   -5.5051    1.7429 C   0  0  0  0  0  0  0  0  0  0  0  0
   20.6648   -6.7676    1.6944 C   0  0  0  0  0  0  0  0  0  0  0  0
   20.0674   -7.3029    2.8397 C   0  0  0  0  0  0  0  0  0  0  0  0
  5  1  1  0  0  0
  1  2  1  0  0  0
  2 19  1  0  0  0
 19 20  1  0  0  0
 20 21  1  0  0  0
 21 22  2  0  0  0
 22 23  1  0  0  0
 23 24  2  0  0  0
 24 25  1  0  0  0
 25 26  2  0  0  0
 26 27  1  0  0  0
 27 28  2  0  0  0
 28 29  1  0  0  0
 29 30  1  0  0  0
 30 31  2  0  0  0
 31 32  1  0  0  0
 32 33  2  0  0  0
 33 34  1  0  0  0
 34 35  2  0  0  0
  2  3  2  0  0  0
  5  6  1  0  0  0
  6  7  1  0  0  0
  7  8  2  0  0  0
  8  9  1  0  0  0
  9 10  1  0  0  0
 10 11  1  0  0  0
 11 12  1  0  0  0
  8 13  1  0  0  0
 13 14  1  0  0  0
 14 15  1  0  0  0
 14 16  2  0  0  0
 13  5  2  0  0  0
 26 21  1  0  0  0
 35 30  1  0  0  0
 12  7  1  0  0  0
 29 25  1  0  0  0
  1  4  1  0  0  0
 15 17  1  0  0  0
 15 18  1  0  0  0
M  END
>  <minimizedAffinity>
0.37391

>  <minimizedRMSD>
3.19563

$$$$
CSSS00161095406 MCULE-4423944357 MolPort-035-872-146 PubChem-100016495 ZINC000218471860


 30 33  0  0  0  0  0  0  0  0999 V2000
   16.4654   -9.8140   11.5735 N   0  0  0  0  0  0  0  0  0  0  0  0
   17.2822  -10.5405   12.4958 C   0  0  0  0  0  0  0  0  0  0  0  0
   17.7133  -11.6844   12.1868 O   0  0  0  0  0  0  0  0  0  0  0  0
   16.1096   -8.9386   11.8499 H   0  0  0  0  0  0  0  0  0  0  0  0
   17.6247   -9.9673   13.8111 C   0  0  0  0  0  0  0  0  0  0  0  0
   16.7361   -9.5371   14.8133 C   0  0  0  0  0  0  0  0  0  0  0  0
   15.2480   -9.5981   14.6957 C   0  0  0  0  0  0  0  0  0  0  0  0
   17.4072   -9.0382   15.9462 C   0  0  0  0  0  0  0  0  0  0  0  0
   18.7816   -9.0821   15.8216 C   0  0  0  0  0  0  0  0  0  0  0  0
   19.2181   -9.7246   14.3391 S   0  0  0  0  0  0  0  0  0  0  0  0
   19.6157   -8.6503   16.7970 N   0  0  0  0  0  0  0  0  0  0  0  0
   19.0792   -8.1533   17.9463 C   0  0  0  0  0  0  0  0  0  0  0  0
   17.7240   -8.0935   18.1072 N   0  0  0  0  0  0  0  0  0  0  0  0
   16.8714   -8.5242   17.1343 C   0  0  0  0  0  0  0  0  0  0  0  0
   15.6275   -8.4540   17.3169 O   0  0  0  0  0  0  0  0  0  0  0  0
   17.3545   -7.7311   18.9447 H   0  0  0  0  0  0  0  0  0  0  0  0
   16.1351  -10.3105   10.2417 C   0  0  0  0  0  0  0  0  0  0  0  0
   16.9827   -9.6097    9.2229 C   0  0  0  0  0  0  0  0  0  0  0  0
   16.9139   -9.9011    7.8979 N   0  0  0  0  0  0  0  0  0  0  0  0
   17.8250   -9.0704    7.3731 C   0  0  0  0  0  0  0  0  0  0  0  0
   18.1812   -8.9365    6.0335 C   0  0  0  0  0  0  0  0  0  0  0  0
   19.1746   -7.9900    5.7203 C   0  0  0  0  0  0  0  0  0  0  0  0
   19.7752   -7.2160    6.7387 C   0  0  0  0  0  0  0  0  0  0  0  0
   19.3895   -7.3794    8.0824 C   0  0  0  0  0  0  0  0  0  0  0  0
   18.4037   -8.3245    8.3543 C   0  0  0  0  0  0  0  0  0  0  0  0
   17.8870   -8.6470    9.5478 N   0  0  0  0  0  0  0  0  0  0  0  0
   18.1063   -8.2803   10.4347 H   0  0  0  0  0  0  0  0  0  0  0  0
   14.0964  -11.2368    9.1036 C   0  0  0  0  0  0  0  0  0  0  0  0
   14.6449  -10.1030    9.9531 C   0  0  0  0  0  0  0  0  0  0  0  0
   13.8495  -10.0495   11.2456 C   0  0  0  0  0  0  0  0  0  0  0  0
 28 29  1  0  0  0
 29 30  1  0  0  0
 17 29  1  0  0  0
 17  1  1  0  0  0
  1  2  1  0  0  0
  2  3  2  0  0  0
  2  5  1  0  0  0
  5  6  2  0  0  0
  6  7  1  0  0  0
  6  8  1  0  0  0
  8  9  2  0  0  0
  9 10  1  0  0  0
  9 11  1  0  0  0
 11 12  2  0  0  0
 12 13  1  0  0  0
 13 14  1  0  0  0
 14 15  2  0  0  0
 17 18  1  0  0  0
 18 19  2  0  0  0
 19 20  1  0  0  0
 20 21  2  0  0  0
 21 22  1  0  0  0
 22 23  2  0  0  0
 23 24  1  0  0  0
 24 25  2  0  0  0
 25 26  1  0  0  0
 10  5  1  0  0  0
 26 18  1  0  0  0
 14  8  1  0  0  0
 25 20  1  0  0  0
  1  4  1  0  0  0
 13 16  1  0  0  0
 26 27  1  0  0  0
M  END
>  <minimizedAffinity>
0.38252

>  <minimizedRMSD>
1.56147

$$$$
CSC026275039 13017517 CSSS00026275039 MCULE-6637891104 MolPort-005-326-205 PubChem-16257486 Z26987031 ZINC000013017517 ZINC13017517


 35 38  0  0  0  0  0  0  0  0999 V2000
   15.8416   -9.3554   13.2920 C   0  0  0  0  0  0  0  0  0  0  0  0
   14.4804   -9.6875   13.3689 C   0  0  0  0  0  0  0  0  0  0  0  0
   13.8029  -10.1944   12.2584 C   0  0  0  0  0  0  0  0  0  0  0  0
   14.4791  -10.3749   11.0520 C   0  0  0  0  0  0  0  0  0  0  0  0
   15.8326  -10.0487   10.9562 C   0  0  0  0  0  0  0  0  0  0  0  0
   16.5196   -9.5332   12.0611 C   0  0  0  0  0  0  0  0  0  0  0  0
   16.9177  -11.0323   15.5718 C   0  0  0  0  0  0  0  0  0  0  0  0
   16.7442   -9.5912   15.6661 N   0  0  0  0  0  0  0  0  0  0  0  0
   16.5095   -8.7917   14.4921 C   0  0  0  0  0  0  0  0  0  0  0  0
   16.8515   -7.5775   14.4954 O   0  0  0  0  0  0  0  0  0  0  0  0
   17.0183   -8.9619   16.9512 C   0  0  0  0  0  0  0  0  0  0  0  0
   15.7966   -8.2756   17.4591 C   0  0  0  0  0  0  0  0  0  0  0  0
   14.9235   -7.8839   16.6404 O   0  0  0  0  0  0  0  0  0  0  0  0
   15.6265   -8.0978   18.8714 N   0  0  0  0  0  0  0  0  0  0  0  0
   16.3617   -8.4094   19.4471 H   0  0  0  0  0  0  0  0  0  0  0  0
   14.4961   -7.5131   19.5321 C   0  0  0  0  0  0  0  0  0  0  0  0
   14.6683   -6.9761   20.8130 C   0  0  0  0  0  0  0  0  0  0  0  0
   13.5887   -6.4015   21.4905 C   0  0  0  0  0  0  0  0  0  0  0  0
   12.3275   -6.3620   20.8898 C   0  0  0  0  0  0  0  0  0  0  0  0
   12.1463   -6.8972   19.6119 C   0  0  0  0  0  0  0  0  0  0  0  0
   10.9240   -6.8618   19.0295 F   0  0  0  0  0  0  0  0  0  0  0  0
   13.2265   -7.4711   18.9356 C   0  0  0  0  0  0  0  0  0  0  0  0
   17.9783   -9.2530   11.9077 C   0  0  0  0  0  0  0  0  0  0  0  0
   18.7829  -10.6166   11.0160 S   0  0  0  0  0  0  0  0  0  0  0  0
   18.7458   -9.7182    9.4733 C   0  0  0  0  0  0  0  0  0  0  0  0
   18.6511   -8.3677    9.4057 N   0  0  0  0  0  0  0  0  0  0  0  0
   18.6521   -8.1077    8.1137 N   0  0  0  0  0  0  0  0  0  0  0  0
   18.7447   -9.2578    7.4454 C   0  0  0  0  0  0  0  0  0  0  0  0
   18.8084  -10.3256    8.2582 N   0  0  0  0  0  0  0  0  0  0  0  0
   18.7679   -9.2910    6.0906 N   0  0  0  0  0  0  0  0  0  0  0  0
   18.6932   -8.1117    5.4050 C   0  0  0  0  0  0  0  0  0  0  0  0
   18.7170   -8.1197    3.9193 C   0  0  0  0  0  0  0  0  0  0  0  0
   18.5935   -6.8863    6.0953 C   0  0  0  0  0  0  0  0  0  0  0  0
   18.5734   -6.9030    7.4961 C   0  0  0  0  0  0  0  0  0  0  0  0
   18.4683   -5.6347    8.2700 C   0  0  0  0  0  0  0  0  0  0  0  0
  7  8  1  0  0  0
  8 11  1  0  0  0
  8  9  1  0  0  0
 11 12  1  0  0  0
 12 13  2  0  0  0
 12 14  1  0  0  0
 14 16  1  0  0  0
 16 17  2  0  0  0
 17 18  1  0  0  0
 18 19  2  0  0  0
 19 20  1  0  0  0
 20 21  1  0  0  0
 20 22  2  0  0  0
 22 16  1  0  0  0
  9 10  2  0  0  0
  9  1  1  0  0  0
  1  2  2  0  0  0
  2  3  1  0  0  0
  3  4  2  0  0  0
  4  5  1  0  0  0
  5  6  2  0  0  0
  6 23  1  0  0  0
  6  1  1  0  0  0
 23 24  1  0  0  0
 24 25  1  0  0  0
 25 26  2  0  0  0
 26 27  1  0  0  0
 27 28  1  0  0  0
 28 29  2  0  0  0
 28 30  1  0  0  0
 29 25  1  0  0  0
 30 31  2  0  0  0
 31 32  1  0  0  0
 31 33  1  0  0  0
 33 34  2  0  0  0
 34 35  1  0  0  0
 34 27  1  0  0  0
 14 15  1  0  0  0
M  END
>  <minimizedAffinity>
0.38523

>  <minimizedRMSD>
1.95812

$$$$
47509913 CSSS00330688514 MCULE-1783380743 MolPort-047-465-154 Z373120412


 27 31  0  0  0  0  0  0  0  0999 V2000
   15.7793   -9.0527   13.8136 C   0  0  0  0  0  0  0  0  0  0  0  0
   16.7610   -8.0985   13.1287 C   0  0  0  0  0  0  0  0  0  0  0  0
   16.2342   -7.7078   11.7521 C   0  0  0  0  0  0  0  0  0  0  0  0
   15.9411   -8.9144   10.9820 N   0  0  0  0  0  0  0  0  0  0  0  0
   15.0136   -9.8750   11.5738 C   0  0  0  0  0  0  0  0  0  0  0  0
   15.5206  -10.2910   12.9512 C   0  0  0  0  0  0  0  0  0  0  0  0
   15.3431   -7.7654   16.4041 O   0  0  0  0  0  0  0  0  0  0  0  0
   16.0440   -8.8076   16.3081 C   0  0  0  0  0  0  0  0  0  0  0  0
   16.6346   -9.3950   17.3807 N   0  0  0  0  0  0  0  0  0  0  0  0
   17.2635  -10.4488   16.8249 C   0  0  0  0  0  0  0  0  0  0  0  0
   18.0373  -11.4094   17.4712 C   0  0  0  0  0  0  0  0  0  0  0  0
   18.6011  -12.4281   16.6803 C   0  0  0  0  0  0  0  0  0  0  0  0
   18.3812  -12.4609   15.2848 C   0  0  0  0  0  0  0  0  0  0  0  0
   17.5945  -11.4755   14.6608 C   0  0  0  0  0  0  0  0  0  0  0  0
   17.0514  -10.4815   15.4748 C   0  0  0  0  0  0  0  0  0  0  0  0
   16.2751   -9.4400   15.1324 N   0  0  0  0  0  0  0  0  0  0  0  0
   16.6095   -9.1202   18.3257 H   0  0  0  0  0  0  0  0  0  0  0  0
   16.5559   -9.1923    9.7092 C   0  0  0  0  0  0  0  0  0  0  0  0
   17.7121   -8.5438    9.2614 C   0  0  0  0  0  0  0  0  0  0  0  0
   18.4542   -7.5971    9.8539 N   0  0  0  0  0  0  0  0  0  0  0  0
   19.4401   -7.3651    8.9446 C   0  0  0  0  0  0  0  0  0  0  0  0
   19.3409   -8.1241    7.8199 N   0  0  0  0  0  0  0  0  0  0  0  0
   18.2427   -8.8512    8.0579 C   0  0  0  0  0  0  0  0  0  0  0  0
   17.6988   -9.7809    7.2380 N   0  0  0  0  0  0  0  0  0  0  0  0
   16.5696  -10.4252    7.6569 C   0  0  0  0  0  0  0  0  0  0  0  0
   16.0123  -10.1312    8.8741 N   0  0  0  0  0  0  0  0  0  0  0  0
   18.3190   -7.1733   10.7321 H   0  0  0  0  0  0  0  0  0  0  0  0
  7  8  2  0  0  0
  8  9  1  0  0  0
  9 10  1  0  0  0
 10 11  2  0  0  0
 11 12  1  0  0  0
 12 13  2  0  0  0
 13 14  1  0  0  0
 14 15  2  0  0  0
 15 16  1  0  0  0
 16  1  1  0  0  0
  1  2  1  0  0  0
  2  3  1  0  0  0
  3  4  1  0  0  0
  4  5  1  0  0  0
  5  6  1  0  0  0
  4 18  1  0  0  0
 18 19  2  0  0  0
 19 20  1  0  0  0
 20 21  1  0  0  0
 21 22  2  0  0  0
 22 23  1  0  0  0
 23 24  2  0  0  0
 24 25  1  0  0  0
 25 26  2  0  0  0
 16  8  1  0  0  0
  6  1  1  0  0  0
 26 18  1  0  0  0
 15 10  1  0  0  0
 23 19  1  0  0  0
  9 17  1  0  0  0
 20 27  1  0  0  0
M  END
>  <minimizedAffinity>
0.38678

>  <minimizedRMSD>
0.97747

$$$$
9418351 CSSS00160763199 LN00826599 MCULE-1164229990 MolPort-000-855-317 PubChem-16423430 ZINC000009418351


 33 35  0  0  0  0  0  0  0  0999 V2000
   15.3284   -9.2175    9.7253 N   0  0  0  0  0  0  0  0  0  0  0  0
   15.8466   -8.1015   10.5305 C   0  0  0  0  0  0  0  0  0  0  0  0
   16.4537   -8.5614   11.8571 C   0  0  0  0  0  0  0  0  0  0  0  0
   15.4332   -9.3744   12.6401 C   0  0  0  0  0  0  0  0  0  0  0  0
   14.9653  -10.5551   11.8031 C   0  0  0  0  0  0  0  0  0  0  0  0
   14.3856  -10.0584   10.4785 C   0  0  0  0  0  0  0  0  0  0  0  0
   16.0272   -9.8531   13.9217 C   0  0  0  0  0  0  0  0  0  0  0  0
   15.2721  -10.3261   14.8126 O   0  0  0  0  0  0  0  0  0  0  0  0
   17.4404   -9.7685   14.1382 N   0  0  0  0  0  0  0  0  0  0  0  0
   18.0077   -9.4136   13.4161 H   0  0  0  0  0  0  0  0  0  0  0  0
   18.0731  -10.1853   15.3812 C   0  0  0  0  0  0  0  0  0  0  0  0
   19.5642  -10.3521   15.1604 C   0  0  0  0  0  0  0  0  0  0  0  0
   17.8192   -9.1801   16.4573 C   0  0  0  0  0  0  0  0  0  0  0  0
   16.5147   -9.0887   17.0333 N   0  0  0  0  0  0  0  0  0  0  0  0
   18.7451   -8.4151   16.8445 O   0  0  0  0  0  0  0  0  0  0  0  0
   15.8255   -9.7303   16.7462 H   0  0  0  0  0  0  0  0  0  0  0  0
   16.1640   -8.0852   18.0271 C   0  0  0  0  0  0  0  0  0  0  0  0
   14.7038   -7.6941   17.8755 C   0  0  0  0  0  0  0  0  0  0  0  0
   14.0820   -7.4416   19.2371 C   0  0  0  0  0  0  0  0  0  0  0  0
   14.8883   -7.9847   20.2380 O   0  0  0  0  0  0  0  0  0  0  0  0
   14.3086   -7.5507   21.4294 C   0  0  0  0  0  0  0  0  0  0  0  0
   16.6247  -10.1616    9.0392 S   0  0  0  0  0  0  0  0  0  0  0  0
   17.0161  -11.2416   10.0095 O   0  0  0  0  0  0  0  0  0  0  0  0
   16.1950  -10.8145    7.7545 O   0  0  0  0  0  0  0  0  0  0  0  0
   18.0228   -9.1256    8.7509 C   0  0  0  0  0  0  0  0  0  0  0  0
   18.7908   -8.6964    9.8432 C   0  0  0  0  0  0  0  0  0  0  0  0
   19.8977   -7.8544    9.6615 C   0  0  0  0  0  0  0  0  0  0  0  0
   20.2571   -7.4171    8.3818 C   0  0  0  0  0  0  0  0  0  0  0  0
   19.5025   -7.8316    7.2857 C   0  0  0  0  0  0  0  0  0  0  0  0
   19.7849   -7.4421    6.0180 N   0  0  0  0  0  0  0  0  0  0  0  0
   18.5781   -8.2220    5.1994 S   0  0  0  0  0  0  0  0  0  0  0  0
   17.7014   -9.0376    6.3402 N   0  0  0  0  0  0  0  0  0  0  0  0
   18.3793   -8.6906    7.4639 C   0  0  0  0  0  0  0  0  0  0  0  0
 22 23  2  0  0  0
 22 24  2  0  0  0
 22  1  1  0  0  0
  1  2  1  0  0  0
  2  3  1  0  0  0
  3  4  1  0  0  0
  4  5  1  0  0  0
  5  6  1  0  0  0
  4  7  1  0  0  0
  7  8  2  0  0  0
  7  9  1  0  0  0
 11  9  1  0  0  0
 11 12  1  0  0  0
 11 13  1  0  0  0
 13 14  1  0  0  0
 14 17  1  0  0  0
 17 18  1  0  0  0
 18 19  1  0  0  0
 19 20  1  0  0  0
 20 21  1  0  0  0
 13 15  2  0  0  0
 22 25  1  0  0  0
 25 26  2  0  0  0
 26 27  1  0  0  0
 27 28  2  0  0  0
 28 29  1  0  0  0
 29 30  2  0  0  0
 30 31  1  0  0  0
 31 32  1  0  0  0
 32 33  2  0  0  0
  6  1  1  0  0  0
 33 25  1  0  0  0
 33 29  1  0  0  0
  9 10  1  0  0  0
 14 16  1  0  0  0
M  END
>  <minimizedAffinity>
0.41780

>  <minimizedRMSD>
3.53893

$$$$
CSSS00159519396 MCULE-9046201564 MolPort-005-093-170 PubChem-45217003


 35 38  0  0  0  0  0  0  0  0999 V2000
   15.8615   -8.8831   14.1855 C   0  0  0  0  0  0  0  0  0  0  0  0
   16.8576   -9.8398   14.4058 C   0  0  0  0  0  0  0  0  0  0  0  0
   17.2969  -10.1246   15.6637 N   0  0  0  0  0  0  0  0  0  0  0  0
   16.7774   -9.4848   16.7429 C   0  0  0  0  0  0  0  0  0  0  0  0
   15.7781   -8.5157   16.6004 C   0  0  0  0  0  0  0  0  0  0  0  0
   15.3145   -8.2112   15.3010 C   0  0  0  0  0  0  0  0  0  0  0  0
   14.4150   -7.3421   15.1374 O   0  0  0  0  0  0  0  0  0  0  0  0
   18.3381  -11.1239   15.8880 C   0  0  0  0  0  0  0  0  0  0  0  0
   17.7392  -12.4917   16.1680 C   0  0  0  0  0  0  0  0  0  0  0  0
   18.6270  -13.4756   15.4424 C   0  0  0  0  0  0  0  0  0  0  0  0
   19.1646  -12.7210   14.2470 C   0  0  0  0  0  0  0  0  0  0  0  0
   19.2437  -11.2679   14.6726 C   0  0  0  0  0  0  0  0  0  0  0  0
   15.3093   -9.7052   11.8672 N   0  0  0  0  0  0  0  0  0  0  0  0
   15.4320   -8.6173   12.7910 C   0  0  0  0  0  0  0  0  0  0  0  0
   15.1730   -7.4435   12.4091 O   0  0  0  0  0  0  0  0  0  0  0  0
   15.4713  -10.6196   12.1942 H   0  0  0  0  0  0  0  0  0  0  0  0
   14.3859  -10.8129    9.9153 C   0  0  0  0  0  0  0  0  0  0  0  0
   14.9558   -9.5205   10.4663 C   0  0  0  0  0  0  0  0  0  0  0  0
   16.1590   -9.1179    9.6757 C   0  0  0  0  0  0  0  0  0  0  0  0
   16.2037   -9.2196    8.3217 N   0  0  0  0  0  0  0  0  0  0  0  0
   17.4249   -8.7459    8.0377 C   0  0  0  0  0  0  0  0  0  0  0  0
   18.0146   -8.6137    6.7830 C   0  0  0  0  0  0  0  0  0  0  0  0
   19.3172   -8.0825    6.7338 C   0  0  0  0  0  0  0  0  0  0  0  0
   19.9831   -7.7031    7.9210 C   0  0  0  0  0  0  0  0  0  0  0  0
   19.3545   -7.8505    9.1716 C   0  0  0  0  0  0  0  0  0  0  0  0
   18.0667   -8.3804    9.1816 C   0  0  0  0  0  0  0  0  0  0  0  0
   17.2830   -8.6051   10.2451 N   0  0  0  0  0  0  0  0  0  0  0  0
   17.4726   -8.4407   11.1971 H   0  0  0  0  0  0  0  0  0  0  0  0
   15.2541   -7.8538   17.8205 C   0  0  0  0  0  0  0  0  0  0  0  0
   14.3331   -6.9953   17.7425 O   0  0  0  0  0  0  0  0  0  0  0  0
   15.7969   -8.1937   19.1018 N   0  0  0  0  0  0  0  0  0  0  0  0
   16.4987   -8.8826   19.1481 H   0  0  0  0  0  0  0  0  0  0  0  0
   15.3560   -7.5648   20.3382 C   0  0  0  0  0  0  0  0  0  0  0  0
   16.3317   -6.5162   20.7553 C   0  0  0  0  0  0  0  0  0  0  0  0
   16.9186   -6.5907   21.9451 C   0  0  0  0  0  0  0  0  0  0  0  0
 18 17  1  0  0  0
 18 13  1  0  0  0
 18 19  1  0  0  0
 13 14  1  0  0  0
 14 15  2  0  0  0
 14  1  1  0  0  0
  1  2  2  0  0  0
  2  3  1  0  0  0
  3  4  1  0  0  0
  3  8  1  0  0  0
  4  5  2  0  0  0
  5 29  1  0  0  0
  5  6  1  0  0  0
 29 30  2  0  0  0
 29 31  1  0  0  0
 31 33  1  0  0  0
 33 34  1  0  0  0
 34 35  2  0  0  0
  6  7  2  0  0  0
  6  1  1  0  0  0
  8  9  1  0  0  0
  9 10  1  0  0  0
 10 11  1  0  0  0
 11 12  1  0  0  0
 12  8  1  0  0  0
 19 20  2  0  0  0
 20 21  1  0  0  0
 21 22  2  0  0  0
 22 23  1  0  0  0
 23 24  2  0  0  0
 24 25  1  0  0  0
 25 26  2  0  0  0
 26 27  1  0  0  0
 26 21  1  0  0  0
 27 19  1  0  0  0
 13 16  1  0  0  0
 31 32  1  0  0  0
 27 28  1  0  0  0
M  END
>  <minimizedAffinity>
0.46490

>  <minimizedRMSD>
1.60570

$$$$
20406963 CSSS00159546393 MCULE-1748682362 MolPort-005-137-706 PubChem-28922363 ZINC000020406963 ZINC20406963


 37 41  0  0  0  0  0  0  0  0999 V2000
   18.3932  -10.1158   14.2246 N   0  0  0  0  0  0  0  0  0  0  0  0
   19.3150  -10.7295   15.0071 C   0  0  0  0  0  0  0  0  0  0  0  0
   19.0974  -10.5173   16.3306 N   0  0  0  0  0  0  0  0  0  0  0  0
   18.0043   -9.7342   16.3487 C   0  0  0  0  0  0  0  0  0  0  0  0
   17.3967   -9.1725   17.4671 C   0  0  0  0  0  0  0  0  0  0  0  0
   16.2953   -8.3215   17.2638 C   0  0  0  0  0  0  0  0  0  0  0  0
   15.8404   -8.0625   15.9483 C   0  0  0  0  0  0  0  0  0  0  0  0
   16.4637   -8.6499   14.8320 C   0  0  0  0  0  0  0  0  0  0  0  0
   17.5654   -9.4875   15.0788 C   0  0  0  0  0  0  0  0  0  0  0  0
   15.6694   -7.7293   18.4093 N   0  0  0  0  0  0  0  0  0  0  0  0
   14.3482   -7.1718   18.4748 C   0  0  0  0  0  0  0  0  0  0  0  0
   13.5714   -7.2187   17.4841 O   0  0  0  0  0  0  0  0  0  0  0  0
   16.2010   -7.7021   19.2375 H   0  0  0  0  0  0  0  0  0  0  0  0
   13.8725   -6.5366   19.7386 C   0  0  0  0  0  0  0  0  0  0  0  0
   13.8367   -7.5665   20.8686 C   0  0  0  0  0  0  0  0  0  0  0  0
   13.3298   -6.9266   22.1598 C   0  0  0  0  0  0  0  0  0  0  0  0
   11.9456   -6.3197   21.9405 C   0  0  0  0  0  0  0  0  0  0  0  0
   11.9902   -5.2828   20.8217 C   0  0  0  0  0  0  0  0  0  0  0  0
   12.4895   -5.9211   19.5281 C   0  0  0  0  0  0  0  0  0  0  0  0
   15.9366   -8.3700   13.4870 C   0  0  0  0  0  0  0  0  0  0  0  0
   15.9541   -7.1810   13.0673 O   0  0  0  0  0  0  0  0  0  0  0  0
   15.3486   -9.4080   12.6829 N   0  0  0  0  0  0  0  0  0  0  0  0
   15.0380  -10.7094   13.2571 C   0  0  0  0  0  0  0  0  0  0  0  0
   14.8453   -9.1190   11.3464 C   0  0  0  0  0  0  0  0  0  0  0  0
   15.7391   -9.7117   10.3063 C   0  0  0  0  0  0  0  0  0  0  0  0
   15.5661  -10.9409    9.6876 C   0  0  0  0  0  0  0  0  0  0  0  0
   16.5896  -11.1375    8.8170 N   0  0  0  0  0  0  0  0  0  0  0  0
   17.3461  -10.0287    8.9369 C   0  0  0  0  0  0  0  0  0  0  0  0
   18.5166   -9.7589    8.2310 C   0  0  0  0  0  0  0  0  0  0  0  0
   19.1583   -8.5361    8.4887 C   0  0  0  0  0  0  0  0  0  0  0  0
   18.6259   -7.6326    9.4291 C   0  0  0  0  0  0  0  0  0  0  0  0
   17.4454   -7.9620   10.1108 C   0  0  0  0  0  0  0  0  0  0  0  0
   16.8600   -9.1535    9.8298 N   0  0  0  0  0  0  0  0  0  0  0  0
   18.3973  -10.0785   12.7681 C   0  0  0  0  0  0  0  0  0  0  0  0
   18.4266  -11.4855   12.1928 C   0  0  0  0  0  0  0  0  0  0  0  0
   18.1280  -12.9887   13.7773 C   0  0  0  0  0  0  0  0  0  0  0  0
   19.1229  -12.3395   13.0477 O   0  0  0  0  0  0  0  0  0  0  0  0
 36 37  1  0  0  0
 37 35  1  0  0  0
 35 34  1  0  0  0
 34  1  1  0  0  0
  1  2  1  0  0  0
  2  3  2  0  0  0
  3  4  1  0  0  0
  4  5  2  0  0  0
  5  6  1  0  0  0
  6 10  1  0  0  0
  6  7  2  0  0  0
 10 11  1  0  0  0
 11 12  2  0  0  0
 11 14  1  0  0  0
 14 15  1  0  0  0
 15 16  1  0  0  0
 16 17  1  0  0  0
 17 18  1  0  0  0
 18 19  1  0  0  0
 19 14  1  0  0  0
  7  8  1  0  0  0
  8 20  1  0  0  0
  8  9  2  0  0  0
 20 21  2  0  0  0
 20 22  1  0  0  0
 22 23  1  0  0  0
 22 24  1  0  0  0
 24 25  1  0  0  0
 25 26  2  0  0  0
 26 27  1  0  0  0
 27 28  2  0  0  0
 28 29  1  0  0  0
 29 30  2  0  0  0
 30 31  1  0  0  0
 31 32  2  0  0  0
 32 33  1  0  0  0
 33 25  1  0  0  0
 33 28  1  0  0  0
  9  1  1  0  0  0
  9  4  1  0  0  0
 10 13  1  0  0  0
M  END
>  <minimizedAffinity>
0.46728

>  <minimizedRMSD>
1.97946

$$$$
CSC027500353 72285340 CSSS00027500353 MCULE-7564090980 MolPort-023-153-570 PubChem-72134440 Z1209495769 ZINC000072285340


 30 32  0  0  0  0  0  0  0  0999 V2000
   18.1424  -11.2912   13.6864 C   0  0  0  0  0  0  0  0  0  0  0  0
   17.8207  -10.6051   12.4764 N   0  0  0  0  0  0  0  0  0  0  0  0
   18.8627  -12.3259   13.6599 O   0  0  0  0  0  0  0  0  0  0  0  0
   17.2487   -9.8049   12.5197 H   0  0  0  0  0  0  0  0  0  0  0  0
   16.5533   -9.5908   16.3352 C   0  0  0  0  0  0  0  0  0  0  0  0
   16.8063   -9.7719   15.0649 O   0  0  0  0  0  0  0  0  0  0  0  0
   17.6279  -10.7858   14.9625 C   0  0  0  0  0  0  0  0  0  0  0  0
   17.9311  -11.2978   16.2122 C   0  0  0  0  0  0  0  0  0  0  0  0
   17.2252  -10.5141   17.1116 C   0  0  0  0  0  0  0  0  0  0  0  0
   15.4965   -8.3380   16.9511 S   0  0  0  0  0  0  0  0  0  0  0  0
   15.5618   -7.1461   16.0368 O   0  0  0  0  0  0  0  0  0  0  0  0
   14.0865   -8.8565   17.0030 O   0  0  0  0  0  0  0  0  0  0  0  0
   14.8357   -7.6034   19.3315 C   0  0  0  0  0  0  0  0  0  0  0  0
   16.0203   -7.8780   18.5365 N   0  0  0  0  0  0  0  0  0  0  0  0
   16.5542   -8.6370   18.9597 H   0  0  0  0  0  0  0  0  0  0  0  0
   18.3111  -11.0508   11.1823 C   0  0  0  0  0  0  0  0  0  0  0  0
   17.8513  -10.1040   10.1160 C   0  0  0  0  0  0  0  0  0  0  0  0
   18.7923   -9.3133    9.4101 C   0  0  0  0  0  0  0  0  0  0  0  0
   20.2610   -9.4075    9.6707 C   0  0  0  0  0  0  0  0  0  0  0  0
   18.2898   -8.4353    8.4523 C   0  0  0  0  0  0  0  0  0  0  0  0
   16.9544   -8.3398    8.2080 C   0  0  0  0  0  0  0  0  0  0  0  0
   16.7234   -7.4280    7.2490 N   0  0  0  0  0  0  0  0  0  0  0  0
   17.8843   -6.9171    6.8534 N   0  0  0  0  0  0  0  0  0  0  0  0
   18.8531   -7.5238    7.5803 C   0  0  0  0  0  0  0  0  0  0  0  0
   20.0808   -7.2723    7.4613 O   0  0  0  0  0  0  0  0  0  0  0  0
   15.4317   -7.0348    6.7141 C   0  0  0  0  0  0  0  0  0  0  0  0
   16.0363   -9.0804    8.8741 N   0  0  0  0  0  0  0  0  0  0  0  0
   16.4612   -9.9624    9.8290 C   0  0  0  0  0  0  0  0  0  0  0  0
   15.4402  -10.7707   10.5562 C   0  0  0  0  0  0  0  0  0  0  0  0
   18.0156   -6.2279    6.1627 H   0  0  0  0  0  0  0  0  0  0  0  0
 13 14  1  0  0  0
 14 10  1  0  0  0
 10  5  1  0  0  0
  5  6  1  0  0  0
  6  7  1  0  0  0
  7  1  1  0  0  0
  1  2  1  0  0  0
  2 16  1  0  0  0
 16 17  1  0  0  0
 17 18  2  0  0  0
 18 19  1  0  0  0
 18 20  1  0  0  0
 20 21  2  0  0  0
 21 22  1  0  0  0
 22 23  1  0  0  0
 23 24  1  0  0  0
 24 25  2  0  0  0
 22 26  1  0  0  0
 21 27  1  0  0  0
 27 28  2  0  0  0
 28 29  1  0  0  0
  1  3  2  0  0  0
  7  8  2  0  0  0
  8  9  1  0  0  0
 10 11  2  0  0  0
 10 12  2  0  0  0
  9  5  2  0  0  0
 28 17  1  0  0  0
 24 20  1  0  0  0
 14 15  1  0  0  0
  2  4  1  0  0  0
 23 30  1  0  0  0
M  END
>  <minimizedAffinity>
0.48014

>  <minimizedRMSD>
0.72908

$$$$
CSSS00160862741 LN01952725 MolPort-000-672-722 PubChem-135606642 ZINC36075005


 34 37  0  0  0  0  0  0  0  0999 V2000
   16.0866  -11.2239   10.4678 N   0  0  0  0  0  0  0  0  0  0  0  0
   15.7613  -10.5368    9.2597 C   0  0  0  0  0  0  0  0  0  0  0  0
   15.4398  -11.1974    8.2383 O   0  0  0  0  0  0  0  0  0  0  0  0
   16.0441  -12.2073   10.4908 H   0  0  0  0  0  0  0  0  0  0  0  0
   17.2317  -11.0841   12.4975 C   0  0  0  0  0  0  0  0  0  0  0  0
   16.4647  -10.5258   11.6202 N   0  0  0  0  0  0  0  0  0  0  0  0
   18.9573   -8.3396   17.1377 O   0  0  0  0  0  0  0  0  0  0  0  0
   18.4958   -9.0056   16.0088 C   0  0  0  0  0  0  0  0  0  0  0  0
   19.4266   -9.6300   15.1729 C   0  0  0  0  0  0  0  0  0  0  0  0
   19.0064  -10.3082   14.0276 C   0  0  0  0  0  0  0  0  0  0  0  0
   17.6495  -10.3687   13.7071 C   0  0  0  0  0  0  0  0  0  0  0  0
   16.7130   -9.7448   14.5420 C   0  0  0  0  0  0  0  0  0  0  0  0
   17.1175   -9.0588   15.6970 C   0  0  0  0  0  0  0  0  0  0  0  0
   19.8749   -8.3166   17.3257 H   0  0  0  0  0  0  0  0  0  0  0  0
   16.1186   -8.4317   16.5223 N   0  0  0  0  0  0  0  0  0  0  0  0
   15.2758   -7.4870   15.9822 O   0  0  0  0  0  0  0  0  0  0  0  0
   15.9981   -8.7229   17.7298 O   0  0  0  0  0  0  0  0  0  0  0  0
   15.8239   -9.0440    9.1804 C   0  0  0  0  0  0  0  0  0  0  0  0
   17.2020   -8.5976    9.0049 N   0  0  0  0  0  0  0  0  0  0  0  0
   17.9759   -8.4452   10.1218 C   0  0  0  0  0  0  0  0  0  0  0  0
   19.2640   -8.0196   10.0229 N   0  0  0  0  0  0  0  0  0  0  0  0
   19.7741   -7.7664    8.7967 C   0  0  0  0  0  0  0  0  0  0  0  0
   19.0456   -7.9263    7.6372 C   0  0  0  0  0  0  0  0  0  0  0  0
   19.7923   -7.5920    6.4816 C   0  0  0  0  0  0  0  0  0  0  0  0
   21.0889   -7.1472    6.7740 C   0  0  0  0  0  0  0  0  0  0  0  0
   21.3058   -7.1972    8.4510 S   0  0  0  0  0  0  0  0  0  0  0  0
   17.7046   -8.3272    7.7566 C   0  0  0  0  0  0  0  0  0  0  0  0
   16.9612   -8.4126    6.7418 O   0  0  0  0  0  0  0  0  0  0  0  0
   19.3323   -7.7158    5.0860 C   0  0  0  0  0  0  0  0  0  0  0  0
   19.6992   -6.7469    4.1413 C   0  0  0  0  0  0  0  0  0  0  0  0
   19.3105   -6.8802    2.8049 C   0  0  0  0  0  0  0  0  0  0  0  0
   18.5645   -7.9908    2.4018 C   0  0  0  0  0  0  0  0  0  0  0  0
   18.2123   -8.9712    3.3332 C   0  0  0  0  0  0  0  0  0  0  0  0
   18.6011   -8.8377    4.6694 C   0  0  0  0  0  0  0  0  0  0  0  0
  7  8  1  0  0  0
  8  9  2  0  0  0
  9 10  1  0  0  0
 10 11  2  0  0  0
 11  5  1  0  0  0
 11 12  1  0  0  0
  5  6  2  0  0  0
  6  1  1  0  0  0
  1  2  1  0  0  0
  2  3  2  0  0  0
  2 18  1  0  0  0
 18 19  1  0  0  0
 19 20  1  0  0  0
 20 21  2  0  0  0
 21 22  1  0  0  0
 22 23  2  0  0  0
 23 24  1  0  0  0
 23 27  1  0  0  0
 24 25  2  0  0  0
 24 29  1  0  0  0
 25 26  1  0  0  0
 26 22  1  0  0  0
 29 30  2  0  0  0
 30 31  1  0  0  0
 31 32  2  0  0  0
 32 33  1  0  0  0
 33 34  2  0  0  0
 34 29  1  0  0  0
 27 28  2  0  0  0
 27 19  1  0  0  0
 12 13  2  0  0  0
 13 15  1  0  0  0
 13  8  1  0  0  0
 15 16  1  0  0  0
 15 17  2  0  0  0
  7 14  1  0  0  0
  1  4  1  0  0  0
M  CHG 1  15   1
M  CHG 1  16  -1
M  END
>  <minimizedAffinity>
0.49597

>  <minimizedRMSD>
2.10632

$$$$
CSSS01198537003 Z3649232047


 28 32  0  0  0  0  0  0  0  0999 V2000
   16.7821   -9.0847   13.2070 N   0  0  0  0  0  0  0  0  0  0  0  0
   15.5981   -8.3009   12.9141 C   0  0  0  0  0  0  0  0  0  0  0  0
   15.6628   -7.9847   11.4318 C   0  0  0  0  0  0  0  0  0  0  0  0
   17.0707   -8.3487   10.9787 C   0  0  0  0  0  0  0  0  0  0  0  0
   17.6748   -9.2103   12.0717 C   0  0  0  0  0  0  0  0  0  0  0  0
   18.8529  -13.4407   16.9430 C   0  0  0  0  0  0  0  0  0  0  0  0
   18.4658  -12.5811   15.8384 N   0  0  0  0  0  0  0  0  0  0  0  0
   18.6834  -12.8575   14.5586 N   0  0  0  0  0  0  0  0  0  0  0  0
   18.1935  -11.8401   13.7997 C   0  0  0  0  0  0  0  0  0  0  0  0
   17.6535  -10.9032   14.6672 C   0  0  0  0  0  0  0  0  0  0  0  0
   17.0167   -9.6711   14.4984 C   0  0  0  0  0  0  0  0  0  0  0  0
   16.6106   -9.0211   15.6325 N   0  0  0  0  0  0  0  0  0  0  0  0
   16.8149   -9.5469   16.8826 C   0  0  0  0  0  0  0  0  0  0  0  0
   16.3739   -8.8320   18.0302 N   0  0  0  0  0  0  0  0  0  0  0  0
   17.4390  -10.7529   17.0327 N   0  0  0  0  0  0  0  0  0  0  0  0
   17.8432  -11.4011   15.9146 C   0  0  0  0  0  0  0  0  0  0  0  0
   15.9238   -7.9627   17.9257 H   0  0  0  0  0  0  0  0  0  0  0  0
   16.5187   -9.2065   18.9291 H   0  0  0  0  0  0  0  0  0  0  0  0
   17.0484   -9.0751    9.6660 C   0  0  0  0  0  0  0  0  0  0  0  0
   16.2629  -10.1781    9.5195 N   0  0  0  0  0  0  0  0  0  0  0  0
   16.2155  -10.8645    8.3479 C   0  0  0  0  0  0  0  0  0  0  0  0
   16.9601  -10.4589    7.2871 N   0  0  0  0  0  0  0  0  0  0  0  0
   17.7611   -9.3669    7.3760 C   0  0  0  0  0  0  0  0  0  0  0  0
   18.5206   -8.9648    6.2734 C   0  0  0  0  0  0  0  0  0  0  0  0
   19.3460   -7.8400    6.3648 C   0  0  0  0  0  0  0  0  0  0  0  0
   19.4148   -7.1144    7.5580 C   0  0  0  0  0  0  0  0  0  0  0  0
   18.6582   -7.5104    8.6648 C   0  0  0  0  0  0  0  0  0  0  0  0
   17.8271   -8.6376    8.5823 C   0  0  0  0  0  0  0  0  0  0  0  0
  6  7  1  0  0  0
  7  8  1  0  0  0
  8  9  2  0  0  0
  9 10  1  0  0  0
 10 11  2  0  0  0
 11 12  1  0  0  0
 12 13  2  0  0  0
 13 14  1  0  0  0
 13 15  1  0  0  0
 15 16  2  0  0  0
 11  1  1  0  0  0
  1  2  1  0  0  0
  2  3  1  0  0  0
  3  4  1  0  0  0
  4  5  1  0  0  0
  4 19  1  0  0  0
 19 20  2  0  0  0
 20 21  1  0  0  0
 21 22  2  0  0  0
 22 23  1  0  0  0
 23 24  2  0  0  0
 24 25  1  0  0  0
 25 26  2  0  0  0
 26 27  1  0  0  0
 27 28  2  0  0  0
 16  7  1  0  0  0
  5  1  1  0  0  0
 28 19  1  0  0  0
 16 10  1  0  0  0
 28 23  1  0  0  0
 14 17  1  0  0  0
 14 18  1  0  0  0
M  END
>  <minimizedAffinity>
0.50737

>  <minimizedRMSD>
1.28482

$$$$
CSC026430570 CSSS00026430570 MCULE-3814130486 MolPort-009-319-120 PubChem-45894944 Z424329244


 33 37  0  0  0  0  0  0  0  0999 V2000
   19.0519   -8.6833   10.0487 C   0  0  0  0  0  0  0  0  0  0  0  0
   19.7567   -7.9247   10.7644 O   0  0  0  0  0  0  0  0  0  0  0  0
   18.3284   -9.7738   10.6393 N   0  0  0  0  0  0  0  0  0  0  0  0
   17.8315  -10.3583   10.0223 H   0  0  0  0  0  0  0  0  0  0  0  0
   16.3427  -10.4147    9.1418 C   0  0  0  0  0  0  0  0  0  0  0  0
   16.8478   -9.7607    7.9047 C   0  0  0  0  0  0  0  0  0  0  0  0
   16.2615   -9.9291    6.6957 N   0  0  0  0  0  0  0  0  0  0  0  0
   16.9876   -9.2979    5.8140 O   0  0  0  0  0  0  0  0  0  0  0  0
   18.0124   -8.7385    6.4020 C   0  0  0  0  0  0  0  0  0  0  0  0
   19.0025   -8.0367    5.8012 N   0  0  0  0  0  0  0  0  0  0  0  0
   20.0228   -7.5410    6.5644 C   0  0  0  0  0  0  0  0  0  0  0  0
   20.0470   -7.7801    7.9576 C   0  0  0  0  0  0  0  0  0  0  0  0
   19.0102   -8.5006    8.5845 C   0  0  0  0  0  0  0  0  0  0  0  0
   17.9854   -8.9804    7.7476 C   0  0  0  0  0  0  0  0  0  0  0  0
   21.1516   -6.8015    5.9174 C   0  0  0  0  0  0  0  0  0  0  0  0
   20.6931   -6.1992    4.6005 C   0  0  0  0  0  0  0  0  0  0  0  0
   21.5276   -7.4589    4.6006 C   0  0  0  0  0  0  0  0  0  0  0  0
   18.2533  -10.1010   12.0333 C   0  0  0  0  0  0  0  0  0  0  0  0
   19.3158  -10.7942   12.6201 C   0  0  0  0  0  0  0  0  0  0  0  0
   19.2798  -11.1266   13.9760 C   0  0  0  0  0  0  0  0  0  0  0  0
   18.1757  -10.7704   14.7540 C   0  0  0  0  0  0  0  0  0  0  0  0
   17.0897  -10.0873   14.1817 C   0  0  0  0  0  0  0  0  0  0  0  0
   17.1480   -9.7464   12.8203 C   0  0  0  0  0  0  0  0  0  0  0  0
   15.9081   -9.6529   15.0243 C   0  0  0  0  0  0  0  0  0  0  0  0
   14.6191  -10.3245   14.5705 C   0  0  0  0  0  0  0  0  0  0  0  0
   16.1235   -9.9419   16.4400 N   0  0  0  0  0  0  0  0  0  0  0  0
   16.1073   -8.6962   17.1257 C   0  0  0  0  0  0  0  0  0  0  0  0
   16.2732   -8.6021   18.3691 O   0  0  0  0  0  0  0  0  0  0  0  0
   15.8859   -7.5703   16.2951 N   0  0  0  0  0  0  0  0  0  0  0  0
   15.7571   -8.1601   15.0097 C   0  0  0  0  0  0  0  0  0  0  0  0
   15.5345   -7.4789   13.9736 O   0  0  0  0  0  0  0  0  0  0  0  0
   16.2549  -10.8305   16.8430 H   0  0  0  0  0  0  0  0  0  0  0  0
   15.8344   -6.6196   16.5456 H   0  0  0  0  0  0  0  0  0  0  0  0
  5  6  1  0  0  0
  6  7  2  0  0  0
  7  8  1  0  0  0
  8  9  1  0  0  0
  9 10  2  0  0  0
 10 11  1  0  0  0
 11 12  2  0  0  0
 11 15  1  0  0  0
 12 13  1  0  0  0
 13  1  1  0  0  0
 13 14  2  0  0  0
  1  2  2  0  0  0
  1  3  1  0  0  0
  3 18  1  0  0  0
 18 19  2  0  0  0
 19 20  1  0  0  0
 20 21  2  0  0  0
 21 22  1  0  0  0
 22 23  2  0  0  0
 23 18  1  0  0  0
 24 22  1  0  0  0
 24 25  1  0  0  0
 24 26  1  0  0  0
 26 27  1  0  0  0
 27 28  2  0  0  0
 27 29  1  0  0  0
 29 30  1  0  0  0
 30 31  2  0  0  0
 30 24  1  0  0  0
 14  6  1  0  0  0
 14  9  1  0  0  0
 15 16  1  0  0  0
 16 17  1  0  0  0
 17 15  1  0  0  0
  3  4  1  0  0  0
 26 32  1  0  0  0
 29 33  1  0  0  0
M  END
>  <minimizedAffinity>
0.58450

>  <minimizedRMSD>
2.46230

$$$$
CSC027059075 95454613 CSSS00027059075 MCULE-1106684581 MolPort-027-932-103 PubChem-75397188 Z1566610615 ZINC000095454613 ZINC95454613


 32 35  0  0  0  0  0  0  0  0999 V2000
   15.5494   -8.6615   15.5466 C   0  0  0  0  0  0  0  0  0  0  0  0
   15.5381   -7.5163   16.0773 O   0  0  0  0  0  0  0  0  0  0  0  0
   15.7935   -8.8014   14.1036 C   0  0  0  0  0  0  0  0  0  0  0  0
   16.4045   -7.7748   13.3768 C   0  0  0  0  0  0  0  0  0  0  0  0
   16.6752   -7.9448   12.0193 C   0  0  0  0  0  0  0  0  0  0  0  0
   16.3348   -9.1500   11.3903 C   0  0  0  0  0  0  0  0  0  0  0  0
   15.7346  -10.1337   12.1180 N   0  0  0  0  0  0  0  0  0  0  0  0
   15.4626   -9.9880   13.4421 C   0  0  0  0  0  0  0  0  0  0  0  0
   16.6230   -9.3700    9.9987 N   0  0  0  0  0  0  0  0  0  0  0  0
   15.9904  -10.2581    9.1901 C   0  0  0  0  0  0  0  0  0  0  0  0
   16.4882  -10.2644    7.9251 N   0  0  0  0  0  0  0  0  0  0  0  0
   17.4663   -9.3434    7.9675 C   0  0  0  0  0  0  0  0  0  0  0  0
   18.3099   -8.9568    6.9292 C   0  0  0  0  0  0  0  0  0  0  0  0
   19.2751   -7.9724    7.2103 C   0  0  0  0  0  0  0  0  0  0  0  0
   19.3717   -7.4099    8.5024 C   0  0  0  0  0  0  0  0  0  0  0  0
   18.5029   -7.8238    9.5282 C   0  0  0  0  0  0  0  0  0  0  0  0
   17.5551   -8.7997    9.2143 C   0  0  0  0  0  0  0  0  0  0  0  0
   15.3647   -9.8032   16.3330 O   0  0  0  0  0  0  0  0  0  0  0  0
   15.9503   -9.9361   17.6225 C   0  0  0  0  0  0  0  0  0  0  0  0
   18.2027   -9.0204   16.9631 N   0  0  0  0  0  0  0  0  0  0  0  0
   17.4219  -10.1027   17.4710 C   0  0  0  0  0  0  0  0  0  0  0  0
   17.9500  -11.2244   17.6947 O   0  0  0  0  0  0  0  0  0  0  0  0
   17.8824   -8.0986   17.0934 H   0  0  0  0  0  0  0  0  0  0  0  0
   19.4573   -9.2383   16.2591 C   0  0  0  0  0  0  0  0  0  0  0  0
   18.3519  -12.4278   11.5655 C   0  0  0  0  0  0  0  0  0  0  0  0
   18.6419  -11.6212   12.7826 C   0  0  0  0  0  0  0  0  0  0  0  0
   19.1172  -10.3134   12.6430 C   0  0  0  0  0  0  0  0  0  0  0  0
   19.3973   -9.5435   13.7757 C   0  0  0  0  0  0  0  0  0  0  0  0
   19.2121  -10.0823   15.0532 C   0  0  0  0  0  0  0  0  0  0  0  0
   18.7251  -11.3867   15.1941 C   0  0  0  0  0  0  0  0  0  0  0  0
   18.4422  -12.1585   14.0627 C   0  0  0  0  0  0  0  0  0  0  0  0
   17.9729  -13.4216   14.2172 F   0  0  0  0  0  0  0  0  0  0  0  0
 25 26  1  0  0  0
 26 27  2  0  0  0
 27 28  1  0  0  0
 28 29  2  0  0  0
 29 24  1  0  0  0
 29 30  1  0  0  0
 24 20  1  0  0  0
 20 21  1  0  0  0
 21 22  2  0  0  0
 21 19  1  0  0  0
 19 18  1  0  0  0
 18  1  1  0  0  0
  1  2  2  0  0  0
  1  3  1  0  0  0
  3  4  2  0  0  0
  4  5  1  0  0  0
  5  6  2  0  0  0
  6  7  1  0  0  0
  6  9  1  0  0  0
  7  8  2  0  0  0
  8  3  1  0  0  0
  9 10  1  0  0  0
 10 11  2  0  0  0
 11 12  1  0  0  0
 12 13  2  0  0  0
 13 14  1  0  0  0
 14 15  2  0  0  0
 15 16  1  0  0  0
 16 17  2  0  0  0
 17  9  1  0  0  0
 17 12  1  0  0  0
 30 31  2  0  0  0
 31 32  1  0  0  0
 31 26  1  0  0  0
 20 23  1  0  0  0
M  END
>  <minimizedAffinity>
0.66095

>  <minimizedRMSD>
1.96611

$$$$
CSSS01497652613 MolPort-047-815-869 Z1227795037


 33 36  0  0  0  0  0  0  0  0999 V2000
   18.8123   -7.8796    9.3635 C   0  0  0  0  0  0  0  0  0  0  0  0
   19.8799   -8.2257    9.9342 O   0  0  0  0  0  0  0  0  0  0  0  0
   17.5337   -8.2363    9.9051 N   0  0  0  0  0  0  0  0  0  0  0  0
   16.7404   -7.8936    9.4333 H   0  0  0  0  0  0  0  0  0  0  0  0
   17.2970   -9.0432   11.0666 C   0  0  0  0  0  0  0  0  0  0  0  0
   16.2816   -9.9934   11.1824 C   0  0  0  0  0  0  0  0  0  0  0  0
   16.2838  -10.6530   12.4222 C   0  0  0  0  0  0  0  0  0  0  0  0
   17.3002  -10.2198   13.2710 C   0  0  0  0  0  0  0  0  0  0  0  0
   18.1954   -9.0243   12.4901 S   0  0  0  0  0  0  0  0  0  0  0  0
   17.5525  -10.7277   14.6313 C   0  0  0  0  0  0  0  0  0  0  0  0
   17.1772   -9.9724   15.7518 C   0  0  0  0  0  0  0  0  0  0  0  0
   17.4164  -10.4540   17.0422 C   0  0  0  0  0  0  0  0  0  0  0  0
   18.0331  -11.6951   17.2217 C   0  0  0  0  0  0  0  0  0  0  0  0
   18.4105  -12.4545   16.1110 C   0  0  0  0  0  0  0  0  0  0  0  0
   18.1711  -11.9726   14.8207 C   0  0  0  0  0  0  0  0  0  0  0  0
   15.2927  -10.3007   10.1314 C   0  0  0  0  0  0  0  0  0  0  0  0
   15.7280  -10.7207    8.8418 N   0  0  0  0  0  0  0  0  0  0  0  0
   14.0586  -10.1965   10.3587 O   0  0  0  0  0  0  0  0  0  0  0  0
   16.6900  -10.8063    8.6507 H   0  0  0  0  0  0  0  0  0  0  0  0
   15.0669  -10.9254    8.1416 H   0  0  0  0  0  0  0  0  0  0  0  0
   18.4197   -5.6698    8.3358 C   0  0  0  0  0  0  0  0  0  0  0  0
   18.8912   -7.0908    8.0980 C   0  0  0  0  0  0  0  0  0  0  0  0
   17.8816   -7.8602    6.7921 S   0  0  0  0  0  0  0  0  0  0  0  0
   19.2618   -7.9978    5.6582 C   0  0  0  0  0  0  0  0  0  0  0  0
   19.8947   -6.8777    5.1356 C   0  0  0  0  0  0  0  0  0  0  0  0
   19.6423   -5.5789    5.3448 N   0  0  0  0  0  0  0  0  0  0  0  0
   20.5836   -4.9638    4.5761 C   0  0  0  0  0  0  0  0  0  0  0  0
   21.4005   -5.8243    3.9073 N   0  0  0  0  0  0  0  0  0  0  0  0
   20.9328   -7.0190    4.2875 C   0  0  0  0  0  0  0  0  0  0  0  0
   21.4005   -8.2323    3.9073 N   0  0  0  0  0  0  0  0  0  0  0  0
   20.7851   -9.3451    4.4108 C   0  0  0  0  0  0  0  0  0  0  0  0
   19.7274   -9.2239    5.2758 N   0  0  0  0  0  0  0  0  0  0  0  0
   22.1462   -5.6192    3.2982 H   0  0  0  0  0  0  0  0  0  0  0  0
 21 22  1  0  0  0
 22 23  1  0  0  0
 23 24  1  0  0  0
 24 25  2  0  0  0
 25 26  1  0  0  0
 26 27  2  0  0  0
 27 28  1  0  0  0
 28 29  1  0  0  0
 29 30  2  0  0  0
 30 31  1  0  0  0
 31 32  2  0  0  0
 22  1  1  0  0  0
  1  2  2  0  0  0
  1  3  1  0  0  0
  3  5  1  0  0  0
  5  6  2  0  0  0
  6  7  1  0  0  0
  7  8  2  0  0  0
  8  9  1  0  0  0
  8 10  1  0  0  0
 10 11  2  0  0  0
 11 12  1  0  0  0
 12 13  2  0  0  0
 13 14  1  0  0  0
 14 15  2  0  0  0
  6 16  1  0  0  0
 16 17  1  0  0  0
 16 18  2  0  0  0
 32 24  1  0  0  0
  9  5  1  0  0  0
 15 10  1  0  0  0
 29 25  1  0  0  0
 28 33  1  0  0  0
  3  4  1  0  0  0
 17 19  1  0  0  0
 17 20  1  0  0  0
M  END
>  <minimizedAffinity>
0.66471

>  <minimizedRMSD>
5.03218

$$$$
CSSS00159633866 MCULE-8297488837 MolPort-028-723-259 PubChem-72847163


 26 29  0  0  0  0  0  0  0  0999 V2000
   18.4644  -10.2128   11.8836 N   0  0  0  0  0  0  0  0  0  0  0  0
   19.7865   -9.5911   11.9268 C   0  0  0  0  0  0  0  0  0  0  0  0
   19.8622   -8.6397   13.1177 C   0  0  0  0  0  0  0  0  0  0  0  0
   19.4986   -9.3813   14.4026 C   0  0  0  0  0  0  0  0  0  0  0  0
   18.1042   -9.9982   14.2852 C   0  0  0  0  0  0  0  0  0  0  0  0
   18.0372  -10.9337   13.0797 C   0  0  0  0  0  0  0  0  0  0  0  0
   17.5209   -9.9600   10.8227 C   0  0  0  0  0  0  0  0  0  0  0  0
   16.2811  -10.5349   10.8755 N   0  0  0  0  0  0  0  0  0  0  0  0
   15.3451  -10.3341    9.9013 C   0  0  0  0  0  0  0  0  0  0  0  0
   15.6265   -9.5458    8.8282 N   0  0  0  0  0  0  0  0  0  0  0  0
   16.8485   -8.9706    8.7499 C   0  0  0  0  0  0  0  0  0  0  0  0
   17.4247   -7.9926    7.5248 S   0  0  0  0  0  0  0  0  0  0  0  0
   18.9607   -7.7755    8.2059 C   0  0  0  0  0  0  0  0  0  0  0  0
   19.0149   -8.4843    9.4111 C   0  0  0  0  0  0  0  0  0  0  0  0
   17.8185   -9.1500    9.7115 C   0  0  0  0  0  0  0  0  0  0  0  0
   17.7482  -10.7329   15.5381 C   0  0  0  0  0  0  0  0  0  0  0  0
   18.5437  -11.6509   16.1195 N   0  0  0  0  0  0  0  0  0  0  0  0
   17.8585  -12.0519   17.2130 C   0  0  0  0  0  0  0  0  0  0  0  0
   16.6553  -11.3685   17.2786 C   0  0  0  0  0  0  0  0  0  0  0  0
   16.6026  -10.5507   16.2154 N   0  0  0  0  0  0  0  0  0  0  0  0
   15.5278   -9.6184   15.9051 C   0  0  0  0  0  0  0  0  0  0  0  0
   15.8586   -8.2606   16.4226 C   0  0  0  0  0  0  0  0  0  0  0  0
   15.8157   -8.0018   17.8206 N   0  0  0  0  0  0  0  0  0  0  0  0
   16.2097   -7.3520   15.6262 O   0  0  0  0  0  0  0  0  0  0  0  0
   15.5411   -8.7121   18.4446 H   0  0  0  0  0  0  0  0  0  0  0  0
   16.0606   -7.1123   18.1643 H   0  0  0  0  0  0  0  0  0  0  0  0
  7  8  2  0  0  0
  8  9  1  0  0  0
  9 10  2  0  0  0
 10 11  1  0  0  0
 11 12  1  0  0  0
 12 13  1  0  0  0
 13 14  2  0  0  0
 14 15  1  0  0  0
  7  1  1  0  0  0
  1  2  1  0  0  0
  2  3  1  0  0  0
  3  4  1  0  0  0
  4  5  1  0  0  0
  5  6  1  0  0  0
  5 16  1  0  0  0
 16 17  2  0  0  0
 17 18  1  0  0  0
 18 19  2  0  0  0
 19 20  1  0  0  0
 20 21  1  0  0  0
 21 22  1  0  0  0
 22 23  1  0  0  0
 22 24  2  0  0  0
 15  7  1  0  0  0
  6  1  1  0  0  0
 20 16  1  0  0  0
 15 11  2  0  0  0
 23 25  1  0  0  0
 23 26  1  0  0  0
M  END
>  <minimizedAffinity>
0.66991

>  <minimizedRMSD>
0.83293

$$$$
299780582 CSSS00160175457 MCULE-6644516587 MolPort-039-221-571 ZINC000299780582


 28 30  0  0  0  0  0  0  0  0999 V2000
   16.6281   -9.8297    9.4484 N   0  0  0  0  0  0  0  0  0  0  0  0
   17.8549   -9.7455   10.1764 C   0  0  0  0  0  0  0  0  0  0  0  0
   18.9548   -9.9940    9.6143 O   0  0  0  0  0  0  0  0  0  0  0  0
   15.7828   -9.6804    9.9307 H   0  0  0  0  0  0  0  0  0  0  0  0
   16.5746  -10.1269    8.0241 C   0  0  0  0  0  0  0  0  0  0  0  0
   17.4320   -7.8989    7.2188 N   0  0  0  0  0  0  0  0  0  0  0  0
   17.5305   -9.2522    7.2795 C   0  0  0  0  0  0  0  0  0  0  0  0
   18.6294   -9.7428    6.6475 N   0  0  0  0  0  0  0  0  0  0  0  0
   19.2251   -8.6309    6.1764 C   0  0  0  0  0  0  0  0  0  0  0  0
   20.4091   -8.5474    5.4481 C   0  0  0  0  0  0  0  0  0  0  0  0
   20.8504   -7.2641    5.0737 C   0  0  0  0  0  0  0  0  0  0  0  0
   20.1105   -6.1150    5.4336 C   0  0  0  0  0  0  0  0  0  0  0  0
   18.9186   -6.2332    6.1723 C   0  0  0  0  0  0  0  0  0  0  0  0
   18.5112   -7.5198    6.5225 C   0  0  0  0  0  0  0  0  0  0  0  0
   15.3017   -6.7680    6.8387 C   0  0  0  0  0  0  0  0  0  0  0  0
   16.4243   -7.0357    7.8236 C   0  0  0  0  0  0  0  0  0  0  0  0
   17.8349   -9.3240   11.6017 C   0  0  0  0  0  0  0  0  0  0  0  0
   17.3248  -10.4659   12.4638 C   0  0  0  0  0  0  0  0  0  0  0  0
   17.0845   -9.9993   13.8701 C   0  0  0  0  0  0  0  0  0  0  0  0
   17.6564  -10.6611   14.9726 C   0  0  0  0  0  0  0  0  0  0  0  0
   18.5301  -11.8577   14.7969 C   0  0  0  0  0  0  0  0  0  0  0  0
   17.4254  -10.2013   16.2296 N   0  0  0  0  0  0  0  0  0  0  0  0
   16.6533   -9.1066   16.4468 C   0  0  0  0  0  0  0  0  0  0  0  0
   16.4319   -8.6605   17.7424 O   0  0  0  0  0  0  0  0  0  0  0  0
   16.0996   -8.4460   15.3986 N   0  0  0  0  0  0  0  0  0  0  0  0
   16.2988   -8.8614   14.1210 C   0  0  0  0  0  0  0  0  0  0  0  0
   15.6656   -8.0940   13.0092 C   0  0  0  0  0  0  0  0  0  0  0  0
   16.8139   -9.1163   18.4665 H   0  0  0  0  0  0  0  0  0  0  0  0
 15 16  1  0  0  0
 16  6  1  0  0  0
  6  7  1  0  0  0
  7  5  1  0  0  0
  5  1  1  0  0  0
  1  2  1  0  0  0
  2  3  2  0  0  0
  2 17  1  0  0  0
 17 18  1  0  0  0
 18 19  1  0  0  0
 19 20  2  0  0  0
 20 21  1  0  0  0
 20 22  1  0  0  0
 22 23  2  0  0  0
 23 24  1  0  0  0
 23 25  1  0  0  0
 25 26  2  0  0  0
 26 27  1  0  0  0
  7  8  2  0  0  0
  8  9  1  0  0  0
  9 10  2  0  0  0
 10 11  1  0  0  0
 11 12  2  0  0  0
 12 13  1  0  0  0
 13 14  2  0  0  0
 14  6  1  0  0  0
 26 19  1  0  0  0
 14  9  1  0  0  0
  1  4  1  0  0  0
 24 28  1  0  0  0
M  END
>  <minimizedAffinity>
0.71949

>  <minimizedRMSD>
2.31028

$$$$
CSC026288730 9714803 CSSS00026288730 MCULE-2503318107 MolPort-004-050-441 PubChem-4536166 Z27358612 ZINC000009714803


 32 35  0  0  0  0  0  0  0  0999 V2000
   17.8666   -8.7011   10.1499 C   0  0  0  0  0  0  0  0  0  0  0  0
   16.9710   -9.0682   11.2067 N   0  0  0  0  0  0  0  0  0  0  0  0
   19.0956   -8.9752   10.2102 O   0  0  0  0  0  0  0  0  0  0  0  0
   16.0391   -8.7608   11.1268 H   0  0  0  0  0  0  0  0  0  0  0  0
   17.3011   -9.8408   12.3703 C   0  0  0  0  0  0  0  0  0  0  0  0
   16.9603   -9.4881   13.6842 C   0  0  0  0  0  0  0  0  0  0  0  0
   17.3949  -10.4562   14.6178 C   0  0  0  0  0  0  0  0  0  0  0  0
   18.0132  -11.5549   14.0270 C   0  0  0  0  0  0  0  0  0  0  0  0
   18.6059  -12.7018   14.7841 C   0  0  0  0  0  0  0  0  0  0  0  0
   18.0203  -12.7763   16.1960 C   0  0  0  0  0  0  0  0  0  0  0  0
   18.0357  -11.3986   16.8584 C   0  0  0  0  0  0  0  0  0  0  0  0
   17.1247  -10.4274   16.0987 C   0  0  0  0  0  0  0  0  0  0  0  0
   18.0924  -11.3325   12.3677 S   0  0  0  0  0  0  0  0  0  0  0  0
   16.2404   -8.2374   14.0371 C   0  0  0  0  0  0  0  0  0  0  0  0
   16.5897   -7.4909   15.1983 N   0  0  0  0  0  0  0  0  0  0  0  0
   15.3160   -7.8055   13.2989 O   0  0  0  0  0  0  0  0  0  0  0  0
   17.3092   -7.8092   15.7902 H   0  0  0  0  0  0  0  0  0  0  0  0
   16.1116   -6.6565   15.4093 H   0  0  0  0  0  0  0  0  0  0  0  0
   17.3311   -7.9603    8.9714 C   0  0  0  0  0  0  0  0  0  0  0  0
   20.3625   -5.2371    5.2373 C   0  0  0  0  0  0  0  0  0  0  0  0
   19.7939   -6.5653    5.4530 N   0  0  0  0  0  0  0  0  0  0  0  0
   19.0493   -6.8102    6.5822 C   0  0  0  0  0  0  0  0  0  0  0  0
   18.8545   -5.9086    7.4453 O   0  0  0  0  0  0  0  0  0  0  0  0
   18.5089   -8.0831    6.7448 C   0  0  0  0  0  0  0  0  0  0  0  0
   18.7193   -9.0415    5.8147 C   0  0  0  0  0  0  0  0  0  0  0  0
   18.1181  -10.1970    6.1713 N   0  0  0  0  0  0  0  0  0  0  0  0
   17.5375   -9.8890    7.3664 C   0  0  0  0  0  0  0  0  0  0  0  0
   17.7580   -8.5993    7.7318 N   0  0  0  0  0  0  0  0  0  0  0  0
   19.4570   -8.8136    4.6956 N   0  0  0  0  0  0  0  0  0  0  0  0
   19.6660   -9.8790    3.7205 C   0  0  0  0  0  0  0  0  0  0  0  0
   19.9974   -7.5598    4.5125 C   0  0  0  0  0  0  0  0  0  0  0  0
   20.6876   -7.3180    3.4788 O   0  0  0  0  0  0  0  0  0  0  0  0
 20 21  1  0  0  0
 21 22  1  0  0  0
 22 23  2  0  0  0
 22 24  1  0  0  0
 24 25  2  0  0  0
 25 26  1  0  0  0
 26 27  2  0  0  0
 27 28  1  0  0  0
 28 19  1  0  0  0
 19  1  1  0  0  0
  1  2  1  0  0  0
  2  5  1  0  0  0
  5  6  2  0  0  0
  6 14  1  0  0  0
 14 15  1  0  0  0
 14 16  2  0  0  0
  6  7  1  0  0  0
  7  8  2  0  0  0
  8  9  1  0  0  0
  9 10  1  0  0  0
 10 11  1  0  0  0
 11 12  1  0  0  0
  8 13  1  0  0  0
  1  3  2  0  0  0
 25 29  1  0  0  0
 29 30  1  0  0  0
 29 31  1  0  0  0
 31 32  2  0  0  0
 31 21  1  0  0  0
 28 24  1  0  0  0
 13  5  1  0  0  0
 12  7  1  0  0  0
  2  4  1  0  0  0
 15 17  1  0  0  0
 15 18  1  0  0  0
M  END
>  <minimizedAffinity>
0.75300

>  <minimizedRMSD>
2.64415

$$$$
CSC025882406 62630671 CSSS00025882406 MCULE-9270045502 MolPort-009-360-332 Z1030832946 ZINC000062630671 ZINC62630671


 39 43  0  0  0  0  0  0  0  0999 V2000
   18.4718   -8.3932    7.6072 N   0  0  0  0  0  0  0  0  0  0  0  0
   19.7229   -7.9381    7.9155 C   0  0  0  0  0  0  0  0  0  0  0  0
   20.4880   -7.4991    7.0148 O   0  0  0  0  0  0  0  0  0  0  0  0
   20.1537   -7.9470    9.1995 N   0  0  0  0  0  0  0  0  0  0  0  0
   19.3894   -8.4269   10.2102 C   0  0  0  0  0  0  0  0  0  0  0  0
   19.8330   -8.3481   11.3853 O   0  0  0  0  0  0  0  0  0  0  0  0
   18.1144   -8.9694    9.9310 C   0  0  0  0  0  0  0  0  0  0  0  0
   17.2447   -9.5330   10.9090 C   0  0  0  0  0  0  0  0  0  0  0  0
   15.9622   -9.9368   10.5291 C   0  0  0  0  0  0  0  0  0  0  0  0
   15.5519   -9.8229    9.2059 C   0  0  0  0  0  0  0  0  0  0  0  0
   16.4070   -9.3285    8.2744 N   0  0  0  0  0  0  0  0  0  0  0  0
   17.6633   -8.9030    8.5868 C   0  0  0  0  0  0  0  0  0  0  0  0
   21.0494   -7.5939    9.4048 H   0  0  0  0  0  0  0  0  0  0  0  0
   17.6201   -9.7824   12.3129 C   0  0  0  0  0  0  0  0  0  0  0  0
   18.6344  -10.4829   12.5772 O   0  0  0  0  0  0  0  0  0  0  0  0
   16.7722   -9.2941   13.3624 N   0  0  0  0  0  0  0  0  0  0  0  0
   15.9619   -8.8090   13.0844 H   0  0  0  0  0  0  0  0  0  0  0  0
   16.9813   -9.4384   14.7736 C   0  0  0  0  0  0  0  0  0  0  0  0
   17.9910  -10.2604   15.2952 C   0  0  0  0  0  0  0  0  0  0  0  0
   18.1673  -10.3722   16.6766 C   0  0  0  0  0  0  0  0  0  0  0  0
   17.3358   -9.6621   17.5461 C   0  0  0  0  0  0  0  0  0  0  0  0
   16.3250   -8.8353   17.0386 C   0  0  0  0  0  0  0  0  0  0  0  0
   16.1549   -8.7293   15.6514 C   0  0  0  0  0  0  0  0  0  0  0  0
   15.4490   -8.0856   17.9524 C   0  0  0  0  0  0  0  0  0  0  0  0
   14.3184   -7.4617   17.5633 N   0  0  0  0  0  0  0  0  0  0  0  0
   13.8806   -6.9383   18.7255 C   0  0  0  0  0  0  0  0  0  0  0  0
   14.7009   -7.2106   19.7570 N   0  0  0  0  0  0  0  0  0  0  0  0
   15.6893   -7.9397   19.2696 N   0  0  0  0  0  0  0  0  0  0  0  0
   16.4531   -8.3053   19.7718 H   0  0  0  0  0  0  0  0  0  0  0  0
   12.6547   -6.0932   18.8440 C   0  0  0  0  0  0  0  0  0  0  0  0
   11.4410   -6.9747   19.0744 C   0  0  0  0  0  0  0  0  0  0  0  0
   12.0661   -6.2352   20.2354 C   0  0  0  0  0  0  0  0  0  0  0  0
   14.1779  -10.2645    8.8212 C   0  0  0  0  0  0  0  0  0  0  0  0
   13.2820  -10.3492   10.0423 C   0  0  0  0  0  0  0  0  0  0  0  0
   13.5761   -9.3139    7.8042 C   0  0  0  0  0  0  0  0  0  0  0  0
   18.0007   -8.3658    6.2188 C   0  0  0  0  0  0  0  0  0  0  0  0
   18.7821   -8.8251    3.9144 C   0  0  0  0  0  0  0  0  0  0  0  0
   19.1639   -8.2177    5.2471 C   0  0  0  0  0  0  0  0  0  0  0  0
   19.4994   -6.7521    5.0483 C   0  0  0  0  0  0  0  0  0  0  0  0
 37 38  1  0  0  0
 38 39  1  0  0  0
 38 36  1  0  0  0
 36  1  1  0  0  0
  1  2  1  0  0  0
  2  3  2  0  0  0
  2  4  1  0  0  0
  4  5  1  0  0  0
  5  6  2  0  0  0
  5  7  1  0  0  0
  7  8  2  0  0  0
  8  9  1  0  0  0
  8 14  1  0  0  0
  9 10  2  0  0  0
 10 11  1  0  0  0
 10 33  1  0  0  0
 11 12  2  0  0  0
 12  1  1  0  0  0
 12  7  1  0  0  0
 33 34  1  0  0  0
 33 35  1  0  0  0
 14 15  2  0  0  0
 14 16  1  0  0  0
 16 18  1  0  0  0
 18 19  2  0  0  0
 19 20  1  0  0  0
 20 21  2  0  0  0
 21 22  1  0  0  0
 22 23  2  0  0  0
 22 24  1  0  0  0
 23 18  1  0  0  0
 24 25  2  0  0  0
 25 26  1  0  0  0
 26 27  2  0  0  0
 26 30  1  0  0  0
 27 28  1  0  0  0
 28 24  1  0  0  0
 30 31  1  0  0  0
 31 32  1  0  0  0
 32 30  1  0  0  0
  4 13  1  0  0  0
 16 17  1  0  0  0
 28 29  1  0  0  0
M  END
>  <minimizedAffinity>
0.78055

>  <minimizedRMSD>
1.30064

$$$$
14994658 CSSS00159556582 MCULE-5765977464 MolPort-005-148-913 PubChem-26350110 ZINC000014994658


 37 41  0  0  0  0  0  0  0  0999 V2000
   17.1175   -8.3354   15.9831 C   0  0  0  0  0  0  0  0  0  0  0  0
   17.9082   -8.1674   14.8362 C   0  0  0  0  0  0  0  0  0  0  0  0
   17.4226   -8.5341   13.5811 C   0  0  0  0  0  0  0  0  0  0  0  0
   16.1340   -9.0676   13.4399 C   0  0  0  0  0  0  0  0  0  0  0  0
   15.3463   -9.2362   14.5905 C   0  0  0  0  0  0  0  0  0  0  0  0
   15.8274   -8.8728   15.8520 C   0  0  0  0  0  0  0  0  0  0  0  0
   15.6158   -9.5039   12.1131 C   0  0  0  0  0  0  0  0  0  0  0  0
   14.2624   -9.8642   12.0198 C   0  0  0  0  0  0  0  0  0  0  0  0
   13.7254  -10.2975   10.8088 C   0  0  0  0  0  0  0  0  0  0  0  0
   12.2912  -10.6760   10.7272 C   0  0  0  0  0  0  0  0  0  0  0  0
   14.5090  -10.3743    9.7038 N   0  0  0  0  0  0  0  0  0  0  0  0
   15.8223  -10.0302    9.7353 C   0  0  0  0  0  0  0  0  0  0  0  0
   16.5824  -10.1109    8.5641 C   0  0  0  0  0  0  0  0  0  0  0  0
   17.9283   -9.7381    8.5724 C   0  0  0  0  0  0  0  0  0  0  0  0
   18.5188   -9.2791    9.7515 C   0  0  0  0  0  0  0  0  0  0  0  0
   17.7663   -9.1976   10.9262 C   0  0  0  0  0  0  0  0  0  0  0  0
   16.4142   -9.5794   10.9423 C   0  0  0  0  0  0  0  0  0  0  0  0
   17.6025   -7.9957   17.2550 O   0  0  0  0  0  0  0  0  0  0  0  0
   18.9842   -7.7785   17.5394 C   0  0  0  0  0  0  0  0  0  0  0  0
   19.3999   -9.8216   16.1135 N   0  0  0  0  0  0  0  0  0  0  0  0
   19.8294   -8.5373   16.5717 C   0  0  0  0  0  0  0  0  0  0  0  0
   20.8903   -8.0201   16.1302 O   0  0  0  0  0  0  0  0  0  0  0  0
   18.7673  -10.3369   16.6645 H   0  0  0  0  0  0  0  0  0  0  0  0
   19.8672  -10.3919   14.8594 C   0  0  0  0  0  0  0  0  0  0  0  0
   19.0565  -11.6028   14.5253 C   0  0  0  0  0  0  0  0  0  0  0  0
   18.1154  -12.2203   15.3095 C   0  0  0  0  0  0  0  0  0  0  0  0
   17.7207  -11.8690   16.7018 C   0  0  0  0  0  0  0  0  0  0  0  0
   17.5612  -13.2052   14.5845 N   0  0  0  0  0  0  0  0  0  0  0  0
   18.1529  -13.1538   13.4222 O   0  0  0  0  0  0  0  0  0  0  0  0
   19.0483  -12.2095   13.3268 N   0  0  0  0  0  0  0  0  0  0  0  0
   14.9524   -9.0665   17.0460 C   0  0  0  0  0  0  0  0  0  0  0  0
   14.6568   -7.7822   17.6597 N   0  0  0  0  0  0  0  0  0  0  0  0
   13.2143   -7.5698   17.5356 C   0  0  0  0  0  0  0  0  0  0  0  0
   12.8015   -6.3563   18.3733 C   0  0  0  0  0  0  0  0  0  0  0  0
   13.1021   -6.5893   19.7284 O   0  0  0  0  0  0  0  0  0  0  0  0
   14.5030   -6.6687   19.8326 C   0  0  0  0  0  0  0  0  0  0  0  0
   15.0075   -7.9001   19.0762 C   0  0  0  0  0  0  0  0  0  0  0  0
 25 24  1  0  0  0
 24 20  1  0  0  0
 20 21  1  0  0  0
 21 19  1  0  0  0
 19 18  1  0  0  0
 18  1  1  0  0  0
  1  2  2  0  0  0
  2  3  1  0  0  0
  3  4  2  0  0  0
  4  5  1  0  0  0
  5  6  2  0  0  0
  6 31  1  0  0  0
 31 32  1  0  0  0
 32 33  1  0  0  0
 33 34  1  0  0  0
 34 35  1  0  0  0
 35 36  1  0  0  0
 36 37  1  0  0  0
  4  7  1  0  0  0
  7  8  2  0  0  0
  8  9  1  0  0  0
  9 10  1  0  0  0
  9 11  2  0  0  0
 11 12  1  0  0  0
 12 13  2  0  0  0
 13 14  1  0  0  0
 14 15  2  0  0  0
 15 16  1  0  0  0
 16 17  2  0  0  0
 21 22  2  0  0  0
 25 26  1  0  0  0
 26 27  1  0  0  0
 26 28  2  0  0  0
 28 29  1  0  0  0
 29 30  1  0  0  0
 30 25  2  0  0  0
  6  1  1  0  0  0
 37 32  1  0  0  0
 17  7  1  0  0  0
 17 12  1  0  0  0
 20 23  1  0  0  0
M  END
>  <minimizedAffinity>
0.83264

>  <minimizedRMSD>
3.39458

$$$$
CSSS00160614717 LN00875051 MCULE-8841351953 MolPort-008-316-993 PubChem-42656009


 32 36  0  0  0  0  0  0  0  0999 V2000
   17.2953   -9.6723   15.5113 N   0  0  0  0  0  0  0  0  0  0  0  0
   18.0363  -10.4832   14.7344 C   0  0  0  0  0  0  0  0  0  0  0  0
   18.0516  -11.7427   15.2109 N   0  0  0  0  0  0  0  0  0  0  0  0
   17.3245  -11.7454   16.3199 N   0  0  0  0  0  0  0  0  0  0  0  0
   16.8734  -10.4887   16.4951 C   0  0  0  0  0  0  0  0  0  0  0  0
   17.0681   -8.2389   15.3520 C   0  0  0  0  0  0  0  0  0  0  0  0
   15.2407   -8.7124   13.7667 C   0  0  0  0  0  0  0  0  0  0  0  0
   16.2756   -7.9522   14.1148 C   0  0  0  0  0  0  0  0  0  0  0  0
   18.7539  -10.0625   13.4929 C   0  0  0  0  0  0  0  0  0  0  0  0
   17.8634  -10.1239   12.3429 N   0  0  0  0  0  0  0  0  0  0  0  0
   16.6831  -10.7848   12.2549 C   0  0  0  0  0  0  0  0  0  0  0  0
   16.1009  -10.6415   11.0332 N   0  0  0  0  0  0  0  0  0  0  0  0
   16.9699   -9.8656   10.3588 C   0  0  0  0  0  0  0  0  0  0  0  0
   16.8607   -9.4055    9.0490 C   0  0  0  0  0  0  0  0  0  0  0  0
   17.9045   -8.5982    8.5578 C   0  0  0  0  0  0  0  0  0  0  0  0
   19.0123   -8.2777    9.3753 C   0  0  0  0  0  0  0  0  0  0  0  0
   19.0907   -8.7594   10.6952 C   0  0  0  0  0  0  0  0  0  0  0  0
   18.0372   -9.5542   11.1450 C   0  0  0  0  0  0  0  0  0  0  0  0
   15.8662   -9.9837   17.8890 S   0  0  0  0  0  0  0  0  0  0  0  0
   16.0064   -8.2150   17.4743 C   0  0  0  0  0  0  0  0  0  0  0  0
   14.6523   -7.6482   17.0273 C   0  0  0  0  0  0  0  0  0  0  0  0
   13.9102   -6.8085   18.0661 C   0  0  0  0  0  0  0  0  0  0  0  0
   13.7039   -7.5371   19.3547 C   0  0  0  0  0  0  0  0  0  0  0  0
   12.4017   -7.8861   19.7276 C   0  0  0  0  0  0  0  0  0  0  0  0
   12.1586   -8.4746   20.9710 C   0  0  0  0  0  0  0  0  0  0  0  0
   13.2155   -8.6987   21.8561 C   0  0  0  0  0  0  0  0  0  0  0  0
   14.5176   -8.3437   21.4943 C   0  0  0  0  0  0  0  0  0  0  0  0
   14.7749   -7.7760   20.2419 C   0  0  0  0  0  0  0  0  0  0  0  0
   16.1243   -7.4258   19.9093 N   0  0  0  0  0  0  0  0  0  0  0  0
   16.6722   -7.4549   18.5853 C   0  0  0  0  0  0  0  0  0  0  0  0
   17.7698   -6.8828   18.3606 O   0  0  0  0  0  0  0  0  0  0  0  0
   16.7176   -7.1452   20.6431 H   0  0  0  0  0  0  0  0  0  0  0  0
  7  8  2  0  0  0
  8  6  1  0  0  0
  6  1  1  0  0  0
  1  2  1  0  0  0
  2  9  1  0  0  0
  2  3  2  0  0  0
  9 10  1  0  0  0
 10 11  1  0  0  0
 11 12  2  0  0  0
 12 13  1  0  0  0
 13 14  2  0  0  0
 14 15  1  0  0  0
 15 16  2  0  0  0
 16 17  1  0  0  0
 17 18  2  0  0  0
 18 10  1  0  0  0
 18 13  1  0  0  0
  3  4  1  0  0  0
  4  5  2  0  0  0
  5 19  1  0  0  0
  5  1  1  0  0  0
 20 19  1  0  0  0
 20 21  1  0  0  0
 21 22  1  0  0  0
 22 23  1  0  0  0
 23 24  2  0  0  0
 24 25  1  0  0  0
 25 26  2  0  0  0
 26 27  1  0  0  0
 27 28  2  0  0  0
 28 29  1  0  0  0
 28 23  1  0  0  0
 29 30  1  0  0  0
 30 31  2  0  0  0
 30 20  1  0  0  0
 29 32  1  0  0  0
M  END
>  <minimizedAffinity>
0.84498

>  <minimizedRMSD>
2.96013

$$$$
CSC026156980 58247145 CSSS00026156980 MCULE-6293075085 MolPort-009-360-404 Z1033136136 ZINC000058247145 ZINC58247145


 35 39  0  0  0  0  0  0  0  0999 V2000
   16.8931   -9.8466   15.0308 N   0  0  0  0  0  0  0  0  0  0  0  0
   16.6874  -10.0048   13.6125 C   0  0  0  0  0  0  0  0  0  0  0  0
   15.5406   -9.8442   13.1137 O   0  0  0  0  0  0  0  0  0  0  0  0
   16.0259   -9.0178   15.8349 C   0  0  0  0  0  0  0  0  0  0  0  0
   15.0022   -8.2490   15.2204 C   0  0  0  0  0  0  0  0  0  0  0  0
   14.1289   -7.4546   15.9849 C   0  0  0  0  0  0  0  0  0  0  0  0
   14.3062   -7.4567   17.3641 C   0  0  0  0  0  0  0  0  0  0  0  0
   13.5969   -6.7839   18.2811 N   0  0  0  0  0  0  0  0  0  0  0  0
   14.1956   -7.1579   19.4415 C   0  0  0  0  0  0  0  0  0  0  0  0
   13.7495   -6.6594   20.7694 C   0  0  0  0  0  0  0  0  0  0  0  0
   15.2326   -8.0229   19.2957 N   0  0  0  0  0  0  0  0  0  0  0  0
   15.2779   -8.1926   17.9670 C   0  0  0  0  0  0  0  0  0  0  0  0
   16.1583   -8.9901   17.2427 C   0  0  0  0  0  0  0  0  0  0  0  0
   12.8358   -6.1739   18.1476 H   0  0  0  0  0  0  0  0  0  0  0  0
   18.0009  -10.5568   15.6734 C   0  0  0  0  0  0  0  0  0  0  0  0
   21.4375   -8.0128   16.0536 C   0  0  0  0  0  0  0  0  0  0  0  0
   21.4321   -9.0526   15.1180 C   0  0  0  0  0  0  0  0  0  0  0  0
   20.3128   -9.8815   15.0004 C   0  0  0  0  0  0  0  0  0  0  0  0
   19.1944   -9.6700   15.8138 C   0  0  0  0  0  0  0  0  0  0  0  0
   19.2029   -8.6313   16.7531 C   0  0  0  0  0  0  0  0  0  0  0  0
   20.3218   -7.8022   16.8707 C   0  0  0  0  0  0  0  0  0  0  0  0
   23.9700   -8.3230   16.5934 C   0  0  0  0  0  0  0  0  0  0  0  0
   22.8620   -6.9420   16.1919 S   0  0  0  0  0  0  0  0  0  0  0  0
   17.8194  -10.3968   12.7124 C   0  0  0  0  0  0  0  0  0  0  0  0
   17.6018   -9.8929   11.3598 N   0  0  0  0  0  0  0  0  0  0  0  0
   16.4412  -10.2295   10.7334 C   0  0  0  0  0  0  0  0  0  0  0  0
   16.1793   -9.7871    9.4764 N   0  0  0  0  0  0  0  0  0  0  0  0
   17.0651   -9.0007    8.8164 C   0  0  0  0  0  0  0  0  0  0  0  0
   16.7789   -8.5544    7.5230 C   0  0  0  0  0  0  0  0  0  0  0  0
   17.6935   -7.7428    6.8448 C   0  0  0  0  0  0  0  0  0  0  0  0
   18.8956   -7.3754    7.4577 C   0  0  0  0  0  0  0  0  0  0  0  0
   19.1877   -7.8183    8.7512 C   0  0  0  0  0  0  0  0  0  0  0  0
   18.2752   -8.6328    9.4372 C   0  0  0  0  0  0  0  0  0  0  0  0
   18.5260   -9.0994   10.7351 C   0  0  0  0  0  0  0  0  0  0  0  0
   19.5982   -8.7849   11.3228 O   0  0  0  0  0  0  0  0  0  0  0  0
 22 23  1  0  0  0
 23 16  1  0  0  0
 16 17  2  0  0  0
 17 18  1  0  0  0
 18 19  2  0  0  0
 19 15  1  0  0  0
 15  1  1  0  0  0
  1  2  1  0  0  0
  2  3  2  0  0  0
  2 24  1  0  0  0
 24 25  1  0  0  0
 25 26  1  0  0  0
 26 27  2  0  0  0
 27 28  1  0  0  0
 28 29  2  0  0  0
 29 30  1  0  0  0
 30 31  2  0  0  0
 31 32  1  0  0  0
 32 33  2  0  0  0
 33 34  1  0  0  0
 34 35  2  0  0  0
  1  4  1  0  0  0
  4  5  2  0  0  0
  5  6  1  0  0  0
  6  7  2  0  0  0
  7  8  1  0  0  0
  8  9  1  0  0  0
  9 10  1  0  0  0
  9 11  2  0  0  0
 11 12  1  0  0  0
 12 13  2  0  0  0
 19 20  1  0  0  0
 20 21  2  0  0  0
 21 16  1  0  0  0
 34 25  1  0  0  0
 13  4  1  0  0  0
 33 28  1  0  0  0
 12  7  1  0  0  0
  8 14  1  0  0  0
M  END
>  <minimizedAffinity>
0.84879

>  <minimizedRMSD>
3.09073

$$$$
CSSS00138548751 MCULE-8335527954 MolPort-046-729-170 PubChem-139015869 Z3589496391


 31 33  0  0  0  0  0  0  0  0999 V2000
   15.9611   -9.7990   14.8614 N   0  0  0  0  0  0  0  0  0  0  0  0
   16.2969   -8.5931   15.5487 C   0  0  0  0  0  0  0  0  0  0  0  0
   17.2190   -7.8614   15.0965 O   0  0  0  0  0  0  0  0  0  0  0  0
   15.2342  -10.3662   15.2067 H   0  0  0  0  0  0  0  0  0  0  0  0
   15.5549   -8.1874   16.7739 C   0  0  0  0  0  0  0  0  0  0  0  0
   16.1073   -8.3248   18.0680 C   0  0  0  0  0  0  0  0  0  0  0  0
   17.4941   -8.8257   18.2960 C   0  0  0  0  0  0  0  0  0  0  0  0
   15.3876   -7.9455   19.1547 N   0  0  0  0  0  0  0  0  0  0  0  0
   14.1281   -7.4472   19.0419 C   0  0  0  0  0  0  0  0  0  0  0  0
   13.5883   -7.2795   17.8061 N   0  0  0  0  0  0  0  0  0  0  0  0
   14.2584   -7.6381   16.6819 C   0  0  0  0  0  0  0  0  0  0  0  0
   13.6983   -7.4830   15.5640 O   0  0  0  0  0  0  0  0  0  0  0  0
   12.6886   -6.8881   17.7244 H   0  0  0  0  0  0  0  0  0  0  0  0
   13.3820   -6.9810   20.2677 C   0  0  0  0  0  0  0  0  0  0  0  0
   12.4381   -5.8596   19.8812 C   0  0  0  0  0  0  0  0  0  0  0  0
   14.3421   -6.4687   21.3282 C   0  0  0  0  0  0  0  0  0  0  0  0
   12.5728   -8.1135   20.8772 C   0  0  0  0  0  0  0  0  0  0  0  0
   16.6481  -10.1891   13.7045 N   0  0  0  0  0  0  0  0  0  0  0  0
   17.5599  -10.5516   13.7843 H   0  0  0  0  0  0  0  0  0  0  0  0
   16.9958   -9.2748    7.7013 C   0  0  0  0  0  0  0  0  0  0  0  0
   17.1967   -9.4576    9.1278 N   0  0  0  0  0  0  0  0  0  0  0  0
   18.3788   -9.4033    9.7316 N   0  0  0  0  0  0  0  0  0  0  0  0
   18.1764   -9.6197   11.0557 C   0  0  0  0  0  0  0  0  0  0  0  0
   19.2637   -9.6368   12.0720 C   0  0  0  0  0  0  0  0  0  0  0  0
   16.8252   -9.8146   11.2807 C   0  0  0  0  0  0  0  0  0  0  0  0
   16.0529  -10.0717   12.4115 C   0  0  0  0  0  0  0  0  0  0  0  0
   14.6634  -10.2113   12.2201 C   0  0  0  0  0  0  0  0  0  0  0  0
   14.1135  -10.0891   10.9227 C   0  0  0  0  0  0  0  0  0  0  0  0
   12.3875  -10.2640   10.6941 Cl  0  0  0  0  0  0  0  0  0  0  0  0
   14.9189   -9.8358    9.8463 N   0  0  0  0  0  0  0  0  0  0  0  0
   16.2539   -9.7045   10.0489 C   0  0  0  0  0  0  0  0  0  0  0  0
 20 21  1  0  0  0
 21 22  1  0  0  0
 22 23  2  0  0  0
 23 24  1  0  0  0
 23 25  1  0  0  0
 25 26  2  0  0  0
 26 18  1  0  0  0
 18  1  1  0  0  0
  1  2  1  0  0  0
  2  3  2  0  0  0
  2  5  1  0  0  0
  5  6  2  0  0  0
  6  7  1  0  0  0
  6  8  1  0  0  0
  8  9  2  0  0  0
  9 10  1  0  0  0
 10 11  1  0  0  0
 11 12  2  0  0  0
  9 14  1  0  0  0
 14 15  1  0  0  0
 14 16  1  0  0  0
 14 17  1  0  0  0
 26 27  1  0  0  0
 27 28  2  0  0  0
 28 29  1  0  0  0
 28 30  1  0  0  0
 30 31  2  0  0  0
 31 21  1  0  0  0
 31 25  1  0  0  0
 11  5  1  0  0  0
 18 19  1  0  0  0
  1  4  1  0  0  0
 10 13  1  0  0  0
M  END
>  <minimizedAffinity>
0.86274

>  <minimizedRMSD>
3.15471

$$$$
CSC026370631 9711793 CSSS00026370631 MCULE-6614979899 MolPort-005-815-830 PubChem-16294996 Z30094923 ZINC000009711793 ZINC09711793


 31 33  0  0  0  0  0  0  0  0999 V2000
   16.8626  -10.3591   14.1145 N   0  0  0  0  0  0  0  0  0  0  0  0
   16.1566   -9.8242   12.9875 C   0  0  0  0  0  0  0  0  0  0  0  0
   15.8200   -8.6114   12.9415 O   0  0  0  0  0  0  0  0  0  0  0  0
   17.0844  -11.3178   14.0820 H   0  0  0  0  0  0  0  0  0  0  0  0
   18.1660   -8.2348   17.5561 C   0  0  0  0  0  0  0  0  0  0  0  0
   19.0837   -8.7049   16.6027 C   0  0  0  0  0  0  0  0  0  0  0  0
   18.6416   -9.4024   15.4766 C   0  0  0  0  0  0  0  0  0  0  0  0
   17.2791   -9.6422   15.2842 C   0  0  0  0  0  0  0  0  0  0  0  0
   16.3606   -9.1739   16.2333 C   0  0  0  0  0  0  0  0  0  0  0  0
   16.7935   -8.4739   17.3650 C   0  0  0  0  0  0  0  0  0  0  0  0
   15.6055   -7.9048   18.5315 S   0  0  0  0  0  0  0  0  0  0  0  0
   16.4004   -7.0095   19.7768 N   0  0  0  0  0  0  0  0  0  0  0  0
   14.8931   -9.0755   19.1492 O   0  0  0  0  0  0  0  0  0  0  0  0
   14.5999   -7.0284   17.8398 O   0  0  0  0  0  0  0  0  0  0  0  0
   17.0819   -7.6079   20.2436 H   0  0  0  0  0  0  0  0  0  0  0  0
   15.7113   -6.6854   20.4553 H   0  0  0  0  0  0  0  0  0  0  0  0
   19.9513   -7.1482   18.8858 C   0  0  0  0  0  0  0  0  0  0  0  0
   18.5980   -7.5344   18.6886 O   0  0  0  0  0  0  0  0  0  0  0  0
   15.8483  -10.7128   11.8306 C   0  0  0  0  0  0  0  0  0  0  0  0
   16.2760  -10.0872   10.5844 N   0  0  0  0  0  0  0  0  0  0  0  0
   15.3927  -10.0556    9.5397 C   0  0  0  0  0  0  0  0  0  0  0  0
   15.7318   -9.4713    8.3573 N   0  0  0  0  0  0  0  0  0  0  0  0
   16.9595   -8.9183    8.2311 C   0  0  0  0  0  0  0  0  0  0  0  0
   17.8832   -8.9246    9.2572 C   0  0  0  0  0  0  0  0  0  0  0  0
   19.0905   -8.2936    8.9061 C   0  0  0  0  0  0  0  0  0  0  0  0
   20.2673   -8.1492    9.8137 C   0  0  0  0  0  0  0  0  0  0  0  0
   19.0706   -7.8070    7.5960 C   0  0  0  0  0  0  0  0  0  0  0  0
   20.1840   -7.0898    6.9152 C   0  0  0  0  0  0  0  0  0  0  0  0
   17.5797   -8.1502    6.8751 S   0  0  0  0  0  0  0  0  0  0  0  0
   17.5244   -9.5295   10.4683 C   0  0  0  0  0  0  0  0  0  0  0  0
   18.3343   -9.5630   11.4355 O   0  0  0  0  0  0  0  0  0  0  0  0
 17 18  1  0  0  0
 18  5  1  0  0  0
  5  6  2  0  0  0
  6  7  1  0  0  0
  7  8  2  0  0  0
  8  1  1  0  0  0
  8  9  1  0  0  0
  1  2  1  0  0  0
  2  3  2  0  0  0
  2 19  1  0  0  0
 19 20  1  0  0  0
 20 21  1  0  0  0
 21 22  2  0  0  0
 22 23  1  0  0  0
 23 24  2  0  0  0
 24 25  1  0  0  0
 24 30  1  0  0  0
 25 26  1  0  0  0
 25 27  2  0  0  0
 27 28  1  0  0  0
 27 29  1  0  0  0
 29 23  1  0  0  0
 30 31  2  0  0  0
 30 20  1  0  0  0
  9 10  2  0  0  0
 10 11  1  0  0  0
 10  5  1  0  0  0
 11 12  1  0  0  0
 11 13  2  0  0  0
 11 14  2  0  0  0
  1  4  1  0  0  0
 12 15  1  0  0  0
 12 16  1  0  0  0
M  END
>  <minimizedAffinity>
0.89133

>  <minimizedRMSD>
1.63687

$$$$
CSC027316065 CSSS00027316065 MCULE-3158944665 MolPort-007-181-593 PubChem-46692204 Z226451954


 33 37  0  0  0  0  0  0  0  0999 V2000
   14.8703  -10.0044   12.8437 O   0  0  0  0  0  0  0  0  0  0  0  0
   15.5185   -9.3458   11.9870 C   0  0  0  0  0  0  0  0  0  0  0  0
   15.6132   -9.8196   10.6354 N   0  0  0  0  0  0  0  0  0  0  0  0
   14.9780  -11.0743   10.2415 C   0  0  0  0  0  0  0  0  0  0  0  0
   15.9994  -11.9674    9.5427 C   0  0  0  0  0  0  0  0  0  0  0  0
   16.6581  -11.2110    8.3914 C   0  0  0  0  0  0  0  0  0  0  0  0
   17.3350   -9.9385    8.9103 C   0  0  0  0  0  0  0  0  0  0  0  0
   16.3090   -9.0483    9.6086 C   0  0  0  0  0  0  0  0  0  0  0  0
   18.0241   -9.1740    7.8210 C   0  0  0  0  0  0  0  0  0  0  0  0
   17.8234   -9.4069    6.4948 N   0  0  0  0  0  0  0  0  0  0  0  0
   18.6360   -8.5122    5.9163 C   0  0  0  0  0  0  0  0  0  0  0  0
   18.8360   -8.3011    4.5544 C   0  0  0  0  0  0  0  0  0  0  0  0
   19.7485   -7.2957    4.1835 C   0  0  0  0  0  0  0  0  0  0  0  0
   20.4252   -6.5416    5.1686 C   0  0  0  0  0  0  0  0  0  0  0  0
   20.1972   -6.7839    6.5361 C   0  0  0  0  0  0  0  0  0  0  0  0
   19.2877   -7.7858    6.8651 C   0  0  0  0  0  0  0  0  0  0  0  0
   18.9188   -8.1860    8.0896 N   0  0  0  0  0  0  0  0  0  0  0  0
   19.2201   -7.8492    8.9643 H   0  0  0  0  0  0  0  0  0  0  0  0
   16.2123   -8.0921   12.4193 C   0  0  0  0  0  0  0  0  0  0  0  0
   17.5846   -8.3999   13.0133 C   0  0  0  0  0  0  0  0  0  0  0  0
   17.4661   -9.0972   14.2997 N   0  0  0  0  0  0  0  0  0  0  0  0
   17.0331   -8.4174   15.4081 C   0  0  0  0  0  0  0  0  0  0  0  0
   16.7389   -7.1934   15.3366 O   0  0  0  0  0  0  0  0  0  0  0  0
   16.9170   -9.0541   16.6021 N   0  0  0  0  0  0  0  0  0  0  0  0
   17.2278  -10.3659   16.7429 C   0  0  0  0  0  0  0  0  0  0  0  0
   17.1010  -10.9159   17.8699 O   0  0  0  0  0  0  0  0  0  0  0  0
   17.6873  -11.0896   15.6388 C   0  0  0  0  0  0  0  0  0  0  0  0
   18.0247  -12.4470   15.7424 C   0  0  0  0  0  0  0  0  0  0  0  0
   18.4838  -13.1450   14.6234 C   0  0  0  0  0  0  0  0  0  0  0  0
   18.6098  -12.4927   13.3958 C   0  0  0  0  0  0  0  0  0  0  0  0
   18.2755  -11.1414   13.2841 C   0  0  0  0  0  0  0  0  0  0  0  0
   17.8091  -10.4217   14.3994 C   0  0  0  0  0  0  0  0  0  0  0  0
   16.5990   -8.5499   17.3856 H   0  0  0  0  0  0  0  0  0  0  0  0
  1  2  2  0  0  0
  2 19  1  0  0  0
  2  3  1  0  0  0
 19 20  1  0  0  0
 20 21  1  0  0  0
 21 22  1  0  0  0
 22 23  2  0  0  0
 22 24  1  0  0  0
 24 25  1  0  0  0
 25 26  2  0  0  0
 25 27  1  0  0  0
 27 28  2  0  0  0
 28 29  1  0  0  0
 29 30  2  0  0  0
 30 31  1  0  0  0
 31 32  2  0  0  0
 32 21  1  0  0  0
 32 27  1  0  0  0
  3  4  1  0  0  0
  4  5  1  0  0  0
  5  6  1  0  0  0
  6  7  1  0  0  0
  7  8  1  0  0  0
  7  9  1  0  0  0
  8  3  1  0  0  0
  9 10  2  0  0  0
 10 11  1  0  0  0
 11 12  2  0  0  0
 12 13  1  0  0  0
 13 14  2  0  0  0
 14 15  1  0  0  0
 15 16  2  0  0  0
 16 17  1  0  0  0
 16 11  1  0  0  0
 17  9  1  0  0  0
 24 33  1  0  0  0
 17 18  1  0  0  0
M  END
>  <minimizedAffinity>
0.95433

>  <minimizedRMSD>
2.26306

$$$$
CSC026349574 9614135 CSSS00026349574 MCULE-3011151861 MolPort-005-798-493 PubChem-16366624 Z29131726 ZINC000009614135 ZINC09614135


 30 32  0  0  0  0  0  0  0  0999 V2000
   15.4336  -10.0559    9.4264 C   0  0  0  0  0  0  0  0  0  0  0  0
   15.8636  -10.0933   10.7690 C   0  0  0  0  0  0  0  0  0  0  0  0
   17.1299   -9.5529   11.1084 C   0  0  0  0  0  0  0  0  0  0  0  0
   17.9273   -8.9906   10.0836 C   0  0  0  0  0  0  0  0  0  0  0  0
   19.1829   -8.4163   10.3485 C   0  0  0  0  0  0  0  0  0  0  0  0
   19.9442   -7.8600    9.3177 C   0  0  0  0  0  0  0  0  0  0  0  0
   19.4592   -7.8664    8.0086 C   0  0  0  0  0  0  0  0  0  0  0  0
   18.2106   -8.4256    7.7287 C   0  0  0  0  0  0  0  0  0  0  0  0
   17.4432   -8.9826    8.7560 C   0  0  0  0  0  0  0  0  0  0  0  0
   16.2290   -9.5110    8.4701 N   0  0  0  0  0  0  0  0  0  0  0  0
   17.6214   -9.5912   12.5108 C   0  0  0  0  0  0  0  0  0  0  0  0
   18.6965  -10.1930   12.7785 O   0  0  0  0  0  0  0  0  0  0  0  0
   16.8801   -8.9301   13.5466 N   0  0  0  0  0  0  0  0  0  0  0  0
   16.0617   -8.4586   13.2687 H   0  0  0  0  0  0  0  0  0  0  0  0
   17.2032   -8.8826   14.9426 C   0  0  0  0  0  0  0  0  0  0  0  0
   18.4530   -9.2906   15.4309 C   0  0  0  0  0  0  0  0  0  0  0  0
   18.7299   -9.2319   16.7987 C   0  0  0  0  0  0  0  0  0  0  0  0
   17.7589   -8.7652   17.6879 C   0  0  0  0  0  0  0  0  0  0  0  0
   16.5048   -8.3545   17.2155 C   0  0  0  0  0  0  0  0  0  0  0  0
   16.2367   -8.4174   15.8402 C   0  0  0  0  0  0  0  0  0  0  0  0
   15.4799   -7.8628   18.1530 C   0  0  0  0  0  0  0  0  0  0  0  0
   14.3480   -7.5090   17.7218 O   0  0  0  0  0  0  0  0  0  0  0  0
   15.7665   -7.7859   19.5520 N   0  0  0  0  0  0  0  0  0  0  0  0
   14.7883   -7.3078   20.5142 C   0  0  0  0  0  0  0  0  0  0  0  0
   16.6542   -8.0655   19.8730 H   0  0  0  0  0  0  0  0  0  0  0  0
   14.9901  -10.7378   11.8090 C   0  0  0  0  0  0  0  0  0  0  0  0
   14.5181   -9.7062   12.8179 C   0  0  0  0  0  0  0  0  0  0  0  0
   14.1180  -10.6398    9.0177 C   0  0  0  0  0  0  0  0  0  0  0  0
   12.2065  -10.5518   10.5854 C   0  0  0  0  0  0  0  0  0  0  0  0
   12.9780   -9.7831    9.5341 C   0  0  0  0  0  0  0  0  0  0  0  0
 29 30  1  0  0  0
 30 28  1  0  0  0
 28  1  1  0  0  0
  1  2  2  0  0  0
  2 26  1  0  0  0
  2  3  1  0  0  0
 26 27  1  0  0  0
  3 11  1  0  0  0
  3  4  2  0  0  0
 11 12  2  0  0  0
 11 13  1  0  0  0
 13 15  1  0  0  0
 15 16  2  0  0  0
 16 17  1  0  0  0
 17 18  2  0  0  0
 18 19  1  0  0  0
 19 20  2  0  0  0
 19 21  1  0  0  0
 20 15  1  0  0  0
 21 22  2  0  0  0
 21 23  1  0  0  0
 23 24  1  0  0  0
  4  5  1  0  0  0
  5  6  2  0  0  0
  6  7  1  0  0  0
  7  8  2  0  0  0
  8  9  1  0  0  0
  9 10  2  0  0  0
  9  4  1  0  0  0
 10  1  1  0  0  0
 13 14  1  0  0  0
 23 25  1  0  0  0
M  END
>  <minimizedAffinity>
0.98973

>  <minimizedRMSD>
1.47816

$$$$
CSSS05308724375


 31 32  0  0  0  0  0  0  0  0999 V2000
   15.8650  -10.5471   11.1320 C   0  0  0  0  0  0  0  0  0  0  0  0
   17.9851   -9.4904   10.2683 C   0  0  0  0  0  0  0  0  0  0  0  0
   18.5928   -9.8247   11.3219 O   0  0  0  0  0  0  0  0  0  0  0  0
   16.6005   -9.8119   10.1166 N   0  0  0  0  0  0  0  0  0  0  0  0
   16.1310   -9.5267    9.2997 H   0  0  0  0  0  0  0  0  0  0  0  0
   20.3860   -7.8548   10.8810 C   0  0  0  0  0  0  0  0  0  0  0  0
   19.8631   -7.9983    9.4903 C   0  0  0  0  0  0  0  0  0  0  0  0
   20.5356   -7.3084    8.4792 C   0  0  0  0  0  0  0  0  0  0  0  0
   20.0891   -7.3626    7.1617 C   0  0  0  0  0  0  0  0  0  0  0  0
   18.9591   -8.1087    6.8372 C   0  0  0  0  0  0  0  0  0  0  0  0
   18.5398   -8.1622    5.5445 N   0  0  0  0  0  0  0  0  0  0  0  0
   17.4533   -8.8899    5.1740 C   0  0  0  0  0  0  0  0  0  0  0  0
   16.7358   -9.6118    6.1272 C   0  0  0  0  0  0  0  0  0  0  0  0
   17.1433   -9.5737    7.4603 C   0  0  0  0  0  0  0  0  0  0  0  0
   18.2584   -8.8142    7.8452 C   0  0  0  0  0  0  0  0  0  0  0  0
   18.7065   -8.7616    9.1910 C   0  0  0  0  0  0  0  0  0  0  0  0
   14.8715   -9.6280   11.8238 C   0  0  0  0  0  0  0  0  0  0  0  0
   14.0630  -10.3584   12.6976 O   0  0  0  0  0  0  0  0  0  0  0  0
   14.6144  -10.7673   13.3829 H   0  0  0  0  0  0  0  0  0  0  0  0
   15.5866   -8.5121   12.5801 C   0  0  0  0  0  0  0  0  0  0  0  0
   16.5253   -9.0548   13.5546 N   0  0  0  0  0  0  0  0  0  0  0  0
   16.5238   -8.6558   14.9280 C   0  0  0  0  0  0  0  0  0  0  0  0
   15.5985   -7.9302   15.3806 O   0  0  0  0  0  0  0  0  0  0  0  0
   17.1854   -9.7213   13.2560 H   0  0  0  0  0  0  0  0  0  0  0  0
   17.6422   -9.0723   15.8361 C   0  0  0  0  0  0  0  0  0  0  0  0
   17.2405   -8.9628   17.1712 O   0  0  0  0  0  0  0  0  0  0  0  0
   16.5022   -9.5696   17.3375 H   0  0  0  0  0  0  0  0  0  0  0  0
   18.1892  -10.4810   15.5313 C   0  0  0  0  0  0  0  0  0  0  0  0
   19.5982  -10.3969   14.9690 C   0  0  0  0  0  0  0  0  0  0  0  0
   18.2502  -11.2868   16.8153 C   0  0  0  0  0  0  0  0  0  0  0  0
   17.3059  -11.2204   14.5385 C   0  0  0  0  0  0  0  0  0  0  0  0
  6  7  1  0  0  0
  7  8  2  0  0  0
  8  9  1  0  0  0
  9 10  2  0  0  0
 10 11  1  0  0  0
 11 12  2  0  0  0
 12 13  1  0  0  0
 13 14  2  0  0  0
 14 15  1  0  0  0
 15 16  2  0  0  0
 16  2  1  0  0  0
  2  3  2  0  0  0
  2  4  1  0  0  0
  4  1  1  0  0  0
  1 17  1  0  0  0
 17 18  1  0  0  0
 17 20  1  0  0  0
 20 21  1  0  0  0
 21 22  1  0  0  0
 22 23  2  0  0  0
 22 25  1  0  0  0
 25 26  1  0  0  0
 25 28  1  0  0  0
 28 29  1  0  0  0
 28 30  1  0  0  0
 28 31  1  0  0  0
 16  7  1  0  0  0
 15 10  1  0  0  0
  4  5  1  0  0  0
 18 19  1  0  0  0
 21 24  1  0  0  0
 26 27  1  0  0  0
M  END
>  <minimizedAffinity>
1.04139

>  <minimizedRMSD>
2.47933

$$$$
CSC028159758 13109996 CSSS00028159758 MCULE-8663536310 MolPort-004-504-837 PubChem-16292376 Z98259581 ZINC000013109996


 30 33  0  0  0  0  0  0  0  0999 V2000
   16.6016   -9.9082   11.7459 N   0  0  0  0  0  0  0  0  0  0  0  0
   17.4955   -9.4874   10.7118 C   0  0  0  0  0  0  0  0  0  0  0  0
   18.7436   -9.5684   10.8614 O   0  0  0  0  0  0  0  0  0  0  0  0
   15.6346   -9.8190   11.5841 H   0  0  0  0  0  0  0  0  0  0  0  0
   18.5568  -12.9915   14.9958 C   0  0  0  0  0  0  0  0  0  0  0  0
   17.8754  -11.7896   14.4402 C   0  0  0  0  0  0  0  0  0  0  0  0
   17.3943  -10.7009   15.1502 C   0  0  0  0  0  0  0  0  0  0  0  0
   16.8533   -9.8517   14.2294 C   0  0  0  0  0  0  0  0  0  0  0  0
   16.2769   -8.6494   14.6235 C   0  0  0  0  0  0  0  0  0  0  0  0
   16.2731   -8.3526   15.9551 N   0  0  0  0  0  0  0  0  0  0  0  0
   16.8047   -9.1855   16.8637 N   0  0  0  0  0  0  0  0  0  0  0  0
   17.3772  -10.3730   16.5065 C   0  0  0  0  0  0  0  0  0  0  0  0
   17.9541  -11.2649   17.5501 C   0  0  0  0  0  0  0  0  0  0  0  0
   15.7725   -7.8539   13.7881 O   0  0  0  0  0  0  0  0  0  0  0  0
   17.0238  -10.4505   13.0003 C   0  0  0  0  0  0  0  0  0  0  0  0
   17.6376  -11.6089   13.1539 O   0  0  0  0  0  0  0  0  0  0  0  0
   15.8704   -7.5065   16.2571 H   0  0  0  0  0  0  0  0  0  0  0  0
   16.9435   -8.9653    9.4313 C   0  0  0  0  0  0  0  0  0  0  0  0
   16.8276  -10.2994    8.1994 S   0  0  0  0  0  0  0  0  0  0  0  0
   17.8478   -9.4288    7.0109 C   0  0  0  0  0  0  0  0  0  0  0  0
   18.2038   -8.1399    7.1002 N   0  0  0  0  0  0  0  0  0  0  0  0
   18.9518   -7.9358    6.0093 C   0  0  0  0  0  0  0  0  0  0  0  0
   19.5164   -6.6875    5.7515 C   0  0  0  0  0  0  0  0  0  0  0  0
   19.2676   -5.6629    6.6802 C   0  0  0  0  0  0  0  0  0  0  0  0
   18.4757   -5.9091    7.8205 C   0  0  0  0  0  0  0  0  0  0  0  0
   17.9341   -7.1871    8.0263 C   0  0  0  0  0  0  0  0  0  0  0  0
   18.1706   -4.6285    8.9731 Cl  0  0  0  0  0  0  0  0  0  0  0  0
   20.5007   -6.3909    4.3315 Cl  0  0  0  0  0  0  0  0  0  0  0  0
   19.0603   -9.0511    5.2621 N   0  0  0  0  0  0  0  0  0  0  0  0
   18.3628   -9.9916    5.8949 N   0  0  0  0  0  0  0  0  0  0  0  0
  5  6  1  0  0  0
  6  7  2  0  0  0
  7  8  1  0  0  0
  8  9  1  0  0  0
  9 10  1  0  0  0
 10 11  1  0  0  0
 11 12  2  0  0  0
 12 13  1  0  0  0
  9 14  2  0  0  0
  8 15  2  0  0  0
 15  1  1  0  0  0
  1  2  1  0  0  0
  2 18  1  0  0  0
 18 19  1  0  0  0
 19 20  1  0  0  0
 20 21  1  0  0  0
 21 22  1  0  0  0
 22 23  1  0  0  0
 23 24  2  0  0  0
 24 25  1  0  0  0
 25 26  2  0  0  0
 25 27  1  0  0  0
 23 28  1  0  0  0
 22 29  2  0  0  0
 29 30  1  0  0  0
  2  3  2  0  0  0
 15 16  1  0  0  0
 16  6  1  0  0  0
 12  7  1  0  0  0
 30 20  2  0  0  0
 26 21  1  0  0  0
 10 17  1  0  0  0
  1  4  1  0  0  0
M  END
>  <minimizedAffinity>
1.05103

>  <minimizedRMSD>
2.80504

$$$$
CSSS00574428285 MCULE-7689712351 Z1783897111


 31 35  0  0  0  0  0  0  0  0999 V2000
   16.0743  -11.9419   10.5002 C   0  0  0  0  0  0  0  0  0  0  0  0
   15.6048  -10.5306   10.1901 C   0  0  0  0  0  0  0  0  0  0  0  0
   16.7546   -9.6449    9.9892 N   0  0  0  0  0  0  0  0  0  0  0  0
   16.9408   -8.9957    8.7210 C   0  0  0  0  0  0  0  0  0  0  0  0
   15.9537   -8.8470    7.9499 O   0  0  0  0  0  0  0  0  0  0  0  0
   17.5582   -9.2577   11.1504 C   0  0  0  0  0  0  0  0  0  0  0  0
   16.6454   -8.6841   12.2259 C   0  0  0  0  0  0  0  0  0  0  0  0
   15.5482   -9.6175   12.4666 N   0  0  0  0  0  0  0  0  0  0  0  0
   15.1938  -10.0542   13.7908 C   0  0  0  0  0  0  0  0  0  0  0  0
   14.0161  -10.4501   14.0098 O   0  0  0  0  0  0  0  0  0  0  0  0
   14.7222  -10.0007   11.3227 C   0  0  0  0  0  0  0  0  0  0  0  0
   18.2592   -8.4791    8.2985 C   0  0  0  0  0  0  0  0  0  0  0  0
   18.6211   -8.3213    6.9550 C   0  0  0  0  0  0  0  0  0  0  0  0
   19.8296   -7.8220    6.5839 C   0  0  0  0  0  0  0  0  0  0  0  0
   19.8760   -7.7566    5.2463 N   0  0  0  0  0  0  0  0  0  0  0  0
   18.6957   -8.2106    4.8293 N   0  0  0  0  0  0  0  0  0  0  0  0
   17.9056   -8.5568    5.8440 N   0  0  0  0  0  0  0  0  0  0  0  0
   20.7917   -7.4254    7.5063 C   0  0  0  0  0  0  0  0  0  0  0  0
   20.4647   -7.5577    8.8689 C   0  0  0  0  0  0  0  0  0  0  0  0
   19.2081   -8.0735    9.2617 C   0  0  0  0  0  0  0  0  0  0  0  0
   16.9886   -8.9112    5.7904 H   0  0  0  0  0  0  0  0  0  0  0  0
   16.1768  -10.0734   14.9021 C   0  0  0  0  0  0  0  0  0  0  0  0
   16.0336   -9.2668   16.0389 C   0  0  0  0  0  0  0  0  0  0  0  0
   16.9164   -9.3013   17.0721 C   0  0  0  0  0  0  0  0  0  0  0  0
   16.5266   -8.4180   18.0015 N   0  0  0  0  0  0  0  0  0  0  0  0
   15.4174   -7.8625   17.5175 N   0  0  0  0  0  0  0  0  0  0  0  0
   15.0902   -8.3554   16.3243 N   0  0  0  0  0  0  0  0  0  0  0  0
   18.0224  -10.1434   17.0852 C   0  0  0  0  0  0  0  0  0  0  0  0
   18.2013  -10.9799   15.9680 C   0  0  0  0  0  0  0  0  0  0  0  0
   17.2867  -10.9475   14.8904 C   0  0  0  0  0  0  0  0  0  0  0  0
   14.3179   -8.1038   15.7679 H   0  0  0  0  0  0  0  0  0  0  0  0
  2  1  1  0  0  0
  2  3  1  0  0  0
  3  4  1  0  0  0
  4 12  1  0  0  0
 12 13  1  0  0  0
 13 14  2  0  0  0
 14 15  1  0  0  0
 15 16  2  0  0  0
 16 17  1  0  0  0
 14 18  1  0  0  0
 18 19  2  0  0  0
 19 20  1  0  0  0
  4  5  2  0  0  0
  3  6  1  0  0  0
  6  7  1  0  0  0
  7  8  1  0  0  0
  8  9  1  0  0  0
  9 22  1  0  0  0
 22 23  1  0  0  0
 23 24  2  0  0  0
 24 25  1  0  0  0
 25 26  2  0  0  0
 26 27  1  0  0  0
 24 28  1  0  0  0
 28 29  2  0  0  0
 29 30  1  0  0  0
  9 10  2  0  0  0
  8 11  1  0  0  0
 11  2  1  0  0  0
 20 12  2  0  0  0
 30 22  2  0  0  0
 17 13  1  0  0  0
 27 23  1  0  0  0
 17 21  1  0  0  0
 27 31  1  0  0  0
M  END
>  <minimizedAffinity>
1.08687

>  <minimizedRMSD>
2.96836

$$$$
924634 CHEMBL1586542 CSSS03436553471 MCULE-7195579996 MolPort-000-014-301 PubChem-1169784 ZINC000000924634 ZINC00924634


 36 40  0  0  0  0  0  0  0  0999 V2000
   17.6608  -10.5014   16.9294 C   0  0  0  0  0  0  0  0  0  0  0  0
   18.3058  -11.5517   17.4698 N   0  0  0  0  0  0  0  0  0  0  0  0
   18.5337  -12.4122   16.4889 N   0  0  0  0  0  0  0  0  0  0  0  0
   18.0095  -11.8807   15.3681 C   0  0  0  0  0  0  0  0  0  0  0  0
   17.4581  -10.6695   15.6040 N   0  0  0  0  0  0  0  0  0  0  0  0
   16.8102   -9.7825   14.6727 C   0  0  0  0  0  0  0  0  0  0  0  0
   15.6941  -10.2139   13.9399 C   0  0  0  0  0  0  0  0  0  0  0  0
   15.0712   -9.3581   13.0270 C   0  0  0  0  0  0  0  0  0  0  0  0
   15.5597   -8.0630   12.8380 C   0  0  0  0  0  0  0  0  0  0  0  0
   16.6706   -7.6239   13.5619 C   0  0  0  0  0  0  0  0  0  0  0  0
   17.2925   -8.4801   14.4745 C   0  0  0  0  0  0  0  0  0  0  0  0
   17.1084   -9.0963   17.8959 S   0  0  0  0  0  0  0  0  0  0  0  0
   15.3600   -9.4978   17.6163 C   0  0  0  0  0  0  0  0  0  0  0  0
   15.1120   -7.2992   16.7477 O   0  0  0  0  0  0  0  0  0  0  0  0
   14.5926   -8.2439   17.3997 C   0  0  0  0  0  0  0  0  0  0  0  0
   13.2865   -8.1100   17.9651 N   0  0  0  0  0  0  0  0  0  0  0  0
   12.8834   -8.8896   18.4111 H   0  0  0  0  0  0  0  0  0  0  0  0
   12.5271   -6.8687   17.9091 C   0  0  0  0  0  0  0  0  0  0  0  0
   12.8086   -6.0335   19.1125 C   0  0  0  0  0  0  0  0  0  0  0  0
   13.4192   -6.6031   20.2361 C   0  0  0  0  0  0  0  0  0  0  0  0
   13.6953   -5.8150   21.3576 C   0  0  0  0  0  0  0  0  0  0  0  0
   13.3625   -4.4562   21.3572 C   0  0  0  0  0  0  0  0  0  0  0  0
   12.7552   -3.8853   20.2344 C   0  0  0  0  0  0  0  0  0  0  0  0
   12.4791   -4.6731   19.1125 C   0  0  0  0  0  0  0  0  0  0  0  0
   18.1661  -12.5115   14.0201 C   0  0  0  0  0  0  0  0  0  0  0  0
   19.2480  -11.7995   13.2194 C   0  0  0  0  0  0  0  0  0  0  0  0
   18.6516  -11.0570   12.0712 C   0  0  0  0  0  0  0  0  0  0  0  0
   17.4550  -11.3932   11.5214 N   0  0  0  0  0  0  0  0  0  0  0  0
   17.3019  -10.4573   10.5752 C   0  0  0  0  0  0  0  0  0  0  0  0
   16.2293  -10.3014    9.7007 C   0  0  0  0  0  0  0  0  0  0  0  0
   16.2828   -9.2228    8.7980 C   0  0  0  0  0  0  0  0  0  0  0  0
   17.3882   -8.3424    8.7964 C   0  0  0  0  0  0  0  0  0  0  0  0
   18.4536   -8.5305    9.6970 C   0  0  0  0  0  0  0  0  0  0  0  0
   18.3675   -9.6096   10.5730 C   0  0  0  0  0  0  0  0  0  0  0  0
   19.2480   -9.9690   11.5175 N   0  0  0  0  0  0  0  0  0  0  0  0
   20.1082   -9.5508   11.7508 H   0  0  0  0  0  0  0  0  0  0  0  0
 14 15  2  0  0  0
 15 13  1  0  0  0
 15 16  1  0  0  0
 13 12  1  0  0  0
 12  1  1  0  0  0
  1  2  2  0  0  0
  2  3  1  0  0  0
  3  4  2  0  0  0
  4 25  1  0  0  0
  4  5  1  0  0  0
 25 26  1  0  0  0
 26 27  1  0  0  0
 27 28  2  0  0  0
 28 29  1  0  0  0
 29 30  2  0  0  0
 30 31  1  0  0  0
 31 32  2  0  0  0
 32 33  1  0  0  0
 33 34  2  0  0  0
 34 35  1  0  0  0
 34 29  1  0  0  0
 35 27  1  0  0  0
  5  6  1  0  0  0
  5  1  1  0  0  0
  6  7  2  0  0  0
  7  8  1  0  0  0
  8  9  2  0  0  0
  9 10  1  0  0  0
 10 11  2  0  0  0
 11  6  1  0  0  0
 16 18  1  0  0  0
 18 19  1  0  0  0
 19 20  2  0  0  0
 20 21  1  0  0  0
 21 22  2  0  0  0
 22 23  1  0  0  0
 23 24  2  0  0  0
 24 19  1  0  0  0
 35 36  1  0  0  0
 16 17  1  0  0  0
M  END
>  <minimizedAffinity>
1.09669

>  <minimizedRMSD>
3.99251

$$$$
CSSS03496578324 MolPort-047-842-561 PubChem-166329207 Z4927221895


 36 41  0  0  0  0  0  0  0  0999 V2000
   15.3252   -7.6870   16.4989 C   0  0  0  0  0  0  0  0  0  0  0  0
   14.9541   -6.6988   15.8078 O   0  0  0  0  0  0  0  0  0  0  0  0
   16.0206   -8.7750   15.8590 N   0  0  0  0  0  0  0  0  0  0  0  0
   16.0493  -10.1040   16.4652 C   0  0  0  0  0  0  0  0  0  0  0  0
   17.4328  -10.7048   16.3049 C   0  0  0  0  0  0  0  0  0  0  0  0
   17.7417  -10.8127   14.8228 C   0  0  0  0  0  0  0  0  0  0  0  0
   17.7555   -9.4363   14.1519 C   0  0  0  0  0  0  0  0  0  0  0  0
   17.6458   -9.6640   12.6540 C   0  0  0  0  0  0  0  0  0  0  0  0
   16.2431   -9.4575   12.3271 N   0  0  0  0  0  0  0  0  0  0  0  0
   15.4689   -8.9610   13.4477 C   0  0  0  0  0  0  0  0  0  0  0  0
   16.5103   -8.5976   14.4866 C   0  0  0  0  0  0  0  0  0  0  0  0
   15.6453   -9.8584   11.0859 C   0  0  0  0  0  0  0  0  0  0  0  0
   14.3972  -10.0264   11.0229 O   0  0  0  0  0  0  0  0  0  0  0  0
   16.4643  -10.1171    9.8823 C   0  0  0  0  0  0  0  0  0  0  0  0
   17.3313   -9.1533    9.3219 C   0  0  0  0  0  0  0  0  0  0  0  0
   17.4411   -7.8622    9.8557 C   0  0  0  0  0  0  0  0  0  0  0  0
   18.3052   -6.9392    9.2663 C   0  0  0  0  0  0  0  0  0  0  0  0
   19.0344   -7.2862    8.1732 N   0  0  0  0  0  0  0  0  0  0  0  0
   18.9475   -8.5230    7.6149 C   0  0  0  0  0  0  0  0  0  0  0  0
   19.6398   -8.7925    6.5966 O   0  0  0  0  0  0  0  0  0  0  0  0
   18.0863   -9.4828    8.1732 C   0  0  0  0  0  0  0  0  0  0  0  0
   17.9453  -10.7539    7.6062 C   0  0  0  0  0  0  0  0  0  0  0  0
   17.0883  -11.6553    8.1514 N   0  0  0  0  0  0  0  0  0  0  0  0
   16.3539  -11.3646    9.2571 C   0  0  0  0  0  0  0  0  0  0  0  0
   19.6428   -6.6231    7.7741 H   0  0  0  0  0  0  0  0  0  0  0  0
   12.7373   -7.5340   23.2642 F   0  0  0  0  0  0  0  0  0  0  0  0
   13.5849   -7.5599   22.2082 C   0  0  0  0  0  0  0  0  0  0  0  0
   14.9794   -7.5468   22.4274 C   0  0  0  0  0  0  0  0  0  0  0  0
   15.8738   -7.5730   21.3423 C   0  0  0  0  0  0  0  0  0  0  0  0
   15.3323   -7.6126   20.0593 C   0  0  0  0  0  0  0  0  0  0  0  0
   16.0109   -7.6389   18.9038 N   0  0  0  0  0  0  0  0  0  0  0  0
   15.0459   -7.6751   17.9510 C   0  0  0  0  0  0  0  0  0  0  0  0
   13.7567   -7.6612   18.4913 C   0  0  0  0  0  0  0  0  0  0  0  0
   13.9816   -7.6251   19.8471 C   0  0  0  0  0  0  0  0  0  0  0  0
   13.0700   -7.5990   20.8997 C   0  0  0  0  0  0  0  0  0  0  0  0
   16.9870   -7.6332   18.7756 H   0  0  0  0  0  0  0  0  0  0  0  0
 26 27  1  0  0  0
 27 28  2  0  0  0
 28 29  1  0  0  0
 29 30  2  0  0  0
 30 31  1  0  0  0
 31 32  1  0  0  0
 32 33  2  0  0  0
 33 34  1  0  0  0
 34 35  2  0  0  0
 32  1  1  0  0  0
  1  2  2  0  0  0
  1  3  1  0  0  0
  3  4  1  0  0  0
  4  5  1  0  0  0
  5  6  1  0  0  0
  7  6  1  0  0  0
  7  8  1  0  0  0
  8  9  1  0  0  0
  9 10  1  0  0  0
 11 10  1  0  0  0
  9 12  1  0  0  0
 12 13  2  0  0  0
 12 14  1  0  0  0
 14 15  2  0  0  0
 15 16  1  0  0  0
 16 17  2  0  0  0
 17 18  1  0  0  0
 18 19  1  0  0  0
 19 20  2  0  0  0
 19 21  1  0  0  0
 21 22  2  0  0  0
 22 23  1  0  0  0
 23 24  2  0  0  0
 35 27  1  0  0  0
 11  3  1  0  0  0
 24 14  1  0  0  0
 34 30  1  0  0  0
 11  7  1  0  0  0
 21 15  1  0  0  0
 31 36  1  0  0  0
 18 25  1  0  0  0
M  END
>  <minimizedAffinity>
1.18971

>  <minimizedRMSD>
0.93231

$$$$
CSC026922720 19079205 CSSS00026922720 MolPort-047-808-113 PubChem-28062750 Z1989609574 ZINC000019079205


 27 29  0  0  0  0  0  0  0  0999 V2000
   18.2519  -10.1713   11.0502 N   0  0  0  0  0  0  0  0  0  0  0  0
   18.0881  -10.8330   10.3399 H   0  0  0  0  0  0  0  0  0  0  0  0
   17.6553  -10.1090   14.7307 C   0  0  0  0  0  0  0  0  0  0  0  0
   17.7438   -9.7154   13.3898 C   0  0  0  0  0  0  0  0  0  0  0  0
   18.1818  -10.6092   12.4097 C   0  0  0  0  0  0  0  0  0  0  0  0
   18.5382  -11.9133   12.7761 C   0  0  0  0  0  0  0  0  0  0  0  0
   18.4545  -12.3167   14.1099 C   0  0  0  0  0  0  0  0  0  0  0  0
   18.0149  -11.4236   15.0913 C   0  0  0  0  0  0  0  0  0  0  0  0
   17.9430  -11.9005   16.5022 C   0  0  0  0  0  0  0  0  0  0  0  0
   17.0983   -8.9373   15.9271 S   0  0  0  0  0  0  0  0  0  0  0  0
   15.8758   -9.4758   16.6150 O   0  0  0  0  0  0  0  0  0  0  0  0
   16.7397   -7.6439   15.2482 O   0  0  0  0  0  0  0  0  0  0  0  0
   19.5860   -8.4378   16.3861 C   0  0  0  0  0  0  0  0  0  0  0  0
   18.3379   -8.6444   17.1008 N   0  0  0  0  0  0  0  0  0  0  0  0
   18.1092   -7.8139   17.6471 H   0  0  0  0  0  0  0  0  0  0  0  0
   18.6091   -8.5405   10.5829 S   0  0  0  0  0  0  0  0  0  0  0  0
   19.9413   -8.1452   11.1561 O   0  0  0  0  0  0  0  0  0  0  0  0
   17.5507   -7.6240   11.1274 O   0  0  0  0  0  0  0  0  0  0  0  0
   18.6348   -8.4077    8.8276 C   0  0  0  0  0  0  0  0  0  0  0  0
   19.5631   -7.5579    8.2083 C   0  0  0  0  0  0  0  0  0  0  0  0
   19.6144   -7.4448    6.8110 C   0  0  0  0  0  0  0  0  0  0  0  0
   18.7389   -8.1810    6.0039 C   0  0  0  0  0  0  0  0  0  0  0  0
   17.8113   -9.0294    6.6062 C   0  0  0  0  0  0  0  0  0  0  0  0
   16.9328   -9.7748    5.8916 N   0  0  0  0  0  0  0  0  0  0  0  0
   16.1337  -10.5387    7.1220 S   0  0  0  0  0  0  0  0  0  0  0  0
   16.8195   -9.9946    8.5251 N   0  0  0  0  0  0  0  0  0  0  0  0
   17.7535   -9.1458    8.0245 C   0  0  0  0  0  0  0  0  0  0  0  0
 13 14  1  0  0  0
 14 10  1  0  0  0
 10 11  2  0  0  0
 10 12  2  0  0  0
 10  3  1  0  0  0
  3  4  2  0  0  0
  4  5  1  0  0  0
  5  1  1  0  0  0
  1 16  1  0  0  0
 16 17  2  0  0  0
 16 18  2  0  0  0
 16 19  1  0  0  0
 19 20  2  0  0  0
 20 21  1  0  0  0
 21 22  2  0  0  0
 22 23  1  0  0  0
 23 24  2  0  0  0
 24 25  1  0  0  0
 25 26  1  0  0  0
 26 27  2  0  0  0
  5  6  2  0  0  0
  6  7  1  0  0  0
  7  8  2  0  0  0
  8  9  1  0  0  0
  8  3  1  0  0  0
 27 19  1  0  0  0
 27 23  1  0  0  0
 14 15  1  0  0  0
  1  2  1  0  0  0
M  END
>  <minimizedAffinity>
1.21779

>  <minimizedRMSD>
2.44082

$$$$
CSSS20447620017


 27 30  0  0  0  0  0  0  0  0999 V2000
   17.5848   -9.4110   14.0234 N   0  0  0  0  0  0  0  0  0  0  0  0
   16.4086   -9.1626   13.1942 C   0  0  0  0  0  0  0  0  0  0  0  0
   16.5983   -9.8300   11.8346 C   0  0  0  0  0  0  0  0  0  0  0  0
   17.9025   -9.4647   11.2802 N   0  0  0  0  0  0  0  0  0  0  0  0
   19.0813   -9.6831   12.1216 C   0  0  0  0  0  0  0  0  0  0  0  0
   18.8788   -9.0120   13.4766 C   0  0  0  0  0  0  0  0  0  0  0  0
   18.0586   -9.1623    9.8788 C   0  0  0  0  0  0  0  0  0  0  0  0
   19.0754   -8.2941    9.4406 C   0  0  0  0  0  0  0  0  0  0  0  0
   19.1965   -8.0173    8.0673 C   0  0  0  0  0  0  0  0  0  0  0  0
   20.4592   -6.9432    7.5068 Cl  0  0  0  0  0  0  0  0  0  0  0  0
   18.3348   -8.5766    7.1708 N   0  0  0  0  0  0  0  0  0  0  0  0
   17.3631   -9.4028    7.6273 C   0  0  0  0  0  0  0  0  0  0  0  0
   16.3915  -10.0367    6.8876 C   0  0  0  0  0  0  0  0  0  0  0  0
   15.6659  -10.7161    7.8713 C   0  0  0  0  0  0  0  0  0  0  0  0
   16.1942  -10.4797    9.0965 N   0  0  0  0  0  0  0  0  0  0  0  0
   17.2310   -9.6821    8.9268 N   0  0  0  0  0  0  0  0  0  0  0  0
   16.9989  -10.0645   16.3581 C   0  0  0  0  0  0  0  0  0  0  0  0
   17.5309  -10.3791   15.0825 C   0  0  0  0  0  0  0  0  0  0  0  0
   18.0712  -11.6535   14.8643 C   0  0  0  0  0  0  0  0  0  0  0  0
   18.0992  -12.5853   15.8998 C   0  0  0  0  0  0  0  0  0  0  0  0
   17.6062  -12.2587   17.1215 N   0  0  0  0  0  0  0  0  0  0  0  0
   17.0641  -11.0371   17.3658 C   0  0  0  0  0  0  0  0  0  0  0  0
   16.1285   -8.3843   18.0193 N   0  0  0  0  0  0  0  0  0  0  0  0
   16.3254   -8.7820   16.6650 C   0  0  0  0  0  0  0  0  0  0  0  0
   15.8803   -8.0475   15.7441 O   0  0  0  0  0  0  0  0  0  0  0  0
   15.6805   -7.5313   18.2217 H   0  0  0  0  0  0  0  0  0  0  0  0
   16.4404   -8.9626   18.7524 H   0  0  0  0  0  0  0  0  0  0  0  0
 23 24  1  0  0  0
 24 25  2  0  0  0
 24 17  1  0  0  0
 17 18  2  0  0  0
 18 19  1  0  0  0
 19 20  2  0  0  0
 20 21  1  0  0  0
 21 22  2  0  0  0
 18  1  1  0  0  0
  1  2  1  0  0  0
  2  3  1  0  0  0
  3  4  1  0  0  0
  4  5  1  0  0  0
  5  6  1  0  0  0
  4  7  1  0  0  0
  7  8  2  0  0  0
  8  9  1  0  0  0
  9 10  1  0  0  0
  9 11  2  0  0  0
 11 12  1  0  0  0
 12 13  2  0  0  0
 13 14  1  0  0  0
 14 15  2  0  0  0
 15 16  1  0  0  0
 22 17  1  0  0  0
  6  1  1  0  0  0
 16  7  1  0  0  0
 16 12  1  0  0  0
 23 26  1  0  0  0
 23 27  1  0  0  0
M  END
>  <minimizedAffinity>
1.24268

>  <minimizedRMSD>
0.89345

$$$$
CSC026629437 CSSS00026629437 MCULE-8164215288 MolPort-009-213-708 PubChem-42916443 Z52120471


 32 35  0  0  0  0  0  0  0  0999 V2000
   15.2548   -8.2768   15.6178 C   0  0  0  0  0  0  0  0  0  0  0  0
   15.3724   -8.5478   14.2139 N   0  0  0  0  0  0  0  0  0  0  0  0
   15.2902   -9.9110   13.6964 C   0  0  0  0  0  0  0  0  0  0  0  0
   16.5280  -10.1941   12.8489 C   0  0  0  0  0  0  0  0  0  0  0  0
   16.6664   -9.1747   11.8088 N   0  0  0  0  0  0  0  0  0  0  0  0
   16.8980   -7.8774   12.4486 C   0  0  0  0  0  0  0  0  0  0  0  0
   15.6758   -7.4766   13.2711 C   0  0  0  0  0  0  0  0  0  0  0  0
   15.2992   -7.0897   16.0390 O   0  0  0  0  0  0  0  0  0  0  0  0
   15.0970   -9.3992   16.6011 C   0  0  0  0  0  0  0  0  0  0  0  0
   16.3791   -9.6987   17.3909 C   0  0  0  0  0  0  0  0  0  0  0  0
   17.5321  -10.0542   16.4984 C   0  0  0  0  0  0  0  0  0  0  0  0
   18.4594   -9.0854   16.0817 C   0  0  0  0  0  0  0  0  0  0  0  0
   19.5122   -9.4377   15.2328 C   0  0  0  0  0  0  0  0  0  0  0  0
   19.6453  -10.7593   14.7978 C   0  0  0  0  0  0  0  0  0  0  0  0
   18.7264  -11.7282   15.2120 C   0  0  0  0  0  0  0  0  0  0  0  0
   17.6721  -11.3758   16.0602 C   0  0  0  0  0  0  0  0  0  0  0  0
   16.2033   -6.8534   20.0231 C   0  0  0  0  0  0  0  0  0  0  0  0
   15.7779   -7.9824   19.1564 C   0  0  0  0  0  0  0  0  0  0  0  0
   16.7290   -8.6052   18.2917 N   0  0  0  0  0  0  0  0  0  0  0  0
   14.5838   -8.3815   19.1933 O   0  0  0  0  0  0  0  0  0  0  0  0
   17.6593   -8.2834   18.3039 H   0  0  0  0  0  0  0  0  0  0  0  0
   17.8706   -9.5039   11.0639 C   0  0  0  0  0  0  0  0  0  0  0  0
   17.6105   -9.4091    9.5930 C   0  0  0  0  0  0  0  0  0  0  0  0
   18.3517   -8.7137    8.7200 N   0  0  0  0  0  0  0  0  0  0  0  0
   17.7781   -8.9000    7.5180 C   0  0  0  0  0  0  0  0  0  0  0  0
   18.3033   -8.3031    6.3743 C   0  0  0  0  0  0  0  0  0  0  0  0
   19.4492   -7.5059    6.5299 C   0  0  0  0  0  0  0  0  0  0  0  0
   20.0303   -7.3260    7.8000 C   0  0  0  0  0  0  0  0  0  0  0  0
   19.4569   -7.9511    8.9164 C   0  0  0  0  0  0  0  0  0  0  0  0
   16.6863   -9.6931    7.5616 N   0  0  0  0  0  0  0  0  0  0  0  0
   16.5890  -10.0104    8.8753 C   0  0  0  0  0  0  0  0  0  0  0  0
   15.5244  -10.8889    9.4330 C   0  0  0  0  0  0  0  0  0  0  0  0
 17 18  1  0  0  0
 18 19  1  0  0  0
 19 10  1  0  0  0
 10 11  1  0  0  0
 11 12  2  0  0  0
 12 13  1  0  0  0
 13 14  2  0  0  0
 14 15  1  0  0  0
 15 16  2  0  0  0
 10  9  1  0  0  0
  9  1  1  0  0  0
  1  2  1  0  0  0
  2  3  1  0  0  0
  3  4  1  0  0  0
  4  5  1  0  0  0
  5 22  1  0  0  0
 22 23  1  0  0  0
 23 24  1  0  0  0
 24 25  1  0  0  0
 25 26  1  0  0  0
 26 27  2  0  0  0
 27 28  1  0  0  0
 28 29  2  0  0  0
 25 30  2  0  0  0
 30 31  1  0  0  0
 31 32  1  0  0  0
  5  6  1  0  0  0
  6  7  1  0  0  0
  1  8  2  0  0  0
 18 20  2  0  0  0
 16 11  1  0  0  0
  7  2  1  0  0  0
 31 23  2  0  0  0
 29 24  1  0  0  0
 19 21  1  0  0  0
M  END
>  <minimizedAffinity>
1.24476

>  <minimizedRMSD>
0.92895

$$$$
CSSS00133021479 MCULE-6288655850 MolPort-046-507-641 PubChem-138038995 Z1465263918


 25 28  0  0  0  0  0  0  0  0999 V2000
   16.2061   -7.7042   12.4323 C   0  0  0  0  0  0  0  0  0  0  0  0
   16.5838   -8.8773   11.5430 C   0  0  0  0  0  0  0  0  0  0  0  0
   16.4842  -10.1915   12.3192 C   0  0  0  0  0  0  0  0  0  0  0  0
   17.6205  -10.3270   13.2308 N   0  0  0  0  0  0  0  0  0  0  0  0
   18.9625  -10.1795   12.6716 C   0  0  0  0  0  0  0  0  0  0  0  0
   19.0627   -8.8407   11.9499 C   0  0  0  0  0  0  0  0  0  0  0  0
   17.9420   -8.7070   11.0179 N   0  0  0  0  0  0  0  0  0  0  0  0
   18.2053   -8.5161    9.6130 C   0  0  0  0  0  0  0  0  0  0  0  0
   19.1302   -7.5907    9.2096 N   0  0  0  0  0  0  0  0  0  0  0  0
   19.4172   -7.3683    7.8902 C   0  0  0  0  0  0  0  0  0  0  0  0
   18.7503   -8.1028    6.9005 C   0  0  0  0  0  0  0  0  0  0  0  0
   17.8393   -9.0108    7.3185 N   0  0  0  0  0  0  0  0  0  0  0  0
   17.0528   -9.8448    6.6237 C   0  0  0  0  0  0  0  0  0  0  0  0
   16.2991  -10.5635    7.4900 N   0  0  0  0  0  0  0  0  0  0  0  0
   16.6068  -10.1862    8.7281 N   0  0  0  0  0  0  0  0  0  0  0  0
   17.5502   -9.2375    8.6024 C   0  0  0  0  0  0  0  0  0  0  0  0
   17.4259  -10.3521   14.6552 C   0  0  0  0  0  0  0  0  0  0  0  0
   17.6980  -11.4977   15.4295 C   0  0  0  0  0  0  0  0  0  0  0  0
   18.3955  -12.9545   14.7205 Cl  0  0  0  0  0  0  0  0  0  0  0  0
   17.4649  -11.4502   16.8103 C   0  0  0  0  0  0  0  0  0  0  0  0
   17.6950  -12.4536   17.5358 O   0  0  0  0  0  0  0  0  0  0  0  0
   16.9929  -10.3093   17.3747 N   0  0  0  0  0  0  0  0  0  0  0  0
   16.7475   -9.2207   16.6457 N   0  0  0  0  0  0  0  0  0  0  0  0
   16.9520   -9.2072   15.3043 C   0  0  0  0  0  0  0  0  0  0  0  0
   16.8279  -10.2854   18.3450 H   0  0  0  0  0  0  0  0  0  0  0  0
  1  2  1  0  0  0
  2  3  1  0  0  0
  3  4  1  0  0  0
  4  5  1  0  0  0
  5  6  1  0  0  0
  6  7  1  0  0  0
  7  8  1  0  0  0
  8  9  2  0  0  0
  9 10  1  0  0  0
 10 11  2  0  0  0
 11 12  1  0  0  0
 12 13  1  0  0  0
 13 14  2  0  0  0
 14 15  1  0  0  0
 15 16  2  0  0  0
  4 17  1  0  0  0
 17 18  2  0  0  0
 18 19  1  0  0  0
 18 20  1  0  0  0
 20 21  2  0  0  0
 20 22  1  0  0  0
 22 23  1  0  0  0
 23 24  2  0  0  0
  7  2  1  0  0  0
 16  8  1  0  0  0
 24 17  1  0  0  0
 16 12  1  0  0  0
 22 25  1  0  0  0
M  END
>  <minimizedAffinity>
1.25885

>  <minimizedRMSD>
1.84751

$$$$
CSC062963772 CSSS00062963772 MolPort-046-802-596 Z1005324942


 27 29  0  0  0  0  0  0  0  0999 V2000
   17.0798  -10.1019   12.2034 N   0  0  0  0  0  0  0  0  0  0  0  0
   17.0417   -9.0119   11.2718 C   0  0  0  0  0  0  0  0  0  0  0  0
   16.8658   -7.8343   11.6810 O   0  0  0  0  0  0  0  0  0  0  0  0
   17.1804  -11.0079   11.8316 H   0  0  0  0  0  0  0  0  0  0  0  0
   17.1462   -9.2935    9.8265 C   0  0  0  0  0  0  0  0  0  0  0  0
   18.0570   -8.6681    8.9531 C   0  0  0  0  0  0  0  0  0  0  0  0
   19.1104   -7.7762    9.0862 C   0  0  0  0  0  0  0  0  0  0  0  0
   19.6642   -7.1857   10.3345 C   0  0  0  0  0  0  0  0  0  0  0  0
   19.6641   -7.5639    7.8696 N   0  0  0  0  0  0  0  0  0  0  0  0
   19.0148   -8.2854    6.9629 N   0  0  0  0  0  0  0  0  0  0  0  0
   18.0518   -8.9551    7.6144 C   0  0  0  0  0  0  0  0  0  0  0  0
   17.1993   -9.8519    7.0624 N   0  0  0  0  0  0  0  0  0  0  0  0
   16.3037  -10.4961    7.8658 C   0  0  0  0  0  0  0  0  0  0  0  0
   15.3629  -11.4851    7.2789 C   0  0  0  0  0  0  0  0  0  0  0  0
   16.2643  -10.2300    9.2500 C   0  0  0  0  0  0  0  0  0  0  0  0
   19.2039   -8.3219    5.9975 H   0  0  0  0  0  0  0  0  0  0  0  0
   17.7123  -11.1280   16.9637 C   0  0  0  0  0  0  0  0  0  0  0  0
   17.2724  -10.4508   15.7550 N   0  0  0  0  0  0  0  0  0  0  0  0
   17.5643  -10.8685   14.5124 C   0  0  0  0  0  0  0  0  0  0  0  0
   16.9840   -9.9862   13.6274 C   0  0  0  0  0  0  0  0  0  0  0  0
   16.3170   -8.9962   14.3300 C   0  0  0  0  0  0  0  0  0  0  0  0
   16.5241   -9.3278   15.6589 C   0  0  0  0  0  0  0  0  0  0  0  0
   15.9908   -8.5454   16.7926 C   0  0  0  0  0  0  0  0  0  0  0  0
   16.5251   -8.6915   18.1040 N   0  0  0  0  0  0  0  0  0  0  0  0
   15.0470   -7.7332   16.6033 O   0  0  0  0  0  0  0  0  0  0  0  0
   17.2630   -9.3224   18.2674 H   0  0  0  0  0  0  0  0  0  0  0  0
   16.1568   -8.1615   18.8474 H   0  0  0  0  0  0  0  0  0  0  0  0
 17 18  1  0  0  0
 18 19  1  0  0  0
 19 20  2  0  0  0
 20  1  1  0  0  0
  1  2  1  0  0  0
  2  3  2  0  0  0
  2  5  1  0  0  0
  5  6  2  0  0  0
  6  7  1  0  0  0
  7  8  1  0  0  0
  7  9  2  0  0  0
  9 10  1  0  0  0
 10 11  1  0  0  0
 11 12  2  0  0  0
 12 13  1  0  0  0
 13 14  1  0  0  0
 13 15  2  0  0  0
 20 21  1  0  0  0
 21 22  2  0  0  0
 22 23  1  0  0  0
 23 24  1  0  0  0
 23 25  2  0  0  0
 22 18  1  0  0  0
 15  5  1  0  0  0
 11  6  1  0  0  0
  1  4  1  0  0  0
 10 16  1  0  0  0
 24 26  1  0  0  0
 24 27  1  0  0  0
M  END
>  <minimizedAffinity>
1.27102

>  <minimizedRMSD>
0.98791

$$$$
CSC027222478 32777615 CSSS00027222478 MCULE-6251417702 MolPort-005-701-206 PubChem-40009805 Z194287306 ZINC000032777615 ZINC32777615


 29 30  0  0  0  0  0  0  0  0999 V2000
   16.9308  -10.2797    9.2412 C   0  0  0  0  0  0  0  0  0  0  0  0
   16.8868   -9.7824    7.9776 N   0  0  0  0  0  0  0  0  0  0  0  0
   17.8090   -8.8931    7.5382 C   0  0  0  0  0  0  0  0  0  0  0  0
   17.7373   -8.3959    6.2337 C   0  0  0  0  0  0  0  0  0  0  0  0
   18.6894   -7.4770    5.7823 C   0  0  0  0  0  0  0  0  0  0  0  0
   19.7146   -7.0533    6.6338 C   0  0  0  0  0  0  0  0  0  0  0  0
   19.7907   -7.5477    7.9395 C   0  0  0  0  0  0  0  0  0  0  0  0
   18.8385   -8.4699    8.3984 C   0  0  0  0  0  0  0  0  0  0  0  0
   18.8775   -8.9921    9.6982 C   0  0  0  0  0  0  0  0  0  0  0  0
   19.7916   -8.6327   10.4931 O   0  0  0  0  0  0  0  0  0  0  0  0
   17.9260   -9.8912   10.1017 N   0  0  0  0  0  0  0  0  0  0  0  0
   15.6645  -11.4545    9.7380 S   0  0  0  0  0  0  0  0  0  0  0  0
   14.5093  -10.1293   10.1946 C   0  0  0  0  0  0  0  0  0  0  0  0
   14.8896   -9.8952   12.6734 N   0  0  0  0  0  0  0  0  0  0  0  0
   14.0534  -10.3222   11.5958 C   0  0  0  0  0  0  0  0  0  0  0  0
   12.9468  -10.8808   11.8221 O   0  0  0  0  0  0  0  0  0  0  0  0
   15.7347   -9.4376   12.4595 H   0  0  0  0  0  0  0  0  0  0  0  0
   15.5310  -11.0693   14.7121 C   0  0  0  0  0  0  0  0  0  0  0  0
   14.5487  -10.1060   14.0727 C   0  0  0  0  0  0  0  0  0  0  0  0
   17.9722  -10.4278   11.4616 C   0  0  0  0  0  0  0  0  0  0  0  0
   17.8828   -9.2999   12.4730 C   0  0  0  0  0  0  0  0  0  0  0  0
   18.8180   -9.5856   13.6320 C   0  0  0  0  0  0  0  0  0  0  0  0
   18.0623   -9.5265   14.9472 C   0  0  0  0  0  0  0  0  0  0  0  0
   17.3074   -8.2136   15.0678 C   0  0  0  0  0  0  0  0  0  0  0  0
   16.4229   -8.2379   16.2653 C   0  0  0  0  0  0  0  0  0  0  0  0
   16.7586   -9.0429   17.3903 N   0  0  0  0  0  0  0  0  0  0  0  0
   15.3824   -7.5310   16.2888 O   0  0  0  0  0  0  0  0  0  0  0  0
   17.5724   -9.5968   17.3740 H   0  0  0  0  0  0  0  0  0  0  0  0
   16.1771   -9.0457   18.1847 H   0  0  0  0  0  0  0  0  0  0  0  0
 18 19  1  0  0  0
 19 14  1  0  0  0
 14 15  1  0  0  0
 15 16  2  0  0  0
 15 13  1  0  0  0
 13 12  1  0  0  0
 12  1  1  0  0  0
  1  2  2  0  0  0
  2  3  1  0  0  0
  3  4  2  0  0  0
  4  5  1  0  0  0
  5  6  2  0  0  0
  6  7  1  0  0  0
  7  8  2  0  0  0
  8  9  1  0  0  0
  8  3  1  0  0  0
  9 10  2  0  0  0
  9 11  1  0  0  0
 11 20  1  0  0  0
 11  1  1  0  0  0
 20 21  1  0  0  0
 21 22  1  0  0  0
 22 23  1  0  0  0
 23 24  1  0  0  0
 24 25  1  0  0  0
 25 26  1  0  0  0
 25 27  2  0  0  0
 14 17  1  0  0  0
 26 28  1  0  0  0
 26 29  1  0  0  0
M  END
>  <minimizedAffinity>
1.29957

>  <minimizedRMSD>
1.45810

$$$$
CSSS04795141497 Z7371392543


 30 32  0  0  0  0  0  0  0  0999 V2000
   15.6744   -9.8824   15.1518 C   0  0  0  0  0  0  0  0  0  0  0  0
   14.6493  -10.5518   15.4629 O   0  0  0  0  0  0  0  0  0  0  0  0
   15.9172   -9.5931   13.7598 N   0  0  0  0  0  0  0  0  0  0  0  0
   16.9578   -8.6624   13.3259 C   0  0  0  0  0  0  0  0  0  0  0  0
   17.7885   -9.3088   12.2251 C   0  0  0  0  0  0  0  0  0  0  0  0
   16.8998   -9.8429   11.1920 N   0  0  0  0  0  0  0  0  0  0  0  0
   15.8142  -10.7414   11.5894 C   0  0  0  0  0  0  0  0  0  0  0  0
   16.3711  -12.0952   11.9961 C   0  0  0  0  0  0  0  0  0  0  0  0
   15.0148  -10.1242   12.7379 C   0  0  0  0  0  0  0  0  0  0  0  0
   16.9927   -9.3878    9.8318 C   0  0  0  0  0  0  0  0  0  0  0  0
   15.9865   -9.4739    9.0762 O   0  0  0  0  0  0  0  0  0  0  0  0
   18.2352   -8.7872    9.2990 C   0  0  0  0  0  0  0  0  0  0  0  0
   19.2606   -8.4754   10.2027 C   0  0  0  0  0  0  0  0  0  0  0  0
   20.4593   -7.9121    9.7593 C   0  0  0  0  0  0  0  0  0  0  0  0
   20.6476   -7.6427    8.4033 C   0  0  0  0  0  0  0  0  0  0  0  0
   19.6332   -7.9273    7.4882 C   0  0  0  0  0  0  0  0  0  0  0  0
   19.8106   -7.6354    6.1347 C   0  0  0  0  0  0  0  0  0  0  0  0
   18.8120   -7.8850    5.2463 N   0  0  0  0  0  0  0  0  0  0  0  0
   17.6228   -8.4142    5.6398 C   0  0  0  0  0  0  0  0  0  0  0  0
   17.4016   -8.7241    6.9831 C   0  0  0  0  0  0  0  0  0  0  0  0
   18.4136   -8.4952    7.9260 C   0  0  0  0  0  0  0  0  0  0  0  0
   16.6095   -9.3915   16.2532 C   0  0  0  0  0  0  0  0  0  0  0  0
   17.1647  -10.5947   17.0003 C   0  0  0  0  0  0  0  0  0  0  0  0
   15.8781   -8.5401   17.2767 C   0  0  0  0  0  0  0  0  0  0  0  0
   16.1124   -8.6570   18.5099 O   0  0  0  0  0  0  0  0  0  0  0  0
   14.8866   -7.6082   16.8500 N   0  0  0  0  0  0  0  0  0  0  0  0
   14.6901   -7.5032   15.8910 H   0  0  0  0  0  0  0  0  0  0  0  0
   14.3988   -7.0698   17.5143 H   0  0  0  0  0  0  0  0  0  0  0  0
   19.1292   -8.9607   16.3267 C   0  0  0  0  0  0  0  0  0  0  0  0
   17.8050   -8.6372   15.6455 C   0  0  0  0  0  0  0  0  0  0  0  0
 29 30  1  0  0  0
 30 22  1  0  0  0
 22 23  1  0  0  0
 22 24  1  0  0  0
 24 25  2  0  0  0
 24 26  1  0  0  0
 22  1  1  0  0  0
  1  2  2  0  0  0
  1  3  1  0  0  0
  3  4  1  0  0  0
  4  5  1  0  0  0
  5  6  1  0  0  0
  6  7  1  0  0  0
  7  8  1  0  0  0
  7  9  1  0  0  0
  6 10  1  0  0  0
 10 11  2  0  0  0
 10 12  1  0  0  0
 12 13  2  0  0  0
 13 14  1  0  0  0
 14 15  2  0  0  0
 15 16  1  0  0  0
 16 17  2  0  0  0
 17 18  1  0  0  0
 18 19  2  0  0  0
 19 20  1  0  0  0
 20 21  2  0  0  0
  9  3  1  0  0  0
 21 12  1  0  0  0
 21 16  1  0  0  0
 26 27  1  0  0  0
 26 28  1  0  0  0
M  END
>  <minimizedAffinity>
1.35574

>  <minimizedRMSD>
3.06526

$$$$
CSSS01401659971 Z1665828469


 35 39  0  0  0  0  0  0  0  0999 V2000
   15.4240  -10.5304   10.4771 C   0  0  0  0  0  0  0  0  0  0  0  0
   15.8567  -10.3120    9.0706 C   0  0  0  0  0  0  0  0  0  0  0  0
   15.0906  -10.6471    8.0052 N   0  0  0  0  0  0  0  0  0  0  0  0
   15.7062  -10.2321    6.9316 O   0  0  0  0  0  0  0  0  0  0  0  0
   16.8248   -9.6417    7.2623 C   0  0  0  0  0  0  0  0  0  0  0  0
   17.7015   -9.0435    6.4216 N   0  0  0  0  0  0  0  0  0  0  0  0
   18.8085   -8.4212    6.9314 C   0  0  0  0  0  0  0  0  0  0  0  0
   19.0271   -8.4325    8.3330 C   0  0  0  0  0  0  0  0  0  0  0  0
   18.1222   -9.0675    9.2063 C   0  0  0  0  0  0  0  0  0  0  0  0
   16.9983   -9.6678    8.6163 C   0  0  0  0  0  0  0  0  0  0  0  0
   19.7949   -7.7624    6.0301 C   0  0  0  0  0  0  0  0  0  0  0  0
   20.9231   -7.1510    6.6062 C   0  0  0  0  0  0  0  0  0  0  0  0
   21.8899   -6.5271    5.8164 C   0  0  0  0  0  0  0  0  0  0  0  0
   21.7451   -6.5017    4.4307 C   0  0  0  0  0  0  0  0  0  0  0  0
   22.7731   -5.8383    3.5874 C   0  0  0  0  0  0  0  0  0  0  0  0
   20.6306   -7.0935    3.8365 C   0  0  0  0  0  0  0  0  0  0  0  0
   19.6549   -7.7227    4.6173 C   0  0  0  0  0  0  0  0  0  0  0  0
   18.4783   -8.2947    3.9013 C   0  0  0  0  0  0  0  0  0  0  0  0
   18.4206   -9.0993   10.6492 C   0  0  0  0  0  0  0  0  0  0  0  0
   19.4619   -8.5299   11.0748 O   0  0  0  0  0  0  0  0  0  0  0  0
   17.5796   -9.8415   11.5422 N   0  0  0  0  0  0  0  0  0  0  0  0
   16.8224  -10.3215   11.1354 H   0  0  0  0  0  0  0  0  0  0  0  0
   17.7226   -9.9602   12.9653 C   0  0  0  0  0  0  0  0  0  0  0  0
   16.9821   -9.1599   13.8487 C   0  0  0  0  0  0  0  0  0  0  0  0
   17.1367   -9.2998   15.2337 C   0  0  0  0  0  0  0  0  0  0  0  0
   16.4158   -8.5179   16.1461 C   0  0  0  0  0  0  0  0  0  0  0  0
   15.5934   -7.6508   15.7457 O   0  0  0  0  0  0  0  0  0  0  0  0
   16.6055   -8.6962   17.4800 N   0  0  0  0  0  0  0  0  0  0  0  0
   17.4839   -9.6216   17.9496 C   0  0  0  0  0  0  0  0  0  0  0  0
   18.1942  -10.3918   17.0842 N   0  0  0  0  0  0  0  0  0  0  0  0
   18.0411  -10.2524   15.7424 C   0  0  0  0  0  0  0  0  0  0  0  0
   18.7774  -11.0513   14.8652 C   0  0  0  0  0  0  0  0  0  0  0  0
   18.6195  -10.9074   13.4832 C   0  0  0  0  0  0  0  0  0  0  0  0
   19.3418  -11.6933   12.6469 F   0  0  0  0  0  0  0  0  0  0  0  0
   16.0974   -8.1451   18.1182 H   0  0  0  0  0  0  0  0  0  0  0  0
  1  2  1  0  0  0
  2  3  2  0  0  0
  3  4  1  0  0  0
  4  5  1  0  0  0
  5  6  2  0  0  0
  6  7  1  0  0  0
  7  8  2  0  0  0
  8  9  1  0  0  0
  9 19  1  0  0  0
 19 20  2  0  0  0
 19 21  1  0  0  0
 21 23  1  0  0  0
 23 24  2  0  0  0
 24 25  1  0  0  0
 25 26  1  0  0  0
 26 27  2  0  0  0
 26 28  1  0  0  0
 28 29  1  0  0  0
 29 30  2  0  0  0
 30 31  1  0  0  0
 31 32  1  0  0  0
 32 33  2  0  0  0
 33 34  1  0  0  0
  9 10  2  0  0  0
  7 11  1  0  0  0
 11 12  2  0  0  0
 12 13  1  0  0  0
 13 14  2  0  0  0
 14 15  1  0  0  0
 14 16  1  0  0  0
 16 17  2  0  0  0
 17 18  1  0  0  0
 10  2  1  0  0  0
 17 11  1  0  0  0
 10  5  1  0  0  0
 33 23  1  0  0  0
 31 25  2  0  0  0
 21 22  1  0  0  0
 28 35  1  0  0  0
M  END
>  <minimizedAffinity>
1.36475

>  <minimizedRMSD>
2.37867

$$$$
CSSS20447618151


 35 39  0  0  0  0  0  0  0  0999 V2000
   15.1576   -7.2171   17.1383 C   0  0  0  0  0  0  0  0  0  0  0  0
   15.8358   -6.1558   17.2107 O   0  0  0  0  0  0  0  0  0  0  0  0
   15.1518   -7.9675   15.9094 N   0  0  0  0  0  0  0  0  0  0  0  0
   15.8617   -7.4570   14.7397 C   0  0  0  0  0  0  0  0  0  0  0  0
   17.1324   -8.2746   14.5223 C   0  0  0  0  0  0  0  0  0  0  0  0
   16.7821   -9.7643   14.4399 C   0  0  0  0  0  0  0  0  0  0  0  0
   16.0282  -10.2459   15.6945 C   0  0  0  0  0  0  0  0  0  0  0  0
   14.7783   -9.3815   15.8869 C   0  0  0  0  0  0  0  0  0  0  0  0
   14.9226   -7.6340   19.6216 C   0  0  0  0  0  0  0  0  0  0  0  0
   14.3762   -7.6551   18.3206 C   0  0  0  0  0  0  0  0  0  0  0  0
   13.0508   -8.0751   18.1487 C   0  0  0  0  0  0  0  0  0  0  0  0
   12.2956   -8.4703   19.2525 C   0  0  0  0  0  0  0  0  0  0  0  0
   12.8422   -8.4455   20.4953 N   0  0  0  0  0  0  0  0  0  0  0  0
   14.1234   -8.0418   20.6995 C   0  0  0  0  0  0  0  0  0  0  0  0
   16.7470   -6.6389   21.0804 C   0  0  0  0  0  0  0  0  0  0  0  0
   16.2815   -7.2343   19.8378 N   0  0  0  0  0  0  0  0  0  0  0  0
   16.9312   -7.3692   19.1105 H   0  0  0  0  0  0  0  0  0  0  0  0
   16.9007  -10.2119   16.9516 C   0  0  0  0  0  0  0  0  0  0  0  0
   18.2738  -10.7679   16.6286 C   0  0  0  0  0  0  0  0  0  0  0  0
   17.2691  -11.6246   17.3659 C   0  0  0  0  0  0  0  0  0  0  0  0
   18.0176  -10.6093   14.1527 C   0  0  0  0  0  0  0  0  0  0  0  0
   18.6561  -10.1773   12.9159 N   0  0  0  0  0  0  0  0  0  0  0  0
   19.6364  -10.0876   12.9027 H   0  0  0  0  0  0  0  0  0  0  0  0
   17.9300   -9.8767   11.7188 C   0  0  0  0  0  0  0  0  0  0  0  0
   16.6054  -10.3051   11.5241 C   0  0  0  0  0  0  0  0  0  0  0  0
   15.9536   -9.9690   10.3197 C   0  0  0  0  0  0  0  0  0  0  0  0
   16.6051   -9.2537    9.3549 N   0  0  0  0  0  0  0  0  0  0  0  0
   17.8821   -8.8635    9.5871 C   0  0  0  0  0  0  0  0  0  0  0  0
   18.6544   -8.1565    8.7475 N   0  0  0  0  0  0  0  0  0  0  0  0
   19.8076   -8.0509    9.4646 C   0  0  0  0  0  0  0  0  0  0  0  0
   19.7267   -8.6657   10.6728 N   0  0  0  0  0  0  0  0  0  0  0  0
   18.5089   -9.1655   10.7209 N   0  0  0  0  0  0  0  0  0  0  0  0
   14.5603  -10.4325   10.0818 C   0  0  0  0  0  0  0  0  0  0  0  0
   13.8476  -10.4139   11.2806 O   0  0  0  0  0  0  0  0  0  0  0  0
   12.5090  -10.4327   10.8916 C   0  0  0  0  0  0  0  0  0  0  0  0
 15 16  1  0  0  0
 16  9  1  0  0  0
  9 10  2  0  0  0
 10 11  1  0  0  0
 11 12  2  0  0  0
 12 13  1  0  0  0
 13 14  2  0  0  0
 10  1  1  0  0  0
  1  2  2  0  0  0
  1  3  1  0  0  0
  3  4  1  0  0  0
  4  5  1  0  0  0
  5  6  1  0  0  0
  6 21  1  0  0  0
 21 22  1  0  0  0
 22 24  1  0  0  0
 24 25  2  0  0  0
 25 26  1  0  0  0
 26 33  1  0  0  0
 33 34  1  0  0  0
 34 35  1  0  0  0
 26 27  2  0  0  0
 27 28  1  0  0  0
 28 29  2  0  0  0
 29 30  1  0  0  0
 30 31  2  0  0  0
 31 32  1  0  0  0
  6  7  1  0  0  0
  7  8  1  0  0  0
  7 18  1  0  0  0
 18 19  1  0  0  0
 19 20  1  0  0  0
 14  9  1  0  0  0
  8  3  1  0  0  0
 20 18  1  0  0  0
 32 24  1  0  0  0
 32 28  1  0  0  0
 16 17  1  0  0  0
 22 23  1  0  0  0
M  END
>  <minimizedAffinity>
1.39823

>  <minimizedRMSD>
2.15620

$$$$
CSC026158823 3361582 CSSS00026158823 MCULE-5457433140 MolPort-004-057-025 PubChem-2479145 Z21773858 ZINC000003361582


 30 33  0  0  0  0  0  0  0  0999 V2000
   16.7269   -9.8570   11.9399 N   0  0  0  0  0  0  0  0  0  0  0  0
   17.5810   -9.4700   10.8577 C   0  0  0  0  0  0  0  0  0  0  0  0
   18.8339   -9.5449   10.9539 O   0  0  0  0  0  0  0  0  0  0  0  0
   15.7582   -9.7501   11.8004 H   0  0  0  0  0  0  0  0  0  0  0  0
   16.8915   -9.7637   14.4428 C   0  0  0  0  0  0  0  0  0  0  0  0
   17.4166  -10.5291   15.4920 C   0  0  0  0  0  0  0  0  0  0  0  0
   18.0305  -11.6627   15.1109 C   0  0  0  0  0  0  0  0  0  0  0  0
   18.5727  -12.4644   16.2166 C   0  0  0  0  0  0  0  0  0  0  0  0
   18.1912  -11.6158   17.4478 C   0  0  0  0  0  0  0  0  0  0  0  0
   17.4362  -10.3583   16.9592 C   0  0  0  0  0  0  0  0  0  0  0  0
   17.9913  -11.8438   13.4463 S   0  0  0  0  0  0  0  0  0  0  0  0
   17.1428  -10.3848   13.2069 C   0  0  0  0  0  0  0  0  0  0  0  0
   16.0720   -7.8797   15.9033 N   0  0  0  0  0  0  0  0  0  0  0  0
   16.1720   -8.4837   14.6177 C   0  0  0  0  0  0  0  0  0  0  0  0
   15.6383   -7.9113   13.6312 O   0  0  0  0  0  0  0  0  0  0  0  0
   16.4838   -8.3144   16.6848 H   0  0  0  0  0  0  0  0  0  0  0  0
   15.5911   -7.0273   16.0107 H   0  0  0  0  0  0  0  0  0  0  0  0
   16.9757   -8.9855    9.5866 C   0  0  0  0  0  0  0  0  0  0  0  0
   16.8514  -10.3451    8.3835 S   0  0  0  0  0  0  0  0  0  0  0  0
   17.8284   -9.4830    7.1533 C   0  0  0  0  0  0  0  0  0  0  0  0
   18.1747   -8.1897    7.2136 N   0  0  0  0  0  0  0  0  0  0  0  0
   18.8897   -7.9953    6.0989 C   0  0  0  0  0  0  0  0  0  0  0  0
   19.4353   -6.7461    5.8070 C   0  0  0  0  0  0  0  0  0  0  0  0
   19.2034   -5.7101    6.7273 C   0  0  0  0  0  0  0  0  0  0  0  0
   18.4465   -5.9462    7.8931 C   0  0  0  0  0  0  0  0  0  0  0  0
   17.9226   -7.2257    8.1330 C   0  0  0  0  0  0  0  0  0  0  0  0
   18.1624   -4.6512    9.0352 Cl  0  0  0  0  0  0  0  0  0  0  0  0
   20.3763   -6.4620    4.3556 Cl  0  0  0  0  0  0  0  0  0  0  0  0
   18.9875   -9.1206    5.3654 N   0  0  0  0  0  0  0  0  0  0  0  0
   18.3170  -10.0577    6.0316 N   0  0  0  0  0  0  0  0  0  0  0  0
 13 14  1  0  0  0
 14  5  1  0  0  0
  5  6  1  0  0  0
  6  7  2  0  0  0
  7  8  1  0  0  0
  8  9  1  0  0  0
  9 10  1  0  0  0
  7 11  1  0  0  0
 11 12  1  0  0  0
 12  1  1  0  0  0
  1  2  1  0  0  0
  2 18  1  0  0  0
 18 19  1  0  0  0
 19 20  1  0  0  0
 20 21  1  0  0  0
 21 22  1  0  0  0
 22 23  1  0  0  0
 23 24  2  0  0  0
 24 25  1  0  0  0
 25 26  2  0  0  0
 25 27  1  0  0  0
 23 28  1  0  0  0
 22 29  2  0  0  0
 29 30  1  0  0  0
  2  3  2  0  0  0
 14 15  2  0  0  0
 12  5  2  0  0  0
 30 20  2  0  0  0
 10  6  1  0  0  0
 26 21  1  0  0  0
 13 16  1  0  0  0
 13 17  1  0  0  0
  1  4  1  0  0  0
M  END
>  <minimizedAffinity>
1.52260

>  <minimizedRMSD>
2.70273

$$$$
1772807099 CSSS00160236204 MCULE-7072167678 MolPort-046-749-301 PubChem-138380922


 29 32  0  0  0  0  0  0  0  0999 V2000
   14.3918   -6.0474   17.8629 O   0  0  0  0  0  0  0  0  0  0  0  0
   14.4182   -7.3071   17.7941 C   0  0  0  0  0  0  0  0  0  0  0  0
   13.9375   -8.0910   18.8911 N   0  0  0  0  0  0  0  0  0  0  0  0
   14.9264   -7.9525   16.6179 N   0  0  0  0  0  0  0  0  0  0  0  0
   14.9928   -9.4130   16.5745 C   0  0  0  0  0  0  0  0  0  0  0  0
   16.4231   -9.9047   16.8001 C   0  0  0  0  0  0  0  0  0  0  0  0
   17.4624   -9.1197   15.9962 C   0  0  0  0  0  0  0  0  0  0  0  0
   17.0161   -8.8992   14.6191 N   0  0  0  0  0  0  0  0  0  0  0  0
   15.9296   -7.9555   14.3123 C   0  0  0  0  0  0  0  0  0  0  0  0
   15.4649   -7.1324   15.5243 C   0  0  0  0  0  0  0  0  0  0  0  0
   17.7347   -9.5411   13.5498 C   0  0  0  0  0  0  0  0  0  0  0  0
   18.8982   -9.9793   13.7649 O   0  0  0  0  0  0  0  0  0  0  0  0
   13.9312   -9.0714   18.8021 H   0  0  0  0  0  0  0  0  0  0  0  0
   17.1266   -9.7318   12.2074 C   0  0  0  0  0  0  0  0  0  0  0  0
   15.9017  -10.4049   12.1127 C   0  0  0  0  0  0  0  0  0  0  0  0
   15.3176  -10.6320   10.8668 C   0  0  0  0  0  0  0  0  0  0  0  0
   15.9345  -10.2060    9.7347 N   0  0  0  0  0  0  0  0  0  0  0  0
   17.1246   -9.5524    9.7751 C   0  0  0  0  0  0  0  0  0  0  0  0
   17.7205   -9.1266    8.5843 C   0  0  0  0  0  0  0  0  0  0  0  0
   18.9387   -8.4440    8.6142 C   0  0  0  0  0  0  0  0  0  0  0  0
   19.5654   -8.1820    9.8347 C   0  0  0  0  0  0  0  0  0  0  0  0
   18.9770   -8.6047   11.0296 C   0  0  0  0  0  0  0  0  0  0  0  0
   17.7563   -9.2987   11.0176 C   0  0  0  0  0  0  0  0  0  0  0  0
   13.4567   -7.5005   20.1347 C   0  0  0  0  0  0  0  0  0  0  0  0
   13.4052   -8.5596   21.2385 C   0  0  0  0  0  0  0  0  0  0  0  0
   14.8085   -9.0125   21.6414 C   0  0  0  0  0  0  0  0  0  0  0  0
   15.6396   -7.8158   22.0918 C   0  0  0  0  0  0  0  0  0  0  0  0
   15.7375   -6.7935   20.9646 C   0  0  0  0  0  0  0  0  0  0  0  0
   14.3418   -6.3220   20.5578 C   0  0  0  0  0  0  0  0  0  0  0  0
  1  2  2  0  0  0
  2  3  1  0  0  0
  3 24  1  0  0  0
 24 25  1  0  0  0
 25 26  1  0  0  0
 26 27  1  0  0  0
 27 28  1  0  0  0
 28 29  1  0  0  0
  2  4  1  0  0  0
  4  5  1  0  0  0
  5  6  1  0  0  0
  6  7  1  0  0  0
  7  8  1  0  0  0
  8  9  1  0  0  0
  9 10  1  0  0  0
  8 11  1  0  0  0
 11 12  2  0  0  0
 11 14  1  0  0  0
 14 15  2  0  0  0
 15 16  1  0  0  0
 16 17  2  0  0  0
 17 18  1  0  0  0
 18 19  2  0  0  0
 19 20  1  0  0  0
 20 21  2  0  0  0
 21 22  1  0  0  0
 22 23  2  0  0  0
 29 24  1  0  0  0
 10  4  1  0  0  0
 23 14  1  0  0  0
 23 18  1  0  0  0
  3 13  1  0  0  0
M  END
>  <minimizedAffinity>
1.52733

>  <minimizedRMSD>
2.04965

$$$$
CSC028015656 3290597 CSSS00028015656 MCULE-7859731238 MolPort-004-266-269 PubChem-2406165 Z31233910 ZINC000003290597


 33 36  0  0  0  0  0  0  0  0999 V2000
   20.4020   -7.2065    6.9390 C   0  0  0  0  0  0  0  0  0  0  0  0
   19.2537   -7.8627    7.6236 C   0  0  0  0  0  0  0  0  0  0  0  0
   19.2504   -8.3454    8.9354 C   0  0  0  0  0  0  0  0  0  0  0  0
   20.4365   -8.2565    9.8385 C   0  0  0  0  0  0  0  0  0  0  0  0
   18.0115   -8.9102    9.2907 C   0  0  0  0  0  0  0  0  0  0  0  0
   17.6203   -9.4943   10.5024 C   0  0  0  0  0  0  0  0  0  0  0  0
   16.3476   -9.9770   10.6131 N   0  0  0  0  0  0  0  0  0  0  0  0
   15.4578   -9.8983    9.5796 C   0  0  0  0  0  0  0  0  0  0  0  0
   15.8292   -9.3410    8.3932 N   0  0  0  0  0  0  0  0  0  0  0  0
   17.0865   -8.8560    8.2647 C   0  0  0  0  0  0  0  0  0  0  0  0
   17.7456   -8.1272    6.9057 S   0  0  0  0  0  0  0  0  0  0  0  0
   18.5268   -9.5891   11.6023 N   0  0  0  0  0  0  0  0  0  0  0  0
   19.3350   -9.0269   11.6008 H   0  0  0  0  0  0  0  0  0  0  0  0
   18.2989  -10.4862   12.7242 C   0  0  0  0  0  0  0  0  0  0  0  0
   18.9442   -9.9202   13.9802 C   0  0  0  0  0  0  0  0  0  0  0  0
   17.9148   -9.4441   14.9517 C   0  0  0  0  0  0  0  0  0  0  0  0
   17.8936   -9.9687   16.2480 C   0  0  0  0  0  0  0  0  0  0  0  0
   16.9338   -9.5315   17.1655 C   0  0  0  0  0  0  0  0  0  0  0  0
   15.9883   -8.5716   16.7884 C   0  0  0  0  0  0  0  0  0  0  0  0
   16.0069   -8.0488   15.4903 C   0  0  0  0  0  0  0  0  0  0  0  0
   16.9665   -8.4856   14.5724 C   0  0  0  0  0  0  0  0  0  0  0  0
   14.7945   -8.0168   17.9472 S   0  0  0  0  0  0  0  0  0  0  0  0
   15.5811   -7.5556   19.4148 N   0  0  0  0  0  0  0  0  0  0  0  0
   13.8216   -9.1230   18.2447 O   0  0  0  0  0  0  0  0  0  0  0  0
   14.0529   -6.8391   17.3810 O   0  0  0  0  0  0  0  0  0  0  0  0
   16.0838   -8.3565   19.7973 H   0  0  0  0  0  0  0  0  0  0  0  0
   14.8844   -7.2381   20.0887 H   0  0  0  0  0  0  0  0  0  0  0  0
   14.0894  -10.4649    9.7360 C   0  0  0  0  0  0  0  0  0  0  0  0
   13.5349  -10.0746   11.0222 N   0  0  0  0  0  0  0  0  0  0  0  0
   12.7015  -11.1759   11.4769 C   0  0  0  0  0  0  0  0  0  0  0  0
   12.8614  -11.2819   12.9772 C   0  0  0  0  0  0  0  0  0  0  0  0
   14.1331  -10.5363   13.2973 C   0  0  0  0  0  0  0  0  0  0  0  0
   14.6377  -10.0133   11.9703 C   0  0  0  0  0  0  0  0  0  0  0  0
  1  2  1  0  0  0
  2  3  2  0  0  0
  3  4  1  0  0  0
  3  5  1  0  0  0
  5  6  2  0  0  0
  6 12  1  0  0  0
  6  7  1  0  0  0
 12 14  1  0  0  0
 14 15  1  0  0  0
 15 16  1  0  0  0
 16 17  2  0  0  0
 17 18  1  0  0  0
 18 19  2  0  0  0
 19 20  1  0  0  0
 19 22  1  0  0  0
 20 21  2  0  0  0
 21 16  1  0  0  0
 22 23  1  0  0  0
 22 24  2  0  0  0
 22 25  2  0  0  0
  7  8  2  0  0  0
  8 28  1  0  0  0
  8  9  1  0  0  0
 28 29  1  0  0  0
 29 30  1  0  0  0
 30 31  1  0  0  0
 31 32  1  0  0  0
 32 33  1  0  0  0
 33 29  1  0  0  0
  9 10  2  0  0  0
 10 11  1  0  0  0
 10  5  1  0  0  0
 11  2  1  0  0  0
 12 13  1  0  0  0
 23 26  1  0  0  0
 23 27  1  0  0  0
M  END
>  <minimizedAffinity>
1.58684

>  <minimizedRMSD>
3.74602

$$$$
1147263089 CSSS00160552679 MCULE-5254985893 MolPort-046-903-273 PubChem-146095592 Z4131951717


 33 36  0  0  0  0  0  0  0  0999 V2000
   17.9617  -10.4530   13.4447 C   0  0  0  0  0  0  0  0  0  0  0  0
   18.9828  -10.9740   13.9694 O   0  0  0  0  0  0  0  0  0  0  0  0
   17.9305  -10.1908   12.0341 N   0  0  0  0  0  0  0  0  0  0  0  0
   16.6899   -9.7865   11.3733 C   0  0  0  0  0  0  0  0  0  0  0  0
   16.9725   -8.6425   10.4035 C   0  0  0  0  0  0  0  0  0  0  0  0
   18.1148   -8.9872    9.5600 N   0  0  0  0  0  0  0  0  0  0  0  0
   19.3557   -9.3522   10.2394 C   0  0  0  0  0  0  0  0  0  0  0  0
   19.0891  -10.5060   11.2006 C   0  0  0  0  0  0  0  0  0  0  0  0
   17.9511   -9.0718    8.1302 C   0  0  0  0  0  0  0  0  0  0  0  0
   18.7995   -8.4257    7.2171 C   0  0  0  0  0  0  0  0  0  0  0  0
   20.1249   -7.4186    7.4365 S   0  0  0  0  0  0  0  0  0  0  0  0
   20.4346   -7.1440    5.7954 C   0  0  0  0  0  0  0  0  0  0  0  0
   19.4806   -7.8461    5.0535 C   0  0  0  0  0  0  0  0  0  0  0  0
   18.5802   -8.5484    5.8597 C   0  0  0  0  0  0  0  0  0  0  0  0
   17.5484   -9.2906    5.3881 N   0  0  0  0  0  0  0  0  0  0  0  0
   16.7173   -9.9181    6.2668 C   0  0  0  0  0  0  0  0  0  0  0  0
   16.9197   -9.8040    7.6128 N   0  0  0  0  0  0  0  0  0  0  0  0
   16.7972  -10.1024   14.3167 C   0  0  0  0  0  0  0  0  0  0  0  0
   17.1529   -9.0213   15.2280 N   0  0  0  0  0  0  0  0  0  0  0  0
   18.0240   -8.5796   15.1045 H   0  0  0  0  0  0  0  0  0  0  0  0
   14.6824   -7.6756   18.3991 C   0  0  0  0  0  0  0  0  0  0  0  0
   14.3023   -7.4423   17.0739 C   0  0  0  0  0  0  0  0  0  0  0  0
   15.1127   -7.8840   16.0255 C   0  0  0  0  0  0  0  0  0  0  0  0
   16.3105   -8.5635   16.2924 C   0  0  0  0  0  0  0  0  0  0  0  0
   16.6844   -8.8024   17.6224 C   0  0  0  0  0  0  0  0  0  0  0  0
   17.8356   -9.4619   17.9033 F   0  0  0  0  0  0  0  0  0  0  0  0
   15.8719   -8.3591   18.6706 C   0  0  0  0  0  0  0  0  0  0  0  0
   12.3498   -8.2326   19.9271 N   0  0  0  0  0  0  0  0  0  0  0  0
   13.6631   -7.1302   19.7183 S   0  0  0  0  0  0  0  0  0  0  0  0
   13.1225   -5.7617   19.4111 O   0  0  0  0  0  0  0  0  0  0  0  0
   14.4702   -7.0619   20.9845 O   0  0  0  0  0  0  0  0  0  0  0  0
   11.7577   -7.9147   20.6944 H   0  0  0  0  0  0  0  0  0  0  0  0
   12.7154   -9.1603   20.1417 H   0  0  0  0  0  0  0  0  0  0  0  0
 28 29  1  0  0  0
 29 30  2  0  0  0
 29 31  2  0  0  0
 29 21  1  0  0  0
 21 22  2  0  0  0
 22 23  1  0  0  0
 23 24  2  0  0  0
 24 19  1  0  0  0
 19 18  1  0  0  0
 18  1  1  0  0  0
  1  2  2  0  0  0
  1  3  1  0  0  0
  3  4  1  0  0  0
  4  5  1  0  0  0
  5  6  1  0  0  0
  6  7  1  0  0  0
  7  8  1  0  0  0
  6  9  1  0  0  0
  9 10  2  0  0  0
 10 11  1  0  0  0
 11 12  1  0  0  0
 12 13  2  0  0  0
 13 14  1  0  0  0
 14 15  2  0  0  0
 15 16  1  0  0  0
 16 17  2  0  0  0
 24 25  1  0  0  0
 25 26  1  0  0  0
 25 27  2  0  0  0
 27 21  1  0  0  0
  8  3  1  0  0  0
 17  9  1  0  0  0
 14 10  1  0  0  0
 28 32  1  0  0  0
 28 33  1  0  0  0
 19 20  1  0  0  0
M  END
>  <minimizedAffinity>
1.60605

>  <minimizedRMSD>
2.93427

$$$$
72425383 CSSS00159815272 MCULE-4179625102 MolPort-021-757-380 PubChem-70734843 ZINC000072425383


 28 31  0  0  0  0  0  0  0  0999 V2000
   18.5767   -9.0667   10.4035 N   0  0  0  0  0  0  0  0  0  0  0  0
   19.7776   -8.6522   10.0527 N   0  0  0  0  0  0  0  0  0  0  0  0
   19.6413   -8.0217    8.8599 C   0  0  0  0  0  0  0  0  0  0  0  0
   18.3039   -8.0404    8.4446 C   0  0  0  0  0  0  0  0  0  0  0  0
   17.6895   -8.7187    9.4721 C   0  0  0  0  0  0  0  0  0  0  0  0
   16.3755   -9.0272    9.5918 N   0  0  0  0  0  0  0  0  0  0  0  0
   15.9479   -9.7132   10.6963 C   0  0  0  0  0  0  0  0  0  0  0  0
   16.8807  -10.0877   11.6911 C   0  0  0  0  0  0  0  0  0  0  0  0
   18.2330   -9.7465   11.5247 C   0  0  0  0  0  0  0  0  0  0  0  0
   14.5168  -10.0567   10.8402 C   0  0  0  0  0  0  0  0  0  0  0  0
   14.0739  -10.8765   11.8916 C   0  0  0  0  0  0  0  0  0  0  0  0
   12.7191  -11.1960   12.0199 C   0  0  0  0  0  0  0  0  0  0  0  0
   11.7939  -10.6991   11.0986 C   0  0  0  0  0  0  0  0  0  0  0  0
   12.2231   -9.8830   10.0490 C   0  0  0  0  0  0  0  0  0  0  0  0
   13.5779   -9.5634    9.9208 C   0  0  0  0  0  0  0  0  0  0  0  0
   19.2237  -10.0969   12.4951 N   0  0  0  0  0  0  0  0  0  0  0  0
   20.1466   -9.7807   12.3624 H   0  0  0  0  0  0  0  0  0  0  0  0
   18.9246  -10.9007   13.6698 C   0  0  0  0  0  0  0  0  0  0  0  0
   18.5504  -10.0102   14.8006 C   0  0  0  0  0  0  0  0  0  0  0  0
   19.4432   -9.4062   15.6641 C   0  0  0  0  0  0  0  0  0  0  0  0
   18.6607   -8.6610   16.5324 C   0  0  0  0  0  0  0  0  0  0  0  0
   17.3558   -8.8706   16.1220 C   0  0  0  0  0  0  0  0  0  0  0  0
   17.3193   -9.6747   15.0892 O   0  0  0  0  0  0  0  0  0  0  0  0
   16.1637   -8.2828   16.7416 C   0  0  0  0  0  0  0  0  0  0  0  0
   16.0303   -8.2681   18.1643 N   0  0  0  0  0  0  0  0  0  0  0  0
   14.8678   -7.6967   18.8227 C   0  0  0  0  0  0  0  0  0  0  0  0
   15.2600   -7.7919   16.0127 O   0  0  0  0  0  0  0  0  0  0  0  0
   16.7478   -8.6569   18.7151 H   0  0  0  0  0  0  0  0  0  0  0  0
  1  2  1  0  0  0
  2  3  2  0  0  0
  3  4  1  0  0  0
  4  5  2  0  0  0
  5  6  1  0  0  0
  6  7  2  0  0  0
  7 10  1  0  0  0
 10 11  2  0  0  0
 11 12  1  0  0  0
 12 13  2  0  0  0
 13 14  1  0  0  0
 14 15  2  0  0  0
  7  8  1  0  0  0
  8  9  2  0  0  0
  9 16  1  0  0  0
 16 18  1  0  0  0
 18 19  1  0  0  0
 19 20  2  0  0  0
 20 21  1  0  0  0
 21 22  2  0  0  0
 22 24  1  0  0  0
 24 25  1  0  0  0
 25 26  1  0  0  0
 24 27  2  0  0  0
 22 23  1  0  0  0
  5  1  1  0  0  0
 15 10  1  0  0  0
 23 19  1  0  0  0
  9  1  1  0  0  0
 16 17  1  0  0  0
 25 28  1  0  0  0
M  END
>  <minimizedAffinity>
1.62405

>  <minimizedRMSD>
2.90332

$$$$
CSC025818554 2635456 CSSS00025818554 MCULE-2760136329 MolPort-004-036-628 PubChem-2098086 Z13699895 ZINC000002635456


 30 33  0  0  0  0  0  0  0  0999 V2000
   19.0918   -9.3036   11.0221 C   0  0  0  0  0  0  0  0  0  0  0  0
   19.3057   -9.1936   12.4338 N   0  0  0  0  0  0  0  0  0  0  0  0
   18.4225  -10.2517   10.5345 O   0  0  0  0  0  0  0  0  0  0  0  0
   19.8899   -8.4620   12.7385 H   0  0  0  0  0  0  0  0  0  0  0  0
   18.7528  -10.0440   13.4476 C   0  0  0  0  0  0  0  0  0  0  0  0
   17.6524   -9.7018   14.2524 C   0  0  0  0  0  0  0  0  0  0  0  0
   17.3446  -10.7474   15.1325 C   0  0  0  0  0  0  0  0  0  0  0  0
   18.1385  -11.8270   15.0252 C   0  0  0  0  0  0  0  0  0  0  0  0
   17.8019  -12.9253   15.9416 C   0  0  0  0  0  0  0  0  0  0  0  0
   16.5945  -12.3467   16.7090 C   0  0  0  0  0  0  0  0  0  0  0  0
   16.3061  -10.9279   16.1674 C   0  0  0  0  0  0  0  0  0  0  0  0
   19.2991  -11.6111   13.8370 S   0  0  0  0  0  0  0  0  0  0  0  0
   16.9157   -8.4216   14.1816 C   0  0  0  0  0  0  0  0  0  0  0  0
   16.9791   -7.4898   15.2566 N   0  0  0  0  0  0  0  0  0  0  0  0
   16.2225   -8.1390   13.1692 O   0  0  0  0  0  0  0  0  0  0  0  0
   17.5166   -7.6956   16.0554 H   0  0  0  0  0  0  0  0  0  0  0  0
   16.4854   -6.6398   15.2011 H   0  0  0  0  0  0  0  0  0  0  0  0
   19.6801   -8.2847   10.1081 C   0  0  0  0  0  0  0  0  0  0  0  0
   18.4029   -7.1197    9.5344 S   0  0  0  0  0  0  0  0  0  0  0  0
   20.2251   -7.2202    5.3090 C   0  0  0  0  0  0  0  0  0  0  0  0
   19.3204   -8.3957    4.4871 S   0  0  0  0  0  0  0  0  0  0  0  0
   18.3518   -8.7340    5.8109 C   0  0  0  0  0  0  0  0  0  0  0  0
   18.7102   -7.9480    6.8863 C   0  0  0  0  0  0  0  0  0  0  0  0
   18.0072   -8.0963    8.0823 C   0  0  0  0  0  0  0  0  0  0  0  0
   16.9933   -9.0076    8.1343 N   0  0  0  0  0  0  0  0  0  0  0  0
   16.6626   -9.7709    7.0498 C   0  0  0  0  0  0  0  0  0  0  0  0
   17.3447   -9.6366    5.8772 N   0  0  0  0  0  0  0  0  0  0  0  0
   19.7726   -7.0768    6.6211 C   0  0  0  0  0  0  0  0  0  0  0  0
   22.2444   -7.3160    3.8959 C   0  0  0  0  0  0  0  0  0  0  0  0
   21.3303   -6.4213    4.7103 C   0  0  0  0  0  0  0  0  0  0  0  0
 29 30  1  0  0  0
 30 20  1  0  0  0
 20 21  1  0  0  0
 21 22  1  0  0  0
 22 23  2  0  0  0
 23 24  1  0  0  0
 24 25  2  0  0  0
 25 26  1  0  0  0
 26 27  2  0  0  0
 24 19  1  0  0  0
 19 18  1  0  0  0
 18  1  1  0  0  0
  1  2  1  0  0  0
  2  5  1  0  0  0
  5  6  2  0  0  0
  6 13  1  0  0  0
 13 14  1  0  0  0
 13 15  2  0  0  0
  6  7  1  0  0  0
  7  8  2  0  0  0
  8  9  1  0  0  0
  9 10  1  0  0  0
 10 11  1  0  0  0
  8 12  1  0  0  0
  1  3  2  0  0  0
 23 28  1  0  0  0
 28 20  2  0  0  0
 27 22  1  0  0  0
 12  5  1  0  0  0
 11  7  1  0  0  0
  2  4  1  0  0  0
 14 16  1  0  0  0
 14 17  1  0  0  0
M  END
>  <minimizedAffinity>
1.63268

>  <minimizedRMSD>
2.33509

$$$$
67643571 CSSS00159573029 MCULE-5924280833 MolPort-019-884-304 PubChem-56741961 ZINC000067643571 ZINC67643571


 31 33  0  0  0  0  0  0  0  0999 V2000
   15.2073   -9.8485   12.5546 C   0  0  0  0  0  0  0  0  0  0  0  0
   14.1864  -10.5714   12.0570 N   0  0  0  0  0  0  0  0  0  0  0  0
   14.0435  -10.2523   10.7827 N   0  0  0  0  0  0  0  0  0  0  0  0
   14.9685   -9.3232   10.4844 C   0  0  0  0  0  0  0  0  0  0  0  0
   15.7546   -9.0311   11.5818 C   0  0  0  0  0  0  0  0  0  0  0  0
   13.3779  -10.6279   10.1621 H   0  0  0  0  0  0  0  0  0  0  0  0
   16.6297   -9.0048   14.4384 N   0  0  0  0  0  0  0  0  0  0  0  0
   15.6712   -9.9418   13.9428 C   0  0  0  0  0  0  0  0  0  0  0  0
   15.2237  -10.8504   14.6936 O   0  0  0  0  0  0  0  0  0  0  0  0
   16.9605   -8.2982   13.8379 H   0  0  0  0  0  0  0  0  0  0  0  0
   17.1328   -9.0624   15.8045 C   0  0  0  0  0  0  0  0  0  0  0  0
   16.2501   -8.2464   16.6946 C   0  0  0  0  0  0  0  0  0  0  0  0
   16.2929   -8.4454   18.1022 N   0  0  0  0  0  0  0  0  0  0  0  0
   15.4660   -7.3891   16.2074 O   0  0  0  0  0  0  0  0  0  0  0  0
   16.9044   -9.1145   18.4864 H   0  0  0  0  0  0  0  0  0  0  0  0
   15.7111   -7.9140   18.6924 H   0  0  0  0  0  0  0  0  0  0  0  0
   19.5064   -9.5967   15.2095 C   0  0  0  0  0  0  0  0  0  0  0  0
   18.5835   -8.5820   15.8600 C   0  0  0  0  0  0  0  0  0  0  0  0
   18.9795   -8.3997   17.1863 O   0  0  0  0  0  0  0  0  0  0  0  0
   18.9210   -9.2441   17.6601 H   0  0  0  0  0  0  0  0  0  0  0  0
   15.1616   -8.7579    9.1191 C   0  0  0  0  0  0  0  0  0  0  0  0
   16.4354   -9.2049    8.5683 N   0  0  0  0  0  0  0  0  0  0  0  0
   16.9988  -10.4350    8.6648 C   0  0  0  0  0  0  0  0  0  0  0  0
   16.3469  -11.5958    9.3346 C   0  0  0  0  0  0  0  0  0  0  0  0
   18.2300  -10.5128    8.0947 N   0  0  0  0  0  0  0  0  0  0  0  0
   18.4254   -9.2622    7.6340 C   0  0  0  0  0  0  0  0  0  0  0  0
   19.5433   -8.7696    6.9656 C   0  0  0  0  0  0  0  0  0  0  0  0
   19.5283   -7.4129    6.5898 C   0  0  0  0  0  0  0  0  0  0  0  0
   18.4148   -6.5954    6.8888 C   0  0  0  0  0  0  0  0  0  0  0  0
   17.3005   -7.1233    7.5669 C   0  0  0  0  0  0  0  0  0  0  0  0
   17.3502   -8.4710    7.9205 C   0  0  0  0  0  0  0  0  0  0  0  0
 18 17  1  0  0  0
 18 19  1  0  0  0
 18 11  1  0  0  0
 11  7  1  0  0  0
 11 12  1  0  0  0
  7  8  1  0  0  0
  8  9  2  0  0  0
  8  1  1  0  0  0
  1  2  2  0  0  0
  2  3  1  0  0  0
  3  4  1  0  0  0
  4 21  1  0  0  0
  4  5  2  0  0  0
 21 22  1  0  0  0
 22 23  1  0  0  0
 23 24  1  0  0  0
 23 25  2  0  0  0
 25 26  1  0  0  0
 26 27  2  0  0  0
 27 28  1  0  0  0
 28 29  2  0  0  0
 29 30  1  0  0  0
 30 31  2  0  0  0
 31 22  1  0  0  0
 31 26  1  0  0  0
  5  1  1  0  0  0
 12 13  1  0  0  0
 12 14  2  0  0  0
 19 20  1  0  0  0
  7 10  1  0  0  0
  3  6  1  0  0  0
 13 15  1  0  0  0
 13 16  1  0  0  0
M  END
>  <minimizedAffinity>
1.65235

>  <minimizedRMSD>
1.57368

$$$$
CSC026413071 3337277 CHEMBL1471100 CSSS00026413071 MCULE-9374808487 MolPort-004-066-694 PubChem-19392360 PubChem-2453475 Z31241079 ZINC000003337277


 31 34  0  0  0  0  0  0  0  0999 V2000
   17.9627   -9.5464   11.4639 C   0  0  0  0  0  0  0  0  0  0  0  0
   18.3304   -8.9845   10.2350 C   0  0  0  0  0  0  0  0  0  0  0  0
   17.3415   -8.8517    9.2387 C   0  0  0  0  0  0  0  0  0  0  0  0
   17.6694   -8.2950    7.9993 C   0  0  0  0  0  0  0  0  0  0  0  0
   18.9776   -7.8700    7.7479 C   0  0  0  0  0  0  0  0  0  0  0  0
   19.9606   -7.9999    8.7343 C   0  0  0  0  0  0  0  0  0  0  0  0
   19.6395   -8.5558    9.9764 C   0  0  0  0  0  0  0  0  0  0  0  0
   16.0718   -9.2624    9.4859 N   0  0  0  0  0  0  0  0  0  0  0  0
   15.7306   -9.8069   10.6861 C   0  0  0  0  0  0  0  0  0  0  0  0
   16.6760   -9.9444   11.6560 N   0  0  0  0  0  0  0  0  0  0  0  0
   14.3437  -10.2386   10.9392 C   0  0  0  0  0  0  0  0  0  0  0  0
   14.0450  -11.0942   12.0083 C   0  0  0  0  0  0  0  0  0  0  0  0
   12.7628  -11.4856   12.2381 N   0  0  0  0  0  0  0  0  0  0  0  0
   11.7378  -11.0660   11.4489 C   0  0  0  0  0  0  0  0  0  0  0  0
   11.9872  -10.2128   10.3725 C   0  0  0  0  0  0  0  0  0  0  0  0
   13.2961   -9.7996   10.1201 C   0  0  0  0  0  0  0  0  0  0  0  0
   18.9274   -9.6968   12.5123 N   0  0  0  0  0  0  0  0  0  0  0  0
   19.7496   -9.1566   12.4732 H   0  0  0  0  0  0  0  0  0  0  0  0
   18.7510  -10.6108   13.6342 C   0  0  0  0  0  0  0  0  0  0  0  0
   16.2025   -8.8436   16.6019 C   0  0  0  0  0  0  0  0  0  0  0  0
   17.5867   -8.6470   16.6615 C   0  0  0  0  0  0  0  0  0  0  0  0
   18.4194   -9.2263   15.6995 C   0  0  0  0  0  0  0  0  0  0  0  0
   17.8695  -10.0035   14.6736 C   0  0  0  0  0  0  0  0  0  0  0  0
   16.4856  -10.1984   14.6127 C   0  0  0  0  0  0  0  0  0  0  0  0
   15.6534   -9.6187   15.5742 C   0  0  0  0  0  0  0  0  0  0  0  0
   16.1043   -7.5178   19.1200 N   0  0  0  0  0  0  0  0  0  0  0  0
   15.1565   -8.1054   17.8003 S   0  0  0  0  0  0  0  0  0  0  0  0
   14.4041   -6.9641   17.1768 O   0  0  0  0  0  0  0  0  0  0  0  0
   14.1827   -9.1255   18.3194 O   0  0  0  0  0  0  0  0  0  0  0  0
   16.7695   -6.8240   18.7785 H   0  0  0  0  0  0  0  0  0  0  0  0
   16.6111   -8.2935   19.5465 H   0  0  0  0  0  0  0  0  0  0  0  0
 26 27  1  0  0  0
 27 20  1  0  0  0
 20 21  2  0  0  0
 21 22  1  0  0  0
 22 23  2  0  0  0
 23 19  1  0  0  0
 19 17  1  0  0  0
 17  1  1  0  0  0
  1  2  1  0  0  0
  2  3  1  0  0  0
  3  4  2  0  0  0
  4  5  1  0  0  0
  5  6  2  0  0  0
  6  7  1  0  0  0
  3  8  1  0  0  0
  8  9  2  0  0  0
  9 11  1  0  0  0
 11 12  2  0  0  0
 12 13  1  0  0  0
 13 14  2  0  0  0
 14 15  1  0  0  0
 15 16  2  0  0  0
  9 10  1  0  0  0
 23 24  1  0  0  0
 24 25  2  0  0  0
 27 28  2  0  0  0
 27 29  2  0  0  0
 25 20  1  0  0  0
 10  1  2  0  0  0
  7  2  2  0  0  0
 16 11  1  0  0  0
 26 30  1  0  0  0
 26 31  1  0  0  0
 17 18  1  0  0  0
M  END
>  <minimizedAffinity>
1.69356

>  <minimizedRMSD>
1.25593

$$$$
2325852326 CSSS06354219578 PubChem-166356803 Z5216205491


 29 31  0  0  0  0  0  0  0  0999 V2000
   16.3734   -9.7950   11.8475 C   0  0  0  0  0  0  0  0  0  0  0  0
   15.4888  -10.5476   12.3366 O   0  0  0  0  0  0  0  0  0  0  0  0
   17.3215   -9.1599   12.7083 N   0  0  0  0  0  0  0  0  0  0  0  0
   17.9987   -8.5676   12.3085 H   0  0  0  0  0  0  0  0  0  0  0  0
   15.4521   -9.8693    9.4405 C   0  0  0  0  0  0  0  0  0  0  0  0
   16.4355   -9.5788   10.3852 C   0  0  0  0  0  0  0  0  0  0  0  0
   17.4897   -9.0870    9.7084 N   0  0  0  0  0  0  0  0  0  0  0  0
   18.7030   -8.6601   10.1458 C   0  0  0  0  0  0  0  0  0  0  0  0
   19.6253   -8.2008    9.1962 C   0  0  0  0  0  0  0  0  0  0  0  0
   21.2022   -7.6366    9.7028 Cl  0  0  0  0  0  0  0  0  0  0  0  0
   19.2754   -8.1979    7.8338 C   0  0  0  0  0  0  0  0  0  0  0  0
   18.0127   -8.6515    7.4226 C   0  0  0  0  0  0  0  0  0  0  0  0
   17.1360   -9.0954    8.4101 C   0  0  0  0  0  0  0  0  0  0  0  0
   15.8932   -9.5705    8.1956 N   0  0  0  0  0  0  0  0  0  0  0  0
   13.2260   -9.4270   10.4156 C   0  0  0  0  0  0  0  0  0  0  0  0
   14.0972  -10.4408    9.6983 C   0  0  0  0  0  0  0  0  0  0  0  0
   17.3291   -9.3886   14.4251 S   0  0  0  0  0  0  0  0  0  0  0  0
   15.9650   -9.0697   14.9701 O   0  0  0  0  0  0  0  0  0  0  0  0
   18.3397   -8.4539   15.0269 O   0  0  0  0  0  0  0  0  0  0  0  0
   17.7680  -11.0511   14.8060 C   0  0  0  0  0  0  0  0  0  0  0  0
   17.8563  -11.5886   16.0934 C   0  0  0  0  0  0  0  0  0  0  0  0
   18.3032  -13.1984   15.9283 S   0  0  0  0  0  0  0  0  0  0  0  0
   18.3952  -13.2450   14.2506 C   0  0  0  0  0  0  0  0  0  0  0  0
   18.0692  -11.9727   13.7917 C   0  0  0  0  0  0  0  0  0  0  0  0
   17.6222  -10.9263   17.3908 C   0  0  0  0  0  0  0  0  0  0  0  0
   18.2831  -11.4022   18.5586 N   0  0  0  0  0  0  0  0  0  0  0  0
   16.8473   -9.9399   17.4863 O   0  0  0  0  0  0  0  0  0  0  0  0
   18.8925  -12.1732   18.4997 H   0  0  0  0  0  0  0  0  0  0  0  0
   18.1307  -10.9603   19.4251 H   0  0  0  0  0  0  0  0  0  0  0  0
 15 16  1  0  0  0
 16  5  1  0  0  0
  5  6  2  0  0  0
  6  1  1  0  0  0
  1  2  2  0  0  0
  1  3  1  0  0  0
  3 17  1  0  0  0
 17 18  2  0  0  0
 17 19  2  0  0  0
 17 20  1  0  0  0
 20 21  2  0  0  0
 21 25  1  0  0  0
 25 26  1  0  0  0
 25 27  2  0  0  0
 21 22  1  0  0  0
 22 23  1  0  0  0
 23 24  2  0  0  0
  6  7  1  0  0  0
  7  8  1  0  0  0
  8  9  2  0  0  0
  9 10  1  0  0  0
  9 11  1  0  0  0
 11 12  2  0  0  0
 12 13  1  0  0  0
 13 14  2  0  0  0
 14  5  1  0  0  0
 24 20  1  0  0  0
 13  7  1  0  0  0
  3  4  1  0  0  0
 26 28  1  0  0  0
 26 29  1  0  0  0
M  END
>  <minimizedAffinity>
1.73789

>  <minimizedRMSD>
1.92579

$$$$
CSC027068459 CSSS00027068459 MCULE-4755700083 MolPort-004-205-164 PubChem-16356417 Z112132954


 30 33  0  0  0  0  0  0  0  0999 V2000
   18.3401   -9.6676   11.0570 C   0  0  0  0  0  0  0  0  0  0  0  0
   19.0149   -9.6069   12.3204 N   0  0  0  0  0  0  0  0  0  0  0  0
   17.2804  -10.3327   10.9165 O   0  0  0  0  0  0  0  0  0  0  0  0
   19.8624   -9.1065   12.3466 H   0  0  0  0  0  0  0  0  0  0  0  0
   18.5785  -10.2024   13.5497 C   0  0  0  0  0  0  0  0  0  0  0  0
   17.5767   -9.6645   14.3758 C   0  0  0  0  0  0  0  0  0  0  0  0
   17.3695  -10.4844   15.4925 C   0  0  0  0  0  0  0  0  0  0  0  0
   18.1455  -11.5812   15.5384 C   0  0  0  0  0  0  0  0  0  0  0  0
   17.9153  -12.4429   16.7063 C   0  0  0  0  0  0  0  0  0  0  0  0
   16.8030  -11.6799   17.4561 C   0  0  0  0  0  0  0  0  0  0  0  0
   16.4557  -10.4070   16.6505 C   0  0  0  0  0  0  0  0  0  0  0  0
   19.1650  -11.6594   14.2118 S   0  0  0  0  0  0  0  0  0  0  0  0
   16.8385   -8.4116   14.1070 C   0  0  0  0  0  0  0  0  0  0  0  0
   16.8791   -7.3342   15.0373 N   0  0  0  0  0  0  0  0  0  0  0  0
   16.1646   -8.2815   13.0514 O   0  0  0  0  0  0  0  0  0  0  0  0
   17.4014   -7.4200   15.8674 H   0  0  0  0  0  0  0  0  0  0  0  0
   16.3848   -6.5035   14.8504 H   0  0  0  0  0  0  0  0  0  0  0  0
   20.1680   -8.2080   10.2683 C   0  0  0  0  0  0  0  0  0  0  0  0
   18.8904   -8.9273    9.8828 C   0  0  0  0  0  0  0  0  0  0  0  0
   17.6781   -7.7245    9.2497 S   0  0  0  0  0  0  0  0  0  0  0  0
   17.6653   -8.4419    7.6020 C   0  0  0  0  0  0  0  0  0  0  0  0
   18.6061   -8.0714    6.6291 C   0  0  0  0  0  0  0  0  0  0  0  0
   18.5285   -8.6846    5.3607 C   0  0  0  0  0  0  0  0  0  0  0  0
   19.4483   -8.3468    4.3639 C   0  0  0  0  0  0  0  0  0  0  0  0
   20.4453   -7.4016    4.6231 C   0  0  0  0  0  0  0  0  0  0  0  0
   20.5256   -6.7918    5.8790 C   0  0  0  0  0  0  0  0  0  0  0  0
   19.6090   -7.1249    6.8807 C   0  0  0  0  0  0  0  0  0  0  0  0
   17.5602   -9.6023    5.1100 N   0  0  0  0  0  0  0  0  0  0  0  0
   16.6583   -9.9418    6.0671 C   0  0  0  0  0  0  0  0  0  0  0  0
   16.7147   -9.3645    7.2959 N   0  0  0  0  0  0  0  0  0  0  0  0
 18 19  1  0  0  0
 19  1  1  0  0  0
  1  2  1  0  0  0
  2  5  1  0  0  0
  5  6  2  0  0  0
  6 13  1  0  0  0
 13 14  1  0  0  0
 13 15  2  0  0  0
  6  7  1  0  0  0
  7  8  2  0  0  0
  8  9  1  0  0  0
  9 10  1  0  0  0
 10 11  1  0  0  0
  8 12  1  0  0  0
  1  3  2  0  0  0
 19 20  1  0  0  0
 20 21  1  0  0  0
 21 22  1  0  0  0
 22 23  1  0  0  0
 23 24  2  0  0  0
 24 25  1  0  0  0
 25 26  2  0  0  0
 26 27  1  0  0  0
 23 28  1  0  0  0
 28 29  2  0  0  0
 29 30  1  0  0  0
 12  5  1  0  0  0
 30 21  2  0  0  0
 11  7  1  0  0  0
 27 22  2  0  0  0
  2  4  1  0  0  0
 14 16  1  0  0  0
 14 17  1  0  0  0
M  END
>  <minimizedAffinity>
1.74011

>  <minimizedRMSD>
2.53879

$$$$
CSSS00160766966 LN00804665 MCULE-4967219084 MolPort-006-812-555


 32 35  0  0  0  0  0  0  0  0999 V2000
   16.5785   -9.0735   11.7479 N   0  0  0  0  0  0  0  0  0  0  0  0
   15.2102   -9.2780   12.1079 C   0  0  0  0  0  0  0  0  0  0  0  0
   14.5923  -10.3040   11.7169 O   0  0  0  0  0  0  0  0  0  0  0  0
   17.0117   -8.2275   12.0045 H   0  0  0  0  0  0  0  0  0  0  0  0
   17.3591  -10.0630   11.0179 C   0  0  0  0  0  0  0  0  0  0  0  0
   17.2789   -9.7816    9.5500 C   0  0  0  0  0  0  0  0  0  0  0  0
   16.4034  -10.3859    8.7158 N   0  0  0  0  0  0  0  0  0  0  0  0
   16.6036   -9.8881    7.4978 N   0  0  0  0  0  0  0  0  0  0  0  0
   17.5976   -8.9894    7.6184 C   0  0  0  0  0  0  0  0  0  0  0  0
   18.1452   -8.2084    6.6045 C   0  0  0  0  0  0  0  0  0  0  0  0
   19.1790   -7.3266    6.9652 C   0  0  0  0  0  0  0  0  0  0  0  0
   19.6264   -7.2502    8.3002 C   0  0  0  0  0  0  0  0  0  0  0  0
   19.0311   -8.0642    9.2762 C   0  0  0  0  0  0  0  0  0  0  0  0
   18.0386   -8.8994    8.8791 N   0  0  0  0  0  0  0  0  0  0  0  0
   18.8060  -10.0445   11.4918 C   0  0  0  0  0  0  0  0  0  0  0  0
   19.3051  -11.4597   11.7181 C   0  0  0  0  0  0  0  0  0  0  0  0
   18.1433  -12.8753   13.6048 C   0  0  0  0  0  0  0  0  0  0  0  0
   19.5600  -11.7455   13.4926 S   0  0  0  0  0  0  0  0  0  0  0  0
   14.4968   -8.2696   12.9448 C   0  0  0  0  0  0  0  0  0  0  0  0
   15.6459   -7.0272   13.6278 S   0  0  0  0  0  0  0  0  0  0  0  0
   16.1011   -8.0316   15.0372 C   0  0  0  0  0  0  0  0  0  0  0  0
   16.8566   -9.1471   14.8550 N   0  0  0  0  0  0  0  0  0  0  0  0
   17.2031   -9.9324   15.9057 C   0  0  0  0  0  0  0  0  0  0  0  0
   17.9813  -11.0753   15.7028 C   0  0  0  0  0  0  0  0  0  0  0  0
   18.3311  -11.8840   16.7886 C   0  0  0  0  0  0  0  0  0  0  0  0
   17.9037  -11.5523   18.0785 C   0  0  0  0  0  0  0  0  0  0  0  0
   17.1271  -10.4086   18.2894 C   0  0  0  0  0  0  0  0  0  0  0  0
   16.7759   -9.5936   17.2056 C   0  0  0  0  0  0  0  0  0  0  0  0
   16.0047   -8.4374   17.3686 C   0  0  0  0  0  0  0  0  0  0  0  0
   15.5593   -8.0512   18.6275 O   0  0  0  0  0  0  0  0  0  0  0  0
   15.6855   -7.6832   16.2840 N   0  0  0  0  0  0  0  0  0  0  0  0
   15.7757   -8.5666   19.3795 H   0  0  0  0  0  0  0  0  0  0  0  0
 17 18  1  0  0  0
 18 16  1  0  0  0
 16 15  1  0  0  0
 15  5  1  0  0  0
  5  1  1  0  0  0
  1  2  1  0  0  0
  2  3  2  0  0  0
  2 19  1  0  0  0
 19 20  1  0  0  0
 20 21  1  0  0  0
 21 22  2  0  0  0
 22 23  1  0  0  0
 23 24  2  0  0  0
 24 25  1  0  0  0
 25 26  2  0  0  0
 26 27  1  0  0  0
 27 28  2  0  0  0
 28 29  1  0  0  0
 29 30  1  0  0  0
 29 31  2  0  0  0
  5  6  1  0  0  0
  6  7  2  0  0  0
  7  8  1  0  0  0
  8  9  2  0  0  0
  9 10  1  0  0  0
 10 11  2  0  0  0
 11 12  1  0  0  0
 12 13  2  0  0  0
 13 14  1  0  0  0
 31 21  1  0  0  0
 14  6  1  0  0  0
 28 23  1  0  0  0
 14  9  1  0  0  0
  1  4  1  0  0  0
 30 32  1  0  0  0
M  END
>  <minimizedAffinity>
1.76527

>  <minimizedRMSD>
1.50125

$$$$
CSC026195597 9507484 CSSS00026195597 MCULE-5341103221 MolPort-004-093-507 PubChem-4791714 Z24898518 ZINC000009507484 ZINC09507484


 37 40  0  0  0  0  0  0  0  0999 V2000
   18.0594   -9.1364    9.5727 N   0  0  0  0  0  0  0  0  0  0  0  0
   18.9152   -8.2238    9.0136 C   0  0  0  0  0  0  0  0  0  0  0  0
   19.6542   -7.5098    9.7496 O   0  0  0  0  0  0  0  0  0  0  0  0
   18.9710   -8.0797    7.6208 C   0  0  0  0  0  0  0  0  0  0  0  0
   19.8211   -7.1505    7.0024 C   0  0  0  0  0  0  0  0  0  0  0  0
   19.8399   -7.0382    5.6085 C   0  0  0  0  0  0  0  0  0  0  0  0
   19.0121   -7.8521    4.8276 C   0  0  0  0  0  0  0  0  0  0  0  0
   18.1642   -8.7813    5.4376 C   0  0  0  0  0  0  0  0  0  0  0  0
   18.1405   -8.8963    6.8308 C   0  0  0  0  0  0  0  0  0  0  0  0
   17.3187   -9.7946    7.4229 N   0  0  0  0  0  0  0  0  0  0  0  0
   17.2651   -9.9204    8.7744 C   0  0  0  0  0  0  0  0  0  0  0  0
   18.0099   -9.2825   11.0275 C   0  0  0  0  0  0  0  0  0  0  0  0
   19.2118  -10.0795   11.5072 C   0  0  0  0  0  0  0  0  0  0  0  0
   18.3727  -11.7376   15.3791 C   0  0  0  0  0  0  0  0  0  0  0  0
   18.8538  -10.4282   15.2565 C   0  0  0  0  0  0  0  0  0  0  0  0
   19.1423   -9.8963   13.9958 C   0  0  0  0  0  0  0  0  0  0  0  0
   18.9529  -10.6730   12.8482 C   0  0  0  0  0  0  0  0  0  0  0  0
   18.4847  -11.9877   12.9646 C   0  0  0  0  0  0  0  0  0  0  0  0
   18.1976  -12.5197   14.2252 C   0  0  0  0  0  0  0  0  0  0  0  0
   18.1539  -11.4355   17.8252 C   0  0  0  0  0  0  0  0  0  0  0  0
   18.0720  -12.2329   16.6501 O   0  0  0  0  0  0  0  0  0  0  0  0
   16.1350  -11.1307    9.4724 S   0  0  0  0  0  0  0  0  0  0  0  0
   14.9391   -9.8482    9.9500 C   0  0  0  0  0  0  0  0  0  0  0  0
   14.5404  -10.0273   11.3719 C   0  0  0  0  0  0  0  0  0  0  0  0
   13.4346  -10.5637   11.6493 O   0  0  0  0  0  0  0  0  0  0  0  0
   15.4171   -9.5616   12.4013 N   0  0  0  0  0  0  0  0  0  0  0  0
   16.1762   -9.0007   12.1214 H   0  0  0  0  0  0  0  0  0  0  0  0
   15.2932   -9.8356   13.8033 C   0  0  0  0  0  0  0  0  0  0  0  0
   15.7528   -9.0097   14.8253 C   0  0  0  0  0  0  0  0  0  0  0  0
   15.5818   -9.5746   16.1008 C   0  0  0  0  0  0  0  0  0  0  0  0
   14.9981  -10.8408   16.0953 C   0  0  0  0  0  0  0  0  0  0  0  0
   14.7012  -11.2495   14.4900 S   0  0  0  0  0  0  0  0  0  0  0  0
   16.3746   -7.6856   14.6253 C   0  0  0  0  0  0  0  0  0  0  0  0
   17.3427   -7.2021   15.5526 N   0  0  0  0  0  0  0  0  0  0  0  0
   16.0527   -6.9661   13.6437 O   0  0  0  0  0  0  0  0  0  0  0  0
   17.6036   -7.7545   16.3247 H   0  0  0  0  0  0  0  0  0  0  0  0
   17.7505   -6.3157   15.4212 H   0  0  0  0  0  0  0  0  0  0  0  0
 20 21  1  0  0  0
 21 14  1  0  0  0
 14 15  2  0  0  0
 15 16  1  0  0  0
 16 17  2  0  0  0
 17 13  1  0  0  0
 17 18  1  0  0  0
 13 12  1  0  0  0
 12  1  1  0  0  0
  1  2  1  0  0  0
  2  3  2  0  0  0
  2  4  1  0  0  0
  4  5  2  0  0  0
  5  6  1  0  0  0
  6  7  2  0  0  0
  7  8  1  0  0  0
  8  9  2  0  0  0
  9 10  1  0  0  0
  9  4  1  0  0  0
 10 11  2  0  0  0
 11 22  1  0  0  0
 11  1  1  0  0  0
 22 23  1  0  0  0
 23 24  1  0  0  0
 24 25  2  0  0  0
 24 26  1  0  0  0
 26 28  1  0  0  0
 28 29  2  0  0  0
 29 30  1  0  0  0
 29 33  1  0  0  0
 30 31  2  0  0  0
 31 32  1  0  0  0
 32 28  1  0  0  0
 33 34  1  0  0  0
 33 35  2  0  0  0
 18 19  2  0  0  0
 19 14  1  0  0  0
 26 27  1  0  0  0
 34 36  1  0  0  0
 34 37  1  0  0  0
M  END
>  <minimizedAffinity>
1.82742

>  <minimizedRMSD>
2.12727

$$$$
157244151 CSSS00106485110 MCULE-7642529827 MolPort-044-580-359 PubChem-132294445 Z1252486022 ZINC000157244151


 29 32  0  0  0  0  0  0  0  0999 V2000
   18.7676   -9.1640   14.5429 C   0  0  0  0  0  0  0  0  0  0  0  0
   17.4902   -9.4190   13.8054 C   0  0  0  0  0  0  0  0  0  0  0  0
   17.5304   -9.7045   12.4266 C   0  0  0  0  0  0  0  0  0  0  0  0
   16.3340   -9.9400   11.7336 C   0  0  0  0  0  0  0  0  0  0  0  0
   15.1089   -9.8809   12.3945 C   0  0  0  0  0  0  0  0  0  0  0  0
   15.0675   -9.5940   13.7580 C   0  0  0  0  0  0  0  0  0  0  0  0
   16.2475   -9.3636   14.4731 C   0  0  0  0  0  0  0  0  0  0  0  0
   16.1324   -9.0020   16.1964 S   0  0  0  0  0  0  0  0  0  0  0  0
   16.1700   -7.5135   16.3924 O   0  0  0  0  0  0  0  0  0  0  0  0
   14.8346   -9.5296   16.7423 O   0  0  0  0  0  0  0  0  0  0  0  0
   17.4471   -9.7305   17.0573 N   0  0  0  0  0  0  0  0  0  0  0  0
   17.5282   -9.3128   17.9843 H   0  0  0  0  0  0  0  0  0  0  0  0
   17.1683  -11.1516   17.1788 C   0  0  0  0  0  0  0  0  0  0  0  0
   18.4113  -11.8609   17.6737 C   0  0  0  0  0  0  0  0  0  0  0  0
   18.0462  -11.9118   16.2072 C   0  0  0  0  0  0  0  0  0  0  0  0
   18.7887   -9.7608   11.7414 N   0  0  0  0  0  0  0  0  0  0  0  0
   19.5490   -9.2682   12.1268 H   0  0  0  0  0  0  0  0  0  0  0  0
   19.0073  -10.5052   10.5073 C   0  0  0  0  0  0  0  0  0  0  0  0
   18.6828   -9.6524    9.3282 C   0  0  0  0  0  0  0  0  0  0  0  0
   17.3536   -9.4016    8.9948 C   0  0  0  0  0  0  0  0  0  0  0  0
   17.0771   -8.5790    7.9029 C   0  0  0  0  0  0  0  0  0  0  0  0
   15.8728   -8.3527    7.5982 O   0  0  0  0  0  0  0  0  0  0  0  0
   18.1014   -8.0235    7.1844 N   0  0  0  0  0  0  0  0  0  0  0  0
   17.8296   -7.2095    6.1211 C   0  0  0  0  0  0  0  0  0  0  0  0
   18.8625   -6.6425    5.3726 C   0  0  0  0  0  0  0  0  0  0  0  0
   20.1862   -6.9104    5.7200 C   0  0  0  0  0  0  0  0  0  0  0  0
   20.4625   -7.7365    6.8086 C   0  0  0  0  0  0  0  0  0  0  0  0
   19.4070   -8.2907    7.5363 C   0  0  0  0  0  0  0  0  0  0  0  0
   19.6800   -9.0920    8.5993 N   0  0  0  0  0  0  0  0  0  0  0  0
  1  2  1  0  0  0
  2  3  2  0  0  0
  3  4  1  0  0  0
  4  5  2  0  0  0
  5  6  1  0  0  0
  6  7  2  0  0  0
  7  8  1  0  0  0
  8  9  2  0  0  0
  8 10  2  0  0  0
  8 11  1  0  0  0
 11 13  1  0  0  0
 13 14  1  0  0  0
 14 15  1  0  0  0
  3 16  1  0  0  0
 16 18  1  0  0  0
 18 19  1  0  0  0
 19 20  2  0  0  0
 20 21  1  0  0  0
 21 22  2  0  0  0
 21 23  1  0  0  0
 23 24  1  0  0  0
 24 25  2  0  0  0
 25 26  1  0  0  0
 26 27  2  0  0  0
 27 28  1  0  0  0
 28 29  2  0  0  0
  7  2  1  0  0  0
 15 13  1  0  0  0
 29 19  1  0  0  0
 28 23  1  0  0  0
 11 12  1  0  0  0
 16 17  1  0  0  0
M  END
>  <minimizedAffinity>
1.89373

>  <minimizedRMSD>
2.20247

$$$$
CSC026217572 12549063 CSSS00026217572 GSQPAJAWAUCTHD-UHFFFAOYSA-N MCULE-6625986689 MolPort-005-597-716 PubChem-17467637 Z102448822 ZINC000012549063 ZINC12549063


 27 29  0  0  0  0  0  0  0  0999 V2000
   16.1753   -9.5925   12.7974 C   0  0  0  0  0  0  0  0  0  0  0  0
   14.9635   -9.6911   12.4636 O   0  0  0  0  0  0  0  0  0  0  0  0
   17.1519   -9.2025   11.8302 N   0  0  0  0  0  0  0  0  0  0  0  0
   18.0941   -9.1314   12.1064 H   0  0  0  0  0  0  0  0  0  0  0  0
   17.4829  -10.7860   16.0051 C   0  0  0  0  0  0  0  0  0  0  0  0
   16.6868   -9.6936   16.3306 C   0  0  0  0  0  0  0  0  0  0  0  0
   16.4390   -9.1505   17.6957 C   0  0  0  0  0  0  0  0  0  0  0  0
   16.1332   -9.1468   15.2310 N   0  0  0  0  0  0  0  0  0  0  0  0
   16.5681   -9.8826   14.1883 C   0  0  0  0  0  0  0  0  0  0  0  0
   17.4019  -10.9016   14.6262 C   0  0  0  0  0  0  0  0  0  0  0  0
   18.0826  -11.9264   13.7794 C   0  0  0  0  0  0  0  0  0  0  0  0
   15.5325   -8.3676   15.1958 H   0  0  0  0  0  0  0  0  0  0  0  0
   18.3866  -11.3453   18.3728 C   0  0  0  0  0  0  0  0  0  0  0  0
   18.2606  -11.6547   16.9213 C   0  0  0  0  0  0  0  0  0  0  0  0
   18.8359  -12.6840   16.4799 O   0  0  0  0  0  0  0  0  0  0  0  0
   16.7989   -8.9076   10.4522 C   0  0  0  0  0  0  0  0  0  0  0  0
   17.5851   -9.8118    9.5280 C   0  0  0  0  0  0  0  0  0  0  0  0
   16.9831   -9.7583    8.1363 C   0  0  0  0  0  0  0  0  0  0  0  0
   18.0014   -9.3983    7.1606 N   0  0  0  0  0  0  0  0  0  0  0  0
   18.6605  -10.2482    6.3373 C   0  0  0  0  0  0  0  0  0  0  0  0
   19.5316   -9.6011    5.5159 N   0  0  0  0  0  0  0  0  0  0  0  0
   19.3848   -8.3070    5.8560 C   0  0  0  0  0  0  0  0  0  0  0  0
   20.0406   -7.2049    5.3131 C   0  0  0  0  0  0  0  0  0  0  0  0
   19.7101   -5.9369    5.8283 C   0  0  0  0  0  0  0  0  0  0  0  0
   18.7467   -5.8059    6.8544 C   0  0  0  0  0  0  0  0  0  0  0  0
   18.1020   -6.9410    7.3798 C   0  0  0  0  0  0  0  0  0  0  0  0
   18.4590   -8.1790    6.8465 C   0  0  0  0  0  0  0  0  0  0  0  0
 13 14  1  0  0  0
 14 15  2  0  0  0
 14  5  1  0  0  0
  5  6  2  0  0  0
  6  7  1  0  0  0
  6  8  1  0  0  0
  8  9  1  0  0  0
  9  1  1  0  0  0
  9 10  2  0  0  0
  1  2  2  0  0  0
  1  3  1  0  0  0
  3 16  1  0  0  0
 16 17  1  0  0  0
 17 18  1  0  0  0
 18 19  1  0  0  0
 19 20  1  0  0  0
 20 21  2  0  0  0
 21 22  1  0  0  0
 22 23  2  0  0  0
 23 24  1  0  0  0
 24 25  2  0  0  0
 25 26  1  0  0  0
 26 27  2  0  0  0
 27 19  1  0  0  0
 27 22  1  0  0  0
 10 11  1  0  0  0
 10  5  1  0  0  0
  8 12  1  0  0  0
  3  4  1  0  0  0
M  END
>  <minimizedAffinity>
1.89855

>  <minimizedRMSD>
3.09050

$$$$
CSC027087496 16133325 CSSS00027087496 MCULE-4887294303 MolPort-009-409-262 PubChem-45859417 Z166138258 ZINC000016133325


 34 38  0  0  0  0  0  0  0  0999 V2000
   16.8602   -9.4228    9.7830 N   0  0  0  0  0  0  0  0  0  0  0  0
   16.8077   -8.7043    8.6147 C   0  0  0  0  0  0  0  0  0  0  0  0
   15.6959   -8.4604    8.0649 O   0  0  0  0  0  0  0  0  0  0  0  0
   17.9889   -8.2279    8.0304 C   0  0  0  0  0  0  0  0  0  0  0  0
   19.2104   -8.5049    8.6688 C   0  0  0  0  0  0  0  0  0  0  0  0
   20.4098   -8.0440    8.1179 C   0  0  0  0  0  0  0  0  0  0  0  0
   20.3957   -7.3057    6.9307 C   0  0  0  0  0  0  0  0  0  0  0  0
   19.1834   -7.0266    6.2927 C   0  0  0  0  0  0  0  0  0  0  0  0
   17.9815   -7.4858    6.8399 C   0  0  0  0  0  0  0  0  0  0  0  0
   19.2221   -9.2202    9.8181 N   0  0  0  0  0  0  0  0  0  0  0  0
   18.0734   -9.6843   10.3750 C   0  0  0  0  0  0  0  0  0  0  0  0
   12.1090  -11.2729   12.0937 F   0  0  0  0  0  0  0  0  0  0  0  0
   13.2587  -10.8256   11.5349 C   0  0  0  0  0  0  0  0  0  0  0  0
   14.2879  -10.3420   12.3477 C   0  0  0  0  0  0  0  0  0  0  0  0
   15.4746   -9.8798   11.7717 C   0  0  0  0  0  0  0  0  0  0  0  0
   15.6392   -9.9022   10.3787 C   0  0  0  0  0  0  0  0  0  0  0  0
   14.6011  -10.3840    9.5683 C   0  0  0  0  0  0  0  0  0  0  0  0
   13.4146  -10.8454   10.1459 C   0  0  0  0  0  0  0  0  0  0  0  0
   18.1742  -10.4673   11.6451 C   0  0  0  0  0  0  0  0  0  0  0  0
   18.3610   -9.5774   12.7353 O   0  0  0  0  0  0  0  0  0  0  0  0
   18.6997  -10.0319   14.0113 C   0  0  0  0  0  0  0  0  0  0  0  0
   19.5747  -10.9302   14.1555 O   0  0  0  0  0  0  0  0  0  0  0  0
   18.0224   -9.4655   15.1881 C   0  0  0  0  0  0  0  0  0  0  0  0
   16.6497   -9.1837   15.1383 C   0  0  0  0  0  0  0  0  0  0  0  0
   15.9998   -8.6430   16.2506 C   0  0  0  0  0  0  0  0  0  0  0  0
   16.7200   -8.3955   17.4282 C   0  0  0  0  0  0  0  0  0  0  0  0
   16.0355   -7.8970   18.5767 N   0  0  0  0  0  0  0  0  0  0  0  0
   14.6490   -7.5625   18.4916 C   0  0  0  0  0  0  0  0  0  0  0  0
   13.9626   -7.5416   17.1570 C   0  0  0  0  0  0  0  0  0  0  0  0
   14.6273   -8.3729   16.1996 O   0  0  0  0  0  0  0  0  0  0  0  0
   14.0202   -7.2227   19.5266 O   0  0  0  0  0  0  0  0  0  0  0  0
   18.0867   -8.6779   17.4868 C   0  0  0  0  0  0  0  0  0  0  0  0
   18.7368   -9.2069   16.3679 C   0  0  0  0  0  0  0  0  0  0  0  0
   16.5183   -7.7836   19.4272 H   0  0  0  0  0  0  0  0  0  0  0  0
 12 13  1  0  0  0
 13 14  2  0  0  0
 14 15  1  0  0  0
 15 16  2  0  0  0
 16  1  1  0  0  0
  1  2  1  0  0  0
  2  3  2  0  0  0
  2  4  1  0  0  0
  4  5  2  0  0  0
  5  6  1  0  0  0
  6  7  2  0  0  0
  7  8  1  0  0  0
  8  9  2  0  0  0
  5 10  1  0  0  0
 10 11  2  0  0  0
 11 19  1  0  0  0
 19 20  1  0  0  0
 20 21  1  0  0  0
 21 23  1  0  0  0
 23 24  2  0  0  0
 24 25  1  0  0  0
 25 26  2  0  0  0
 26 27  1  0  0  0
 27 28  1  0  0  0
 28 29  1  0  0  0
 29 30  1  0  0  0
 28 31  2  0  0  0
 26 32  1  0  0  0
 32 33  2  0  0  0
 21 22  2  0  0  0
 16 17  1  0  0  0
 17 18  2  0  0  0
 18 13  1  0  0  0
 11  1  1  0  0  0
 33 23  1  0  0  0
  9  4  1  0  0  0
 30 25  1  0  0  0
 27 34  1  0  0  0
M  END
>  <minimizedAffinity>
1.91323

>  <minimizedRMSD>
1.65656

$$$$
23137725 CSSS03437115226 MCULE-9828139049 MolPort-009-733-916 PubChem-30860943 ZINC000023137725


 36 39  0  0  0  0  0  0  0  0999 V2000
   18.8899   -8.2604    5.2005 C   0  0  0  0  0  0  0  0  0  0  0  0
   19.9246   -7.4632    4.7112 C   0  0  0  0  0  0  0  0  0  0  0  0
   20.5499   -6.6399    5.5992 N   0  0  0  0  0  0  0  0  0  0  0  0
   20.2020   -6.5981    6.8938 N   0  0  0  0  0  0  0  0  0  0  0  0
   19.1944   -7.3673    7.4020 C   0  0  0  0  0  0  0  0  0  0  0  0
   18.5091   -8.2043    6.5081 C   0  0  0  0  0  0  0  0  0  0  0  0
   17.5117   -9.0961    6.6969 N   0  0  0  0  0  0  0  0  0  0  0  0
   17.2736   -9.7101    5.5430 N   0  0  0  0  0  0  0  0  0  0  0  0
   18.1038   -9.2191    4.5927 C   0  0  0  0  0  0  0  0  0  0  0  0
   16.7618   -9.3813    7.8821 C   0  0  0  0  0  0  0  0  0  0  0  0
   16.7604  -10.6794    8.4073 C   0  0  0  0  0  0  0  0  0  0  0  0
   15.9829  -10.9848    9.5281 C   0  0  0  0  0  0  0  0  0  0  0  0
   15.1942   -9.9962   10.1236 C   0  0  0  0  0  0  0  0  0  0  0  0
   15.1644   -8.7076    9.5825 C   0  0  0  0  0  0  0  0  0  0  0  0
   15.9388   -8.4022    8.4589 C   0  0  0  0  0  0  0  0  0  0  0  0
   14.4392  -10.2956   11.2092 F   0  0  0  0  0  0  0  0  0  0  0  0
   20.3727   -7.4822    3.2803 C   0  0  0  0  0  0  0  0  0  0  0  0
   20.6363   -8.8982    2.8016 C   0  0  0  0  0  0  0  0  0  0  0  0
   19.3657   -6.7955    2.3763 C   0  0  0  0  0  0  0  0  0  0  0  0
   18.8559   -7.2904    9.1590 S   0  0  0  0  0  0  0  0  0  0  0  0
   19.1532   -9.0688    9.3831 C   0  0  0  0  0  0  0  0  0  0  0  0
   19.2375   -9.3833   10.8347 C   0  0  0  0  0  0  0  0  0  0  0  0
   20.0115   -8.7190   11.5749 O   0  0  0  0  0  0  0  0  0  0  0  0
   18.4451  -10.4533   11.3611 N   0  0  0  0  0  0  0  0  0  0  0  0
   18.0187  -11.0549   10.7088 H   0  0  0  0  0  0  0  0  0  0  0  0
   18.2142  -10.7310   12.7476 C   0  0  0  0  0  0  0  0  0  0  0  0
   18.9277  -11.7687   13.3565 C   0  0  0  0  0  0  0  0  0  0  0  0
   18.6949  -12.0932   14.6953 C   0  0  0  0  0  0  0  0  0  0  0  0
   17.7394  -11.3857   15.4307 C   0  0  0  0  0  0  0  0  0  0  0  0
   17.0104  -10.3527   14.8343 C   0  0  0  0  0  0  0  0  0  0  0  0
   17.2494  -10.0335   13.4894 C   0  0  0  0  0  0  0  0  0  0  0  0
   16.0261   -9.6601   15.6147 N   0  0  0  0  0  0  0  0  0  0  0  0
   15.9856   -8.2535   15.8876 C   0  0  0  0  0  0  0  0  0  0  0  0
   14.8565   -7.6994   16.6767 C   0  0  0  0  0  0  0  0  0  0  0  0
   16.8863   -7.4787   15.4684 O   0  0  0  0  0  0  0  0  0  0  0  0
   15.3047  -10.2066   16.0023 H   0  0  0  0  0  0  0  0  0  0  0  0
  1  2  2  0  0  0
  2 17  1  0  0  0
 17 18  1  0  0  0
 17 19  1  0  0  0
  2  3  1  0  0  0
  3  4  2  0  0  0
  4  5  1  0  0  0
  5 20  1  0  0  0
 20 21  1  0  0  0
 21 22  1  0  0  0
 22 23  2  0  0  0
 22 24  1  0  0  0
 24 26  1  0  0  0
 26 27  2  0  0  0
 27 28  1  0  0  0
 28 29  2  0  0  0
 29 30  1  0  0  0
 30 31  2  0  0  0
 30 32  1  0  0  0
 32 33  1  0  0  0
 33 34  1  0  0  0
 33 35  2  0  0  0
  5  6  2  0  0  0
  6  7  1  0  0  0
  7  8  1  0  0  0
  8  9  2  0  0  0
  7 10  1  0  0  0
 10 11  2  0  0  0
 11 12  1  0  0  0
 12 13  2  0  0  0
 13 14  1  0  0  0
 14 15  2  0  0  0
 13 16  1  0  0  0
  6  1  1  0  0  0
 15 10  1  0  0  0
  9  1  1  0  0  0
 31 26  1  0  0  0
 24 25  1  0  0  0
 32 36  1  0  0  0
M  END
>  <minimizedAffinity>
1.92920

>  <minimizedRMSD>
2.61193

$$$$
71748611 CSSS00159803869 MCULE-6568369343 MolPort-020-208-076 PubChem-56870844 ZINC000071748611


 27 30  0  0  0  0  0  0  0  0999 V2000
   16.7464   -9.4572   11.2601 N   0  0  0  0  0  0  0  0  0  0  0  0
   17.7485  -10.1853   12.0349 C   0  0  0  0  0  0  0  0  0  0  0  0
   18.1403   -9.3874   13.2783 C   0  0  0  0  0  0  0  0  0  0  0  0
   16.9084   -8.9562   14.0813 C   0  0  0  0  0  0  0  0  0  0  0  0
   15.9264   -8.1926   13.1915 C   0  0  0  0  0  0  0  0  0  0  0  0
   15.5447   -9.0068   11.9563 C   0  0  0  0  0  0  0  0  0  0  0  0
   17.5466   -9.1600    8.9287 C   0  0  0  0  0  0  0  0  0  0  0  0
   18.5699   -8.2113    9.1271 C   0  0  0  0  0  0  0  0  0  0  0  0
   18.8928   -7.5565   10.4283 C   0  0  0  0  0  0  0  0  0  0  0  0
   19.2295   -7.8870    7.9382 C   0  0  0  0  0  0  0  0  0  0  0  0
   18.5514   -8.7404    6.6477 S   0  0  0  0  0  0  0  0  0  0  0  0
   17.4197   -9.5292    7.6004 C   0  0  0  0  0  0  0  0  0  0  0  0
   16.4669  -10.3891    7.1710 N   0  0  0  0  0  0  0  0  0  0  0  0
   15.6017  -10.9175    8.0789 C   0  0  0  0  0  0  0  0  0  0  0  0
   15.7006  -10.5881    9.3998 N   0  0  0  0  0  0  0  0  0  0  0  0
   16.6564   -9.7271    9.8581 C   0  0  0  0  0  0  0  0  0  0  0  0
   20.3449   -6.9099    7.7984 C   0  0  0  0  0  0  0  0  0  0  0  0
   16.2240  -10.1392   14.7614 C   0  0  0  0  0  0  0  0  0  0  0  0
   17.0607  -10.6746   15.8782 C   0  0  0  0  0  0  0  0  0  0  0  0
   17.1966  -10.0682   17.0763 N   0  0  0  0  0  0  0  0  0  0  0  0
   18.0027  -10.8273   17.8079 N   0  0  0  0  0  0  0  0  0  0  0  0
   18.3357  -11.8791   17.0381 C   0  0  0  0  0  0  0  0  0  0  0  0
   19.1013  -12.8055   17.4147 O   0  0  0  0  0  0  0  0  0  0  0  0
   17.7595  -11.8228   15.8268 N   0  0  0  0  0  0  0  0  0  0  0  0
   18.2984  -10.6549   18.7310 H   0  0  0  0  0  0  0  0  0  0  0  0
   17.9057  -12.7483   14.7116 C   0  0  0  0  0  0  0  0  0  0  0  0
   19.0613  -12.3190   13.8282 C   0  0  0  0  0  0  0  0  0  0  0  0
  7  8  1  0  0  0
  8  9  1  0  0  0
  8 10  2  0  0  0
 10 11  1  0  0  0
 11 12  1  0  0  0
 12 13  1  0  0  0
 13 14  2  0  0  0
 14 15  1  0  0  0
 15 16  2  0  0  0
 16  1  1  0  0  0
  1  2  1  0  0  0
  2  3  1  0  0  0
  3  4  1  0  0  0
  4  5  1  0  0  0
  5  6  1  0  0  0
  4 18  1  0  0  0
 18 19  1  0  0  0
 19 20  2  0  0  0
 20 21  1  0  0  0
 21 22  1  0  0  0
 22 23  2  0  0  0
 22 24  1  0  0  0
 24 26  1  0  0  0
 26 27  1  0  0  0
 10 17  1  0  0  0
 12  7  2  0  0  0
  6  1  1  0  0  0
 24 19  1  0  0  0
 16  7  1  0  0  0
 21 25  1  0  0  0
M  END
>  <minimizedAffinity>
1.99737

>  <minimizedRMSD>
2.10713

$$$$
CSC025858695 9165977 CSSS00025858695 MCULE-5817629955 MolPort-004-122-219 PubChem-16254328 Z15752293 ZINC000009165977


 36 40  0  0  0  0  0  0  0  0999 V2000
   17.2786  -10.1649   15.2127 C   0  0  0  0  0  0  0  0  0  0  0  0
   16.8765   -9.9294   16.5531 C   0  0  0  0  0  0  0  0  0  0  0  0
   17.2970  -10.8193   17.5548 C   0  0  0  0  0  0  0  0  0  0  0  0
   18.0956  -11.9217   17.2501 C   0  0  0  0  0  0  0  0  0  0  0  0
   18.4875  -12.1528   15.9336 C   0  0  0  0  0  0  0  0  0  0  0  0
   18.0810  -11.2806   14.9243 C   0  0  0  0  0  0  0  0  0  0  0  0
   17.1847   -9.3707   12.7681 C   0  0  0  0  0  0  0  0  0  0  0  0
   16.8646   -9.2755   14.1626 N   0  0  0  0  0  0  0  0  0  0  0  0
   17.9455  -10.2742   12.3313 O   0  0  0  0  0  0  0  0  0  0  0  0
   16.2981   -8.5162   14.4304 H   0  0  0  0  0  0  0  0  0  0  0  0
   16.6111   -8.3806   11.8137 C   0  0  0  0  0  0  0  0  0  0  0  0
   15.2246   -9.1086   10.8823 S   0  0  0  0  0  0  0  0  0  0  0  0
   16.7512  -12.9988    7.8288 C   0  0  0  0  0  0  0  0  0  0  0  0
   16.9261  -11.5751    8.2166 C   0  0  0  0  0  0  0  0  0  0  0  0
   17.8629  -10.8135    7.5944 N   0  0  0  0  0  0  0  0  0  0  0  0
   18.0390   -9.5111    7.9344 C   0  0  0  0  0  0  0  0  0  0  0  0
   17.2437   -8.9339    8.9467 C   0  0  0  0  0  0  0  0  0  0  0  0
   17.4316   -7.5885    9.2926 C   0  0  0  0  0  0  0  0  0  0  0  0
   18.4020   -6.8253    8.6366 C   0  0  0  0  0  0  0  0  0  0  0  0
   19.1884   -7.4010    7.6339 C   0  0  0  0  0  0  0  0  0  0  0  0
   19.0075   -8.7422    7.2827 C   0  0  0  0  0  0  0  0  0  0  0  0
   16.2856   -9.7422    9.5771 C   0  0  0  0  0  0  0  0  0  0  0  0
   16.1491  -11.0395    9.1941 N   0  0  0  0  0  0  0  0  0  0  0  0
   16.0240   -8.7810   16.9530 C   0  0  0  0  0  0  0  0  0  0  0  0
   15.4649   -8.7468   18.2761 N   0  0  0  0  0  0  0  0  0  0  0  0
   15.7896   -7.8439   16.1434 O   0  0  0  0  0  0  0  0  0  0  0  0
   15.6852   -9.5038   18.8657 H   0  0  0  0  0  0  0  0  0  0  0  0
   14.6204   -7.7287   18.8305 C   0  0  0  0  0  0  0  0  0  0  0  0
   13.5711   -7.1447   18.0874 C   0  0  0  0  0  0  0  0  0  0  0  0
   12.8015   -6.1641   18.7069 C   0  0  0  0  0  0  0  0  0  0  0  0
   13.0336   -5.7662   19.9829 C   0  0  0  0  0  0  0  0  0  0  0  0
   12.1237   -4.7884   20.3324 O   0  0  0  0  0  0  0  0  0  0  0  0
   11.2658   -4.5571   19.2059 C   0  0  0  0  0  0  0  0  0  0  0  0
   11.7343   -5.4565   18.1910 O   0  0  0  0  0  0  0  0  0  0  0  0
   14.0554   -6.3131   20.7529 C   0  0  0  0  0  0  0  0  0  0  0  0
   14.8540   -7.3074   20.1592 C   0  0  0  0  0  0  0  0  0  0  0  0
 13 14  1  0  0  0
 14 15  2  0  0  0
 15 16  1  0  0  0
 16 17  2  0  0  0
 17 18  1  0  0  0
 18 19  2  0  0  0
 19 20  1  0  0  0
 20 21  2  0  0  0
 17 22  1  0  0  0
 22 12  1  0  0  0
 12 11  1  0  0  0
 11  7  1  0  0  0
  7  8  1  0  0  0
  8  1  1  0  0  0
  1  2  1  0  0  0
  2 24  1  0  0  0
 24 25  1  0  0  0
 25 28  1  0  0  0
 28 29  2  0  0  0
 29 30  1  0  0  0
 30 31  2  0  0  0
 31 32  1  0  0  0
 32 33  1  0  0  0
 33 34  1  0  0  0
 31 35  1  0  0  0
 35 36  2  0  0  0
 24 26  2  0  0  0
  2  3  2  0  0  0
  3  4  1  0  0  0
  4  5  2  0  0  0
  5  6  1  0  0  0
  7  9  2  0  0  0
 22 23  2  0  0  0
 23 14  1  0  0  0
 21 16  1  0  0  0
  6  1  2  0  0  0
 36 28  1  0  0  0
 34 30  1  0  0  0
  8 10  1  0  0  0
 25 27  1  0  0  0
M  END
>  <minimizedAffinity>
2.01248

>  <minimizedRMSD>
1.58961

$$$$
CSC025855290 9612451 CSSS00025855290 MCULE-5109063900 MolPort-004-270-214 PubChem-3432547 Z15682769 ZINC000009612451 ZINC09612451


 30 32  0  0  0  0  0  0  0  0999 V2000
   18.0781  -11.5732   13.7310 N   0  0  0  0  0  0  0  0  0  0  0  0
   18.7982  -10.7712   12.7864 C   0  0  0  0  0  0  0  0  0  0  0  0
   19.2316   -9.6293   13.0933 O   0  0  0  0  0  0  0  0  0  0  0  0
   17.7898  -12.4635   13.4250 H   0  0  0  0  0  0  0  0  0  0  0  0
   16.6120   -9.7777   16.6866 C   0  0  0  0  0  0  0  0  0  0  0  0
   17.0913  -10.5755   17.7302 C   0  0  0  0  0  0  0  0  0  0  0  0
   17.8907  -11.6870   17.4509 C   0  0  0  0  0  0  0  0  0  0  0  0
   18.2101  -12.0034   16.1272 C   0  0  0  0  0  0  0  0  0  0  0  0
   17.7341  -11.2132   15.0754 C   0  0  0  0  0  0  0  0  0  0  0  0
   16.9309  -10.0994   15.3633 C   0  0  0  0  0  0  0  0  0  0  0  0
   15.9568   -7.7872   18.6137 N   0  0  0  0  0  0  0  0  0  0  0  0
   15.5985   -8.3893   17.0342 S   0  0  0  0  0  0  0  0  0  0  0  0
   14.1529   -8.7919   16.9665 O   0  0  0  0  0  0  0  0  0  0  0  0
   15.8648   -7.3035   16.0298 O   0  0  0  0  0  0  0  0  0  0  0  0
   15.3655   -6.9800   18.8121 H   0  0  0  0  0  0  0  0  0  0  0  0
   16.9372   -7.5093   18.6574 H   0  0  0  0  0  0  0  0  0  0  0  0
   19.0093  -11.2864   11.4043 C   0  0  0  0  0  0  0  0  0  0  0  0
   19.0101  -10.2107   10.4729 O   0  0  0  0  0  0  0  0  0  0  0  0
   17.8435   -9.7421    9.8572 C   0  0  0  0  0  0  0  0  0  0  0  0
   17.9279   -8.9167    8.7299 C   0  0  0  0  0  0  0  0  0  0  0  0
   19.1627   -8.5369    8.1907 C   0  0  0  0  0  0  0  0  0  0  0  0
   19.2100   -7.7101    7.0658 C   0  0  0  0  0  0  0  0  0  0  0  0
   20.7550   -7.2372    6.3942 Cl  0  0  0  0  0  0  0  0  0  0  0  0
   18.0257   -7.2595    6.4760 C   0  0  0  0  0  0  0  0  0  0  0  0
   16.7858   -7.6315    7.0052 C   0  0  0  0  0  0  0  0  0  0  0  0
   15.3224   -7.0430    6.2336 Cl  0  0  0  0  0  0  0  0  0  0  0  0
   16.7306   -8.4627    8.1360 C   0  0  0  0  0  0  0  0  0  0  0  0
   15.5356   -8.8353    8.6664 N   0  0  0  0  0  0  0  0  0  0  0  0
   15.4758   -9.6388    9.7597 C   0  0  0  0  0  0  0  0  0  0  0  0
   16.6185  -10.0846   10.3437 N   0  0  0  0  0  0  0  0  0  0  0  0
 11 12  1  0  0  0
 12 13  2  0  0  0
 12 14  2  0  0  0
 12  5  1  0  0  0
  5  6  2  0  0  0
  6  7  1  0  0  0
  7  8  2  0  0  0
  8  9  1  0  0  0
  9  1  1  0  0  0
  9 10  2  0  0  0
  1  2  1  0  0  0
  2  3  2  0  0  0
  2 17  1  0  0  0
 17 18  1  0  0  0
 18 19  1  0  0  0
 19 20  1  0  0  0
 20 21  2  0  0  0
 21 22  1  0  0  0
 22 23  1  0  0  0
 22 24  2  0  0  0
 24 25  1  0  0  0
 25 26  1  0  0  0
 25 27  2  0  0  0
 27 28  1  0  0  0
 27 20  1  0  0  0
 28 29  2  0  0  0
 29 30  1  0  0  0
 30 19  2  0  0  0
 10  5  1  0  0  0
 11 15  1  0  0  0
 11 16  1  0  0  0
  1  4  1  0  0  0
M  END
>  <minimizedAffinity>
2.04725

>  <minimizedRMSD>
1.63033

$$$$
CSSS00160527014 PubChem-154793709 Z3409369437


 29 31  0  0  0  0  0  0  0  0999 V2000
   14.7432   -9.7273   11.3637 N   0  0  0  0  0  0  0  0  0  0  0  0
   13.8160   -9.5405   11.0907 H   0  0  0  0  0  0  0  0  0  0  0  0
   15.1038   -9.5054   12.7296 C   0  0  0  0  0  0  0  0  0  0  0  0
   15.7993   -8.3429   13.0699 C   0  0  0  0  0  0  0  0  0  0  0  0
   16.1662   -8.1043   14.3971 C   0  0  0  0  0  0  0  0  0  0  0  0
   15.8390   -9.0224   15.4091 C   0  0  0  0  0  0  0  0  0  0  0  0
   15.1457  -10.1924   15.0563 C   0  0  0  0  0  0  0  0  0  0  0  0
   14.7789  -10.4308   13.7299 C   0  0  0  0  0  0  0  0  0  0  0  0
   16.2323   -8.7937   16.7809 N   0  0  0  0  0  0  0  0  0  0  0  0
   17.5246   -9.2919   17.2394 C   0  0  0  0  0  0  0  0  0  0  0  0
   15.3989   -8.0980   17.7294 C   0  0  0  0  0  0  0  0  0  0  0  0
   14.1859   -7.8683   17.4693 O   0  0  0  0  0  0  0  0  0  0  0  0
   15.9405   -7.6862   18.9880 N   0  0  0  0  0  0  0  0  0  0  0  0
   15.1407   -6.9918   19.9828 C   0  0  0  0  0  0  0  0  0  0  0  0
   16.8853   -7.8794   19.1863 H   0  0  0  0  0  0  0  0  0  0  0  0
   15.8502  -10.3072   10.1629 S   0  0  0  0  0  0  0  0  0  0  0  0
   15.8186  -11.8098   10.1546 O   0  0  0  0  0  0  0  0  0  0  0  0
   15.4088   -9.8220    8.8108 O   0  0  0  0  0  0  0  0  0  0  0  0
   17.4102   -8.3684    8.3173 C   0  0  0  0  0  0  0  0  0  0  0  0
   18.0856   -8.7830    9.5812 C   0  0  0  0  0  0  0  0  0  0  0  0
   17.4753   -9.6666   10.5019 C   0  0  0  0  0  0  0  0  0  0  0  0
   18.1676   -9.9959   11.6912 C   0  0  0  0  0  0  0  0  0  0  0  0
   19.4505   -9.4511   11.9322 C   0  0  0  0  0  0  0  0  0  0  0  0
   20.1269   -9.7769   13.1081 C   0  0  0  0  0  0  0  0  0  0  0  0
   19.5341  -10.6329   14.0357 C   0  0  0  0  0  0  0  0  0  0  0  0
   18.2661  -11.1527   13.7721 C   0  0  0  0  0  0  0  0  0  0  0  0
   17.6189  -10.8272   12.6211 N   0  0  0  0  0  0  0  0  0  0  0  0
   20.0361   -8.5904   11.0076 C   0  0  0  0  0  0  0  0  0  0  0  0
   19.3544   -8.2584    9.8393 C   0  0  0  0  0  0  0  0  0  0  0  0
 19 20  1  0  0  0
 20 21  2  0  0  0
 21 22  1  0  0  0
 22 23  2  0  0  0
 23 24  1  0  0  0
 24 25  2  0  0  0
 25 26  1  0  0  0
 26 27  2  0  0  0
 23 28  1  0  0  0
 28 29  2  0  0  0
 21 16  1  0  0  0
 16 17  2  0  0  0
 16 18  2  0  0  0
 16  1  1  0  0  0
  1  3  1  0  0  0
  3  4  2  0  0  0
  4  5  1  0  0  0
  5  6  2  0  0  0
  6  7  1  0  0  0
  7  8  2  0  0  0
  6  9  1  0  0  0
  9 10  1  0  0  0
  9 11  1  0  0  0
 11 12  2  0  0  0
 11 13  1  0  0  0
 13 14  1  0  0  0
 29 20  1  0  0  0
 27 22  1  0  0  0
  8  3  1  0  0  0
  1  2  1  0  0  0
 13 15  1  0  0  0
M  END
>  <minimizedAffinity>
2.11026

>  <minimizedRMSD>
3.44842

$$$$
CSSS00160579202 MCULE-6428357558 MolPort-005-110-332 PubChem-45225541


 37 40  0  0  0  0  0  0  0  0999 V2000
   15.4881   -8.5433   16.9434 C   0  0  0  0  0  0  0  0  0  0  0  0
   16.0722   -9.7822   17.2369 C   0  0  0  0  0  0  0  0  0  0  0  0
   16.3673  -10.6677   16.2494 N   0  0  0  0  0  0  0  0  0  0  0  0
   16.1030  -10.3824   14.9496 C   0  0  0  0  0  0  0  0  0  0  0  0
   15.5278   -9.1625   14.5789 C   0  0  0  0  0  0  0  0  0  0  0  0
   15.2153   -8.2289   15.5920 C   0  0  0  0  0  0  0  0  0  0  0  0
   14.6969   -7.1191   15.2913 O   0  0  0  0  0  0  0  0  0  0  0  0
   15.7486   -6.7707   20.3740 C   0  0  0  0  0  0  0  0  0  0  0  0
   15.9958   -7.6518   19.2447 N   0  0  0  0  0  0  0  0  0  0  0  0
   15.1900   -7.6174   18.0638 C   0  0  0  0  0  0  0  0  0  0  0  0
   14.2299   -6.8030   17.9887 O   0  0  0  0  0  0  0  0  0  0  0  0
   16.7417   -8.2925   19.2944 H   0  0  0  0  0  0  0  0  0  0  0  0
   15.2909   -8.9082   13.1380 C   0  0  0  0  0  0  0  0  0  0  0  0
   15.3905   -7.7440   12.6625 O   0  0  0  0  0  0  0  0  0  0  0  0
   14.9466   -9.9991   12.2760 N   0  0  0  0  0  0  0  0  0  0  0  0
   14.8207  -10.8904   12.6749 H   0  0  0  0  0  0  0  0  0  0  0  0
   14.7740   -9.8521   10.8385 C   0  0  0  0  0  0  0  0  0  0  0  0
   14.3645  -11.1840   10.2430 C   0  0  0  0  0  0  0  0  0  0  0  0
   16.0450   -9.3802   10.2116 C   0  0  0  0  0  0  0  0  0  0  0  0
   16.1726   -9.2198    8.8689 N   0  0  0  0  0  0  0  0  0  0  0  0
   17.4318   -8.7785    8.7494 C   0  0  0  0  0  0  0  0  0  0  0  0
   18.1080   -8.4472    7.5781 C   0  0  0  0  0  0  0  0  0  0  0  0
   19.4385   -8.0046    7.7034 C   0  0  0  0  0  0  0  0  0  0  0  0
   20.0455   -7.9073    8.9757 C   0  0  0  0  0  0  0  0  0  0  0  0
   19.3296   -8.2486   10.1387 C   0  0  0  0  0  0  0  0  0  0  0  0
   18.0161   -8.6812    9.9758 C   0  0  0  0  0  0  0  0  0  0  0  0
   17.1547   -9.0588   10.9306 N   0  0  0  0  0  0  0  0  0  0  0  0
   17.2904   -9.0946   11.9050 H   0  0  0  0  0  0  0  0  0  0  0  0
   16.9944  -11.9385   16.5769 C   0  0  0  0  0  0  0  0  0  0  0  0
   18.2036  -11.7408   17.4901 C   0  0  0  0  0  0  0  0  0  0  0  0
   19.3954  -11.1342   16.7529 C   0  0  0  0  0  0  0  0  0  0  0  0
   19.1811  -11.0854   15.2761 C   0  0  0  0  0  0  0  0  0  0  0  0
   19.2915   -9.8630   14.6034 C   0  0  0  0  0  0  0  0  0  0  0  0
   19.1056   -9.8043   13.2197 C   0  0  0  0  0  0  0  0  0  0  0  0
   18.8155  -10.9702   12.5042 C   0  0  0  0  0  0  0  0  0  0  0  0
   18.7115  -12.1944   13.1722 C   0  0  0  0  0  0  0  0  0  0  0  0
   18.8954  -12.2530   14.5567 C   0  0  0  0  0  0  0  0  0  0  0  0
  8  9  1  0  0  0
  9 10  1  0  0  0
 10 11  2  0  0  0
 10  1  1  0  0  0
  1  2  2  0  0  0
  2  3  1  0  0  0
  3 29  1  0  0  0
  3  4  1  0  0  0
 29 30  1  0  0  0
 30 31  1  0  0  0
 31 32  1  0  0  0
 32 33  2  0  0  0
 33 34  1  0  0  0
 34 35  2  0  0  0
 35 36  1  0  0  0
 36 37  2  0  0  0
 37 32  1  0  0  0
  4  5  2  0  0  0
  5 13  1  0  0  0
  5  6  1  0  0  0
 13 14  2  0  0  0
 13 15  1  0  0  0
 17 15  1  0  0  0
 17 18  1  0  0  0
 17 19  1  0  0  0
 19 20  2  0  0  0
 20 21  1  0  0  0
 21 22  2  0  0  0
 22 23  1  0  0  0
 23 24  2  0  0  0
 24 25  1  0  0  0
 25 26  2  0  0  0
 26 27  1  0  0  0
 26 21  1  0  0  0
 27 19  1  0  0  0
  6  7  2  0  0  0
  6  1  1  0  0  0
  9 12  1  0  0  0
 15 16  1  0  0  0
 27 28  1  0  0  0
M  END
>  <minimizedAffinity>
2.14762

>  <minimizedRMSD>
2.14135

$$$$
CSSS02321899209 Z5292449967


 25 27  0  0  0  0  0  0  0  0999 V2000
   19.0670  -10.0742   11.4727 C   0  0  0  0  0  0  0  0  0  0  0  0
   19.6654  -11.1762   11.3359 O   0  0  0  0  0  0  0  0  0  0  0  0
   18.6796   -9.6374   12.7797 N   0  0  0  0  0  0  0  0  0  0  0  0
   18.2347   -8.7642   12.8732 H   0  0  0  0  0  0  0  0  0  0  0  0
   19.7372   -8.3200    9.8033 C   0  0  0  0  0  0  0  0  0  0  0  0
   19.4543   -7.5245    8.6821 C   0  0  0  0  0  0  0  0  0  0  0  0
   18.2305   -7.6195    8.0267 C   0  0  0  0  0  0  0  0  0  0  0  0
   17.2642   -8.5125    8.4796 C   0  0  0  0  0  0  0  0  0  0  0  0
   16.0689   -8.5900    7.8350 N   0  0  0  0  0  0  0  0  0  0  0  0
   15.0869   -9.4342    8.2476 C   0  0  0  0  0  0  0  0  0  0  0  0
   15.2865  -10.2495    9.3609 C   0  0  0  0  0  0  0  0  0  0  0  0
   16.5033  -10.1905   10.0400 C   0  0  0  0  0  0  0  0  0  0  0  0
   17.5210   -9.3261    9.6089 C   0  0  0  0  0  0  0  0  0  0  0  0
   18.7671   -9.2330   10.2829 C   0  0  0  0  0  0  0  0  0  0  0  0
   22.2121   -8.4890    9.7678 C   0  0  0  0  0  0  0  0  0  0  0  0
   20.9845   -8.2264   10.4347 O   0  0  0  0  0  0  0  0  0  0  0  0
   18.9167  -10.4313   13.9757 C   0  0  0  0  0  0  0  0  0  0  0  0
   17.6014  -10.9737   14.5085 C   0  0  0  0  0  0  0  0  0  0  0  0
   17.0026  -10.0167   15.4844 C   0  0  0  0  0  0  0  0  0  0  0  0
   16.2598   -8.9561   15.1295 N   0  0  0  0  0  0  0  0  0  0  0  0
   15.9055   -8.3878   16.3043 C   0  0  0  0  0  0  0  0  0  0  0  0
   16.3895   -9.0496   17.3797 N   0  0  0  0  0  0  0  0  0  0  0  0
   17.0775  -10.0753   16.8539 C   0  0  0  0  0  0  0  0  0  0  0  0
   17.7841  -11.1055   17.6648 C   0  0  0  0  0  0  0  0  0  0  0  0
   16.2655   -8.8294   18.3312 H   0  0  0  0  0  0  0  0  0  0  0  0
 15 16  1  0  0  0
 16  5  1  0  0  0
  5  6  2  0  0  0
  6  7  1  0  0  0
  7  8  2  0  0  0
  8  9  1  0  0  0
  9 10  2  0  0  0
 10 11  1  0  0  0
 11 12  2  0  0  0
 12 13  1  0  0  0
 13 14  2  0  0  0
 14  1  1  0  0  0
  1  2  2  0  0  0
  1  3  1  0  0  0
  3 17  1  0  0  0
 17 18  1  0  0  0
 18 19  1  0  0  0
 19 20  1  0  0  0
 20 21  2  0  0  0
 21 22  1  0  0  0
 22 23  1  0  0  0
 23 24  1  0  0  0
 14  5  1  0  0  0
 23 19  2  0  0  0
 13  8  1  0  0  0
  3  4  1  0  0  0
 22 25  1  0  0  0
M  END
>  <minimizedAffinity>
2.19342

>  <minimizedRMSD>
1.94208

$$$$
CSSS00160452697 MCULE-1111886226 MolPort-046-809-557 Z2169206512


 33 36  0  0  0  0  0  0  0  0999 V2000
   19.4042   -9.4241   11.3306 C   0  0  0  0  0  0  0  0  0  0  0  0
   18.8023   -9.9921   12.5693 C   0  0  0  0  0  0  0  0  0  0  0  0
   18.1739   -9.1995   13.4789 N   0  0  0  0  0  0  0  0  0  0  0  0
   17.6444   -9.9155   14.4919 C   0  0  0  0  0  0  0  0  0  0  0  0
   17.9373  -11.5551   14.2693 S   0  0  0  0  0  0  0  0  0  0  0  0
   18.7756  -11.3627   12.8213 C   0  0  0  0  0  0  0  0  0  0  0  0
   16.9007   -9.3167   15.6116 C   0  0  0  0  0  0  0  0  0  0  0  0
   17.0600   -9.8037   16.9156 C   0  0  0  0  0  0  0  0  0  0  0  0
   16.3486   -9.2325   17.9744 C   0  0  0  0  0  0  0  0  0  0  0  0
   15.4681   -8.1667   17.7435 C   0  0  0  0  0  0  0  0  0  0  0  0
   15.3091   -7.6802   16.4384 C   0  0  0  0  0  0  0  0  0  0  0  0
   16.0205   -8.2514   15.3798 C   0  0  0  0  0  0  0  0  0  0  0  0
   14.7182   -7.5649   18.8600 C   0  0  0  0  0  0  0  0  0  0  0  0
   15.0108   -7.9298   20.2058 N   0  0  0  0  0  0  0  0  0  0  0  0
   13.8101   -6.7210   18.6350 O   0  0  0  0  0  0  0  0  0  0  0  0
   15.7181   -8.5881   20.3947 H   0  0  0  0  0  0  0  0  0  0  0  0
   14.5058   -7.5236   20.9468 H   0  0  0  0  0  0  0  0  0  0  0  0
   18.8490  -10.0617   10.1847 O   0  0  0  0  0  0  0  0  0  0  0  0
   16.6049   -9.6622    9.3480 C   0  0  0  0  0  0  0  0  0  0  0  0
   17.9974   -9.4338    9.2586 C   0  0  0  0  0  0  0  0  0  0  0  0
   18.4901   -8.5949    8.2288 C   0  0  0  0  0  0  0  0  0  0  0  0
   17.5746   -7.9880    7.3374 C   0  0  0  0  0  0  0  0  0  0  0  0
   18.0348   -7.1560    6.3126 C   0  0  0  0  0  0  0  0  0  0  0  0
   19.4033   -6.9285    6.1543 C   0  0  0  0  0  0  0  0  0  0  0  0
   20.3169   -7.5374    7.0168 C   0  0  0  0  0  0  0  0  0  0  0  0
   19.8627   -8.3682    8.0440 C   0  0  0  0  0  0  0  0  0  0  0  0
   16.2453   -8.2221    7.4620 N   0  0  0  0  0  0  0  0  0  0  0  0
   15.7531   -9.0343    8.4301 C   0  0  0  0  0  0  0  0  0  0  0  0
   16.0024  -10.5145   10.4010 C   0  0  0  0  0  0  0  0  0  0  0  0
   15.9628  -11.7667   10.2437 O   0  0  0  0  0  0  0  0  0  0  0  0
   15.4643   -9.9443   11.5570 O   0  0  0  0  0  0  0  0  0  0  0  0
   14.0806  -10.5064   13.4279 C   0  0  0  0  0  0  0  0  0  0  0  0
   14.1199  -10.1673   11.9530 C   0  0  0  0  0  0  0  0  0  0  0  0
 32 33  1  0  0  0
 33 31  1  0  0  0
 31 29  1  0  0  0
 29 19  1  0  0  0
 19 20  2  0  0  0
 20 18  1  0  0  0
 18  1  1  0  0  0
  1  2  1  0  0  0
  2  3  1  0  0  0
  3  4  2  0  0  0
  4  7  1  0  0  0
  7  8  2  0  0  0
  8  9  1  0  0  0
  9 10  2  0  0  0
 10 13  1  0  0  0
 13 14  1  0  0  0
 13 15  2  0  0  0
 10 11  1  0  0  0
 11 12  2  0  0  0
  4  5  1  0  0  0
  5  6  1  0  0  0
 20 21  1  0  0  0
 21 22  2  0  0  0
 22 23  1  0  0  0
 23 24  2  0  0  0
 24 25  1  0  0  0
 25 26  2  0  0  0
 22 27  1  0  0  0
 27 28  2  0  0  0
 29 30  2  0  0  0
 28 19  1  0  0  0
  6  2  2  0  0  0
 26 21  1  0  0  0
 12  7  1  0  0  0
 14 16  1  0  0  0
 14 17  1  0  0  0
M  END
>  <minimizedAffinity>
2.22306

>  <minimizedRMSD>
3.29609

$$$$
1875327711 CSSS02125401258 MCULE-4269010252 MolPort-047-477-311 PubChem-154849266 Z4439098539


 31 34  0  0  0  0  0  0  0  0999 V2000
   19.0422   -9.9965   14.9607 C   0  0  0  0  0  0  0  0  0  0  0  0
   19.3783  -11.3492   14.8352 C   0  0  0  0  0  0  0  0  0  0  0  0
   19.0711  -12.0411   13.6597 C   0  0  0  0  0  0  0  0  0  0  0  0
   18.4190  -11.3842   12.6118 C   0  0  0  0  0  0  0  0  0  0  0  0
   18.0687  -10.0359   12.7410 C   0  0  0  0  0  0  0  0  0  0  0  0
   18.3841   -9.3420   13.9139 C   0  0  0  0  0  0  0  0  0  0  0  0
   19.3306   -9.2717   16.2316 C   0  0  0  0  0  0  0  0  0  0  0  0
   17.1440   -8.0799   16.6735 C   0  0  0  0  0  0  0  0  0  0  0  0
   17.4280   -7.1666   15.8521 O   0  0  0  0  0  0  0  0  0  0  0  0
   18.1005   -9.0942   16.9897 N   0  0  0  0  0  0  0  0  0  0  0  0
   17.9206   -9.6951   17.7485 H   0  0  0  0  0  0  0  0  0  0  0  0
   15.7807   -8.1363   17.2800 C   0  0  0  0  0  0  0  0  0  0  0  0
   15.5763   -7.4488   18.6115 C   0  0  0  0  0  0  0  0  0  0  0  0
   15.7157   -8.9635   18.5432 C   0  0  0  0  0  0  0  0  0  0  0  0
   14.5643   -8.3097   16.3871 C   0  0  0  0  0  0  0  0  0  0  0  0
   14.9948   -8.5750   14.9535 C   0  0  0  0  0  0  0  0  0  0  0  0
   14.9027  -10.0593   13.1623 C   0  0  0  0  0  0  0  0  0  0  0  0
   14.7017   -9.9517   14.5954 N   0  0  0  0  0  0  0  0  0  0  0  0
   15.7227  -10.7772   15.2178 C   0  0  0  0  0  0  0  0  0  0  0  0
   17.3900   -9.3321   11.6201 C   0  0  0  0  0  0  0  0  0  0  0  0
   18.3260   -9.1393   10.5230 N   0  0  0  0  0  0  0  0  0  0  0  0
   19.2655   -8.9353   10.7348 H   0  0  0  0  0  0  0  0  0  0  0  0
   17.9378   -9.2337    9.1497 C   0  0  0  0  0  0  0  0  0  0  0  0
   16.9043  -10.0872    8.7256 C   0  0  0  0  0  0  0  0  0  0  0  0
   16.5789  -10.1256    7.3545 C   0  0  0  0  0  0  0  0  0  0  0  0
   17.2545   -9.3488    6.4565 N   0  0  0  0  0  0  0  0  0  0  0  0
   18.2429   -8.5417    6.9132 C   0  0  0  0  0  0  0  0  0  0  0  0
   18.9979   -7.7211    6.1660 N   0  0  0  0  0  0  0  0  0  0  0  0
   19.8083   -7.1651    7.1090 C   0  0  0  0  0  0  0  0  0  0  0  0
   19.5490   -7.6316    8.3578 N   0  0  0  0  0  0  0  0  0  0  0  0
   18.5638   -8.4924    8.2034 N   0  0  0  0  0  0  0  0  0  0  0  0
 17 18  1  0  0  0
 18 19  1  0  0  0
 18 16  1  0  0  0
 16 15  1  0  0  0
 15 12  1  0  0  0
 12 13  1  0  0  0
 13 14  1  0  0  0
 12  8  1  0  0  0
  8  9  2  0  0  0
  8 10  1  0  0  0
 10  7  1  0  0  0
  7  1  1  0  0  0
  1  2  2  0  0  0
  2  3  1  0  0  0
  3  4  2  0  0  0
  4  5  1  0  0  0
  5 20  1  0  0  0
 20 21  1  0  0  0
 21 23  1  0  0  0
 23 24  2  0  0  0
 24 25  1  0  0  0
 25 26  2  0  0  0
 26 27  1  0  0  0
 27 28  2  0  0  0
 28 29  1  0  0  0
 29 30  2  0  0  0
 30 31  1  0  0  0
  5  6  2  0  0  0
 14 12  1  0  0  0
  6  1  1  0  0  0
 31 23  1  0  0  0
 31 27  1  0  0  0
 10 11  1  0  0  0
 21 22  1  0  0  0
M  END
>  <minimizedAffinity>
2.29386

>  <minimizedRMSD>
2.42393

$$$$
CSSS00159483039 MCULE-4845016050 MolPort-005-050-060 PubChem-45195487


 34 38  0  0  0  0  0  0  0  0999 V2000
   16.8648   -9.1954   15.4134 C   0  0  0  0  0  0  0  0  0  0  0  0
   17.0058  -10.2700   14.3438 C   0  0  0  0  0  0  0  0  0  0  0  0
   16.1146   -9.9268   13.1526 C   0  0  0  0  0  0  0  0  0  0  0  0
   16.3221   -8.5334   12.7561 N   0  0  0  0  0  0  0  0  0  0  0  0
   16.0852   -7.4974   13.7604 C   0  0  0  0  0  0  0  0  0  0  0  0
   16.9803   -7.7342   14.9735 C   0  0  0  0  0  0  0  0  0  0  0  0
   16.8733   -8.1847   11.4733 C   0  0  0  0  0  0  0  0  0  0  0  0
   17.3525   -7.0302   11.3027 O   0  0  0  0  0  0  0  0  0  0  0  0
   17.6540   -9.4962   16.6616 C   0  0  0  0  0  0  0  0  0  0  0  0
   16.1300   -9.5971   16.6906 C   0  0  0  0  0  0  0  0  0  0  0  0
   16.8715   -9.1421   10.3373 C   0  0  0  0  0  0  0  0  0  0  0  0
   16.2480  -10.3852   10.5033 C   0  0  0  0  0  0  0  0  0  0  0  0
   16.2002  -11.2959    9.4481 C   0  0  0  0  0  0  0  0  0  0  0  0
   15.5390  -12.6131    9.6369 C   0  0  0  0  0  0  0  0  0  0  0  0
   16.7530  -10.9811    8.2486 N   0  0  0  0  0  0  0  0  0  0  0  0
   17.3651   -9.7869    8.0378 C   0  0  0  0  0  0  0  0  0  0  0  0
   17.9265   -9.5084    6.7884 C   0  0  0  0  0  0  0  0  0  0  0  0
   18.5684   -8.2883    6.5637 C   0  0  0  0  0  0  0  0  0  0  0  0
   18.6536   -7.3424    7.5879 C   0  0  0  0  0  0  0  0  0  0  0  0
   19.3404   -6.0470    7.3468 C   0  0  0  0  0  0  0  0  0  0  0  0
   18.0946   -7.6126    8.8396 C   0  0  0  0  0  0  0  0  0  0  0  0
   17.4392   -8.8308    9.0804 C   0  0  0  0  0  0  0  0  0  0  0  0
   15.5357   -8.4330   17.4240 C   0  0  0  0  0  0  0  0  0  0  0  0
   15.7306   -8.3064   18.8352 N   0  0  0  0  0  0  0  0  0  0  0  0
   14.8315   -7.5933   16.8003 O   0  0  0  0  0  0  0  0  0  0  0  0
   16.2298   -9.0112   19.3077 H   0  0  0  0  0  0  0  0  0  0  0  0
   15.2209   -7.1777   19.6023 C   0  0  0  0  0  0  0  0  0  0  0  0
   14.1615   -7.6379   20.5957 C   0  0  0  0  0  0  0  0  0  0  0  0
   12.9353   -6.7340   20.5541 C   0  0  0  0  0  0  0  0  0  0  0  0
   13.1702   -5.5073   21.3005 N   0  0  0  0  0  0  0  0  0  0  0  0
   13.5604   -5.4289   22.5810 C   0  0  0  0  0  0  0  0  0  0  0  0
   13.6910   -4.0864   22.8815 C   0  0  0  0  0  0  0  0  0  0  0  0
   13.3873   -3.3564   21.7866 N   0  0  0  0  0  0  0  0  0  0  0  0
   13.0754   -4.2530   20.8316 C   0  0  0  0  0  0  0  0  0  0  0  0
  1  2  1  0  0  0
  2  3  1  0  0  0
  3  4  1  0  0  0
  4  5  1  0  0  0
  5  6  1  0  0  0
  4  7  1  0  0  0
  7  8  2  0  0  0
  7 11  1  0  0  0
 11 12  2  0  0  0
 12 13  1  0  0  0
 13 14  1  0  0  0
 13 15  2  0  0  0
 15 16  1  0  0  0
 16 17  2  0  0  0
 17 18  1  0  0  0
 18 19  2  0  0  0
 19 20  1  0  0  0
 19 21  1  0  0  0
 21 22  2  0  0  0
  1  9  1  0  0  0
  9 10  1  0  0  0
 10 23  1  0  0  0
 23 24  1  0  0  0
 24 27  1  0  0  0
 27 28  1  0  0  0
 28 29  1  0  0  0
 29 30  1  0  0  0
 30 31  1  0  0  0
 31 32  2  0  0  0
 32 33  1  0  0  0
 33 34  2  0  0  0
 23 25  2  0  0  0
  6  1  1  0  0  0
 22 11  1  0  0  0
 34 30  1  0  0  0
 10  1  1  0  0  0
 22 16  1  0  0  0
 24 26  1  0  0  0
M  END
>  <minimizedAffinity>
2.39747

>  <minimizedRMSD>
2.79013

$$$$
CSC026113991 8324344 CSSS00026113991 MCULE-2396648151 MolPort-005-805-711 PubChem-9450098 Z127915582 ZINC000008324344


 28 32  0  0  0  0  0  0  0  0999 V2000
   17.3541   -8.3398   11.1654 N   0  0  0  0  0  0  0  0  0  0  0  0
   16.2088   -7.9368   11.9788 C   0  0  0  0  0  0  0  0  0  0  0  0
   16.0995   -8.8574   13.1911 C   0  0  0  0  0  0  0  0  0  0  0  0
   17.4274   -8.8834   13.9544 C   0  0  0  0  0  0  0  0  0  0  0  0
   18.5864   -9.2909   13.0395 C   0  0  0  0  0  0  0  0  0  0  0  0
   18.6529   -8.3592   11.8338 C   0  0  0  0  0  0  0  0  0  0  0  0
   19.9638   -7.5381    4.8625 Cl  0  0  0  0  0  0  0  0  0  0  0  0
   19.1439   -7.9705    6.3468 C   0  0  0  0  0  0  0  0  0  0  0  0
   18.2620   -9.0534    6.3662 C   0  0  0  0  0  0  0  0  0  0  0  0
   17.6047   -9.4024    7.5493 C   0  0  0  0  0  0  0  0  0  0  0  0
   17.8368   -8.6649    8.7362 C   0  0  0  0  0  0  0  0  0  0  0  0
   17.1553   -9.0350    9.9181 C   0  0  0  0  0  0  0  0  0  0  0  0
   16.2562  -10.1101    9.8661 C   0  0  0  0  0  0  0  0  0  0  0  0
   16.0591  -10.8057    8.6736 C   0  0  0  0  0  0  0  0  0  0  0  0
   16.7326  -10.4437    7.5515 N   0  0  0  0  0  0  0  0  0  0  0  0
   18.7149   -7.5712    8.6957 C   0  0  0  0  0  0  0  0  0  0  0  0
   19.3666   -7.2276    7.5085 C   0  0  0  0  0  0  0  0  0  0  0  0
   17.3403   -9.7841   15.1015 N   0  0  0  0  0  0  0  0  0  0  0  0
   17.6519  -11.0884   15.1809 C   0  0  0  0  0  0  0  0  0  0  0  0
   17.4104  -11.5231   16.4543 C   0  0  0  0  0  0  0  0  0  0  0  0
   17.6416  -12.8419   16.8374 C   0  0  0  0  0  0  0  0  0  0  0  0
   18.1380  -13.7242   15.8593 C   0  0  0  0  0  0  0  0  0  0  0  0
   18.3872  -13.2736   14.5434 C   0  0  0  0  0  0  0  0  0  0  0  0
   18.1435  -11.9346   14.1871 C   0  0  0  0  0  0  0  0  0  0  0  0
   16.9415  -10.5187   17.2198 N   0  0  0  0  0  0  0  0  0  0  0  0
   16.9155   -9.4756   16.3504 C   0  0  0  0  0  0  0  0  0  0  0  0
   16.5288   -8.3236   16.6821 O   0  0  0  0  0  0  0  0  0  0  0  0
   16.6829  -10.5363   18.1696 H   0  0  0  0  0  0  0  0  0  0  0  0
  7  8  1  0  0  0
  8  9  2  0  0  0
  9 10  1  0  0  0
 10 11  2  0  0  0
 11 12  1  0  0  0
 12  1  1  0  0  0
  1  2  1  0  0  0
  2  3  1  0  0  0
  3  4  1  0  0  0
  4 18  1  0  0  0
 18 19  1  0  0  0
 19 20  1  0  0  0
 20 21  2  0  0  0
 21 22  1  0  0  0
 22 23  2  0  0  0
 23 24  1  0  0  0
 20 25  1  0  0  0
 25 26  1  0  0  0
 26 27  2  0  0  0
  4  5  1  0  0  0
  5  6  1  0  0  0
 12 13  2  0  0  0
 13 14  1  0  0  0
 14 15  2  0  0  0
 11 16  1  0  0  0
 16 17  2  0  0  0
 17  8  1  0  0  0
 15 10  1  0  0  0
  6  1  1  0  0  0
 26 18  1  0  0  0
 24 19  2  0  0  0
 25 28  1  0  0  0
M  END
>  <minimizedAffinity>
2.41714

>  <minimizedRMSD>
1.57953

$$$$
CSSS06744533528 Z5210938486


 33 36  0  0  0  0  0  0  0  0999 V2000
   18.3758   -9.2201   10.9437 C   0  0  0  0  0  0  0  0  0  0  0  0
   17.2793   -8.5044   11.4466 C   0  0  0  0  0  0  0  0  0  0  0  0
   16.7729   -8.7893   12.7167 C   0  0  0  0  0  0  0  0  0  0  0  0
   17.3576   -9.7940   13.4908 C   0  0  0  0  0  0  0  0  0  0  0  0
   18.4527  -10.5209   12.9966 C   0  0  0  0  0  0  0  0  0  0  0  0
   18.9533  -10.2270   11.7242 C   0  0  0  0  0  0  0  0  0  0  0  0
   18.8872   -6.6197    9.6478 O   0  0  0  0  0  0  0  0  0  0  0  0
   19.0978   -7.6897    9.0179 C   0  0  0  0  0  0  0  0  0  0  0  0
   18.9124   -8.9682    9.6389 N   0  0  0  0  0  0  0  0  0  0  0  0
   19.1820   -9.7562    9.1139 H   0  0  0  0  0  0  0  0  0  0  0  0
   19.5039   -7.6294    7.5840 C   0  0  0  0  0  0  0  0  0  0  0  0
   18.4905   -8.3545    6.7046 C   0  0  0  0  0  0  0  0  0  0  0  0
   17.5270   -9.1513    7.5225 C   0  0  0  0  0  0  0  0  0  0  0  0
   17.7134  -10.5296    7.6994 C   0  0  0  0  0  0  0  0  0  0  0  0
   16.8225  -11.2660    8.4866 C   0  0  0  0  0  0  0  0  0  0  0  0
   15.7413  -10.6267    9.0993 C   0  0  0  0  0  0  0  0  0  0  0  0
   14.8745  -11.3341    9.8720 N   0  0  0  0  0  0  0  0  0  0  0  0
   13.8146  -10.7351   10.4813 C   0  0  0  0  0  0  0  0  0  0  0  0
   13.5938   -9.3633   10.3245 C   0  0  0  0  0  0  0  0  0  0  0  0
   14.4695   -8.6126    9.5371 C   0  0  0  0  0  0  0  0  0  0  0  0
   15.5506   -9.2393    8.9171 C   0  0  0  0  0  0  0  0  0  0  0  0
   16.4419   -8.5083    8.1286 C   0  0  0  0  0  0  0  0  0  0  0  0
   19.0614  -11.5325   13.7476 O   0  0  0  0  0  0  0  0  0  0  0  0
   19.3011  -11.4207   15.1457 C   0  0  0  0  0  0  0  0  0  0  0  0
   18.1311  -12.0026   15.9220 C   0  0  0  0  0  0  0  0  0  0  0  0
   17.8185  -11.1382   17.1319 C   0  0  0  0  0  0  0  0  0  0  0  0
   16.7707  -10.1284   16.7996 C   0  0  0  0  0  0  0  0  0  0  0  0
   15.8913  -10.2684   15.7860 N   0  0  0  0  0  0  0  0  0  0  0  0
   15.1653   -9.1933   15.8269 O   0  0  0  0  0  0  0  0  0  0  0  0
   15.5754   -8.4360   16.8111 C   0  0  0  0  0  0  0  0  0  0  0  0
   15.0622   -7.3237   17.0995 O   0  0  0  0  0  0  0  0  0  0  0  0
   16.6079   -8.9758   17.4834 N   0  0  0  0  0  0  0  0  0  0  0  0
   17.1059   -8.6276   18.2580 H   0  0  0  0  0  0  0  0  0  0  0  0
  7  8  2  0  0  0
  8 11  1  0  0  0
 11 12  1  0  0  0
 12 13  1  0  0  0
 13 14  2  0  0  0
 14 15  1  0  0  0
 15 16  2  0  0  0
 16 17  1  0  0  0
 17 18  2  0  0  0
 18 19  1  0  0  0
 19 20  2  0  0  0
 20 21  1  0  0  0
 21 22  2  0  0  0
  8  9  1  0  0  0
  9  1  1  0  0  0
  1  2  2  0  0  0
  2  3  1  0  0  0
  3  4  2  0  0  0
  4  5  1  0  0  0
  5 23  1  0  0  0
 23 24  1  0  0  0
 24 25  1  0  0  0
 25 26  1  0  0  0
 26 27  1  0  0  0
 27 28  2  0  0  0
 28 29  1  0  0  0
 29 30  1  0  0  0
 30 31  2  0  0  0
 30 32  1  0  0  0
  5  6  2  0  0  0
 22 13  1  0  0  0
  6  1  1  0  0  0
 21 16  1  0  0  0
 32 27  1  0  0  0
  9 10  1  0  0  0
 32 33  1  0  0  0
M  END
>  <minimizedAffinity>
2.42242

>  <minimizedRMSD>
2.68699

$$$$
CSSS09880999110 MCULE-2093544929 MCULE-8167918115 MolPort-051-456-812 PubChem-162628280 PubChem-164183750


 32 35  0  0  0  0  0  0  0  0999 V2000
   18.6031  -10.3909   13.7930 C   0  0  0  0  0  0  0  0  0  0  0  0
   19.6354   -9.6901   13.9823 O   0  0  0  0  0  0  0  0  0  0  0  0
   18.4311  -11.0987   12.5547 N   0  0  0  0  0  0  0  0  0  0  0  0
   17.3826  -12.0953   12.4062 C   0  0  0  0  0  0  0  0  0  0  0  0
   18.4160  -12.5965   15.8686 C   0  0  0  0  0  0  0  0  0  0  0  0
   18.1007  -11.1344   16.1438 C   0  0  0  0  0  0  0  0  0  0  0  0
   17.1229  -11.0406   17.3412 C   0  0  0  0  0  0  0  0  0  0  0  0
   17.7421  -11.4850   18.5116 O   0  0  0  0  0  0  0  0  0  0  0  0
   16.5416   -9.6308   17.5543 C   0  0  0  0  0  0  0  0  0  0  0  0
   17.5296   -8.7532   18.0153 O   0  0  0  0  0  0  0  0  0  0  0  0
   15.9745   -9.1608   16.2227 C   0  0  0  0  0  0  0  0  0  0  0  0
   15.3515   -7.7917   16.1753 C   0  0  0  0  0  0  0  0  0  0  0  0
   15.4678   -7.3411   14.7847 N   0  0  0  0  0  0  0  0  0  0  0  0
   16.3844   -8.2713   14.1170 C   0  0  0  0  0  0  0  0  0  0  0  0
   17.0612   -9.0576   15.2119 C   0  0  0  0  0  0  0  0  0  0  0  0
   17.5490  -10.4600   14.8636 C   0  0  0  0  0  0  0  0  0  0  0  0
   18.4893  -10.9036   18.7229 H   0  0  0  0  0  0  0  0  0  0  0  0
   18.2490   -8.7065   17.3663 H   0  0  0  0  0  0  0  0  0  0  0  0
   15.8432   -6.3932   14.7523 H   0  0  0  0  0  0  0  0  0  0  0  0
   19.3268  -10.8739   11.4276 C   0  0  0  0  0  0  0  0  0  0  0  0
   18.6114  -10.1463   10.3401 C   0  0  0  0  0  0  0  0  0  0  0  0
   19.2565   -9.1820    9.6324 N   0  0  0  0  0  0  0  0  0  0  0  0
   18.6128   -8.4788    8.6663 C   0  0  0  0  0  0  0  0  0  0  0  0
   19.2919   -7.4915    7.9467 C   0  0  0  0  0  0  0  0  0  0  0  0
   18.6252   -6.7670    6.9537 C   0  0  0  0  0  0  0  0  0  0  0  0
   17.2787   -7.0268    6.6781 C   0  0  0  0  0  0  0  0  0  0  0  0
   16.5928   -8.0122    7.3947 C   0  0  0  0  0  0  0  0  0  0  0  0
   17.2550   -8.7426    8.3915 C   0  0  0  0  0  0  0  0  0  0  0  0
   16.6103   -9.7372    9.1385 C   0  0  0  0  0  0  0  0  0  0  0  0
   15.3970  -10.0127    8.9368 O   0  0  0  0  0  0  0  0  0  0  0  0
   17.3003  -10.4118   10.0951 N   0  0  0  0  0  0  0  0  0  0  0  0
   16.8422  -11.1065   10.6212 H   0  0  0  0  0  0  0  0  0  0  0  0
  6  5  1  0  0  0
  6  7  1  0  0  0
  7  8  1  0  0  0
  7  9  1  0  0  0
  9 10  1  0  0  0
  9 11  1  0  0  0
 11 12  1  0  0  0
 12 13  1  0  0  0
 13 14  1  0  0  0
 15 14  1  0  0  0
 15 16  1  0  0  0
 16  1  1  0  0  0
  1  2  2  0  0  0
  1  3  1  0  0  0
  3  4  1  0  0  0
  3 20  1  0  0  0
 20 21  1  0  0  0
 21 22  2  0  0  0
 22 23  1  0  0  0
 23 24  2  0  0  0
 24 25  1  0  0  0
 25 26  2  0  0  0
 26 27  1  0  0  0
 27 28  2  0  0  0
 28 29  1  0  0  0
 29 30  2  0  0  0
 29 31  1  0  0  0
 16  6  1  0  0  0
 31 21  1  0  0  0
 15 11  1  0  0  0
 28 23  1  0  0  0
  8 17  1  0  0  0
 10 18  1  0  0  0
 13 19  1  0  0  0
 31 32  1  0  0  0
M  END
>  <minimizedAffinity>
2.43042

>  <minimizedRMSD>
1.99958

$$$$
1642036818 CSSS00448128446 MolPort-047-846-419 PubChem-166331827 Z4970358819


 29 32  0  0  0  0  0  0  0  0999 V2000
   18.1269   -9.7334   11.1880 C   0  0  0  0  0  0  0  0  0  0  0  0
   16.8173  -10.0715   11.3780 N   0  0  0  0  0  0  0  0  0  0  0  0
   15.8476   -9.7362   10.4699 C   0  0  0  0  0  0  0  0  0  0  0  0
   16.1829   -9.0459    9.3402 N   0  0  0  0  0  0  0  0  0  0  0  0
   17.4784   -8.7064    9.1433 C   0  0  0  0  0  0  0  0  0  0  0  0
   18.1268   -7.8698    7.8515 S   0  0  0  0  0  0  0  0  0  0  0  0
   19.7233   -7.9081    8.4266 C   0  0  0  0  0  0  0  0  0  0  0  0
   19.7414   -8.5884    9.6503 C   0  0  0  0  0  0  0  0  0  0  0  0
   18.4707   -9.0293   10.0363 C   0  0  0  0  0  0  0  0  0  0  0  0
   14.4453  -10.1169   10.7067 C   0  0  0  0  0  0  0  0  0  0  0  0
   14.0777  -10.7888   11.8802 C   0  0  0  0  0  0  0  0  0  0  0  0
   12.7417  -11.1390   12.0817 C   0  0  0  0  0  0  0  0  0  0  0  0
   11.7863  -10.8185   11.1167 C   0  0  0  0  0  0  0  0  0  0  0  0
   12.1858  -10.1488    9.9588 C   0  0  0  0  0  0  0  0  0  0  0  0
   13.4926   -9.8157    9.7799 N   0  0  0  0  0  0  0  0  0  0  0  0
   19.1225  -10.0927   12.1476 N   0  0  0  0  0  0  0  0  0  0  0  0
   20.0446   -9.7717   12.0211 H   0  0  0  0  0  0  0  0  0  0  0  0
   18.8165  -10.9178   13.3051 C   0  0  0  0  0  0  0  0  0  0  0  0
   17.3539   -8.8934   16.1578 C   0  0  0  0  0  0  0  0  0  0  0  0
   18.5223   -8.4132   16.7671 C   0  0  0  0  0  0  0  0  0  0  0  0
   19.7778   -8.7512   16.2537 C   0  0  0  0  0  0  0  0  0  0  0  0
   19.8742   -9.5735   15.1281 C   0  0  0  0  0  0  0  0  0  0  0  0
   18.7153  -10.0629   14.5181 C   0  0  0  0  0  0  0  0  0  0  0  0
   17.4592   -9.7180   15.0280 C   0  0  0  0  0  0  0  0  0  0  0  0
   15.8749   -8.2195   18.0777 N   0  0  0  0  0  0  0  0  0  0  0  0
   16.0307   -8.5336   16.6967 C   0  0  0  0  0  0  0  0  0  0  0  0
   15.0233   -8.5005   15.9409 O   0  0  0  0  0  0  0  0  0  0  0  0
   14.9878   -7.9799   18.4310 H   0  0  0  0  0  0  0  0  0  0  0  0
   16.6544   -8.2419   18.6786 H   0  0  0  0  0  0  0  0  0  0  0  0
 25 26  1  0  0  0
 26 27  2  0  0  0
 26 19  1  0  0  0
 19 20  2  0  0  0
 20 21  1  0  0  0
 21 22  2  0  0  0
 22 23  1  0  0  0
 23 18  1  0  0  0
 18 16  1  0  0  0
 16  1  1  0  0  0
  1  2  2  0  0  0
  2  3  1  0  0  0
  3  4  2  0  0  0
  4  5  1  0  0  0
  5  6  1  0  0  0
  6  7  1  0  0  0
  7  8  2  0  0  0
  8  9  1  0  0  0
  3 10  1  0  0  0
 10 11  2  0  0  0
 11 12  1  0  0  0
 12 13  2  0  0  0
 13 14  1  0  0  0
 14 15  2  0  0  0
 23 24  2  0  0  0
 24 19  1  0  0  0
  9  1  1  0  0  0
 15 10  1  0  0  0
  9  5  2  0  0  0
 25 28  1  0  0  0
 25 29  1  0  0  0
 16 17  1  0  0  0
M  END
>  <minimizedAffinity>
2.43936

>  <minimizedRMSD>
2.60454

$$$$
CSC026315878 CSSS00026315878 MCULE-9262696149 MolPort-005-678-826 PubChem-24235784 Z168787928


 31 34  0  0  0  0  0  0  0  0999 V2000
   16.8553   -9.2219   11.6198 C   0  0  0  0  0  0  0  0  0  0  0  0
   16.4465   -8.0304   11.5482 O   0  0  0  0  0  0  0  0  0  0  0  0
   16.4448  -10.1623   10.6110 N   0  0  0  0  0  0  0  0  0  0  0  0
   16.3303  -11.5904   10.8374 C   0  0  0  0  0  0  0  0  0  0  0  0
   15.7593  -12.1709    9.5580 C   0  0  0  0  0  0  0  0  0  0  0  0
   15.2406  -10.9939    8.7440 C   0  0  0  0  0  0  0  0  0  0  0  0
   15.8553   -9.7448    9.3513 C   0  0  0  0  0  0  0  0  0  0  0  0
   16.9074   -9.1865    8.4461 C   0  0  0  0  0  0  0  0  0  0  0  0
   16.9637   -9.4953    7.1244 N   0  0  0  0  0  0  0  0  0  0  0  0
   18.0191   -8.7828    6.7068 C   0  0  0  0  0  0  0  0  0  0  0  0
   18.5440   -8.7163    5.4186 C   0  0  0  0  0  0  0  0  0  0  0  0
   19.6661   -7.8903    5.2195 C   0  0  0  0  0  0  0  0  0  0  0  0
   20.2234   -7.1648    6.2965 C   0  0  0  0  0  0  0  0  0  0  0  0
   19.6657   -7.2571    7.5854 C   0  0  0  0  0  0  0  0  0  0  0  0
   18.5567   -8.0841    7.7445 C   0  0  0  0  0  0  0  0  0  0  0  0
   17.8678   -8.3208    8.8691 N   0  0  0  0  0  0  0  0  0  0  0  0
   18.0184   -7.9597    9.7725 H   0  0  0  0  0  0  0  0  0  0  0  0
   18.2142   -9.7048   15.1188 C   0  0  0  0  0  0  0  0  0  0  0  0
   19.4726  -10.2544   14.8575 C   0  0  0  0  0  0  0  0  0  0  0  0
   19.8804  -10.4727   13.5399 C   0  0  0  0  0  0  0  0  0  0  0  0
   19.0286  -10.1447   12.4817 C   0  0  0  0  0  0  0  0  0  0  0  0
   17.7591   -9.6020   12.7296 C   0  0  0  0  0  0  0  0  0  0  0  0
   17.3642   -9.3777   14.0570 C   0  0  0  0  0  0  0  0  0  0  0  0
   17.7065   -9.4337   16.7776 S   0  0  0  0  0  0  0  0  0  0  0  0
   16.3954   -8.6968   16.7986 O   0  0  0  0  0  0  0  0  0  0  0  0
   18.7427   -8.6033   17.4806 O   0  0  0  0  0  0  0  0  0  0  0  0
   17.5289  -10.9481   17.5984 N   0  0  0  0  0  0  0  0  0  0  0  0
   18.4284  -11.2463   17.9757 H   0  0  0  0  0  0  0  0  0  0  0  0
   17.0508  -11.9215   16.6313 C   0  0  0  0  0  0  0  0  0  0  0  0
   17.9100  -13.2229   14.7150 C   0  0  0  0  0  0  0  0  0  0  0  0
   18.2177  -12.7348   16.1144 C   0  0  0  0  0  0  0  0  0  0  0  0
 30 31  1  0  0  0
 31 29  1  0  0  0
 29 27  1  0  0  0
 27 24  1  0  0  0
 24 25  2  0  0  0
 24 26  2  0  0  0
 24 18  1  0  0  0
 18 19  2  0  0  0
 19 20  1  0  0  0
 20 21  2  0  0  0
 21 22  1  0  0  0
 22 23  2  0  0  0
 22  1  1  0  0  0
 23 18  1  0  0  0
  1  2  2  0  0  0
  1  3  1  0  0  0
  3  4  1  0  0  0
  4  5  1  0  0  0
  5  6  1  0  0  0
  6  7  1  0  0  0
  7  8  1  0  0  0
  7  3  1  0  0  0
  8  9  2  0  0  0
  9 10  1  0  0  0
 10 11  2  0  0  0
 11 12  1  0  0  0
 12 13  2  0  0  0
 13 14  1  0  0  0
 14 15  2  0  0  0
 15 16  1  0  0  0
 15 10  1  0  0  0
 16  8  1  0  0  0
 27 28  1  0  0  0
 16 17  1  0  0  0
M  END
>  <minimizedAffinity>
2.46254

>  <minimizedRMSD>
2.56177

$$$$
CSSS00575255787 MCULE-3571417220 PubChem-166190437 Z768933886


 31 34  0  0  0  0  0  0  0  0999 V2000
   18.2859   -8.6811    8.9205 N   0  0  0  0  0  0  0  0  0  0  0  0
   17.4851   -9.1394    9.8875 C   0  0  0  0  0  0  0  0  0  0  0  0
   18.2229   -9.4472   10.9875 C   0  0  0  0  0  0  0  0  0  0  0  0
   17.6196   -9.9504   12.1446 C   0  0  0  0  0  0  0  0  0  0  0  0
   16.2200  -10.1161   12.1024 C   0  0  0  0  0  0  0  0  0  0  0  0
   15.4838   -9.7828   10.9354 C   0  0  0  0  0  0  0  0  0  0  0  0
   16.1395   -9.2943    9.8362 N   0  0  0  0  0  0  0  0  0  0  0  0
   19.5355   -9.1497   10.6533 C   0  0  0  0  0  0  0  0  0  0  0  0
   19.5331   -8.6795    9.3769 N   0  0  0  0  0  0  0  0  0  0  0  0
   14.0164   -9.9583   10.8978 C   0  0  0  0  0  0  0  0  0  0  0  0
   13.3970  -11.0050   11.6009 C   0  0  0  0  0  0  0  0  0  0  0  0
   12.0088  -11.1635   11.5598 C   0  0  0  0  0  0  0  0  0  0  0  0
   11.2263  -10.2771   10.8155 C   0  0  0  0  0  0  0  0  0  0  0  0
   11.8316   -9.2326   10.1125 C   0  0  0  0  0  0  0  0  0  0  0  0
   13.2198   -9.0741   10.1536 C   0  0  0  0  0  0  0  0  0  0  0  0
   18.3785  -10.2962   13.3634 C   0  0  0  0  0  0  0  0  0  0  0  0
   18.0046  -11.4447   14.1314 N   0  0  0  0  0  0  0  0  0  0  0  0
   19.3543   -9.5861   13.7301 O   0  0  0  0  0  0  0  0  0  0  0  0
   17.2619  -12.0053   13.8098 H   0  0  0  0  0  0  0  0  0  0  0  0
   18.6764  -11.8196   15.3687 C   0  0  0  0  0  0  0  0  0  0  0  0
   18.0548  -11.0985   16.5540 C   0  0  0  0  0  0  0  0  0  0  0  0
   16.6104  -10.7380   16.2534 C   0  0  0  0  0  0  0  0  0  0  0  0
   16.3547   -9.3132   16.6002 C   0  0  0  0  0  0  0  0  0  0  0  0
   15.7749   -8.9799   17.8629 N   0  0  0  0  0  0  0  0  0  0  0  0
   16.6414   -8.4112   15.7689 O   0  0  0  0  0  0  0  0  0  0  0  0
   15.5484   -9.7043   18.4899 H   0  0  0  0  0  0  0  0  0  0  0  0
   15.5092   -7.6046   18.2503 C   0  0  0  0  0  0  0  0  0  0  0  0
   14.8257   -7.5895   19.6020 C   0  0  0  0  0  0  0  0  0  0  0  0
   14.0125   -7.3941   18.3406 C   0  0  0  0  0  0  0  0  0  0  0  0
   19.0207   -7.4586    6.9465 C   0  0  0  0  0  0  0  0  0  0  0  0
   17.8856   -8.2243    7.5986 C   0  0  0  0  0  0  0  0  0  0  0  0
 30 31  1  0  0  0
 31  1  1  0  0  0
  1  2  1  0  0  0
  2  3  2  0  0  0
  3  4  1  0  0  0
  4 16  1  0  0  0
 16 17  1  0  0  0
 17 20  1  0  0  0
 20 21  1  0  0  0
 21 22  1  0  0  0
 22 23  1  0  0  0
 23 24  1  0  0  0
 24 27  1  0  0  0
 27 28  1  0  0  0
 28 29  1  0  0  0
 23 25  2  0  0  0
 16 18  2  0  0  0
  4  5  2  0  0  0
  5  6  1  0  0  0
  6 10  1  0  0  0
 10 11  2  0  0  0
 11 12  1  0  0  0
 12 13  2  0  0  0
 13 14  1  0  0  0
 14 15  2  0  0  0
  6  7  2  0  0  0
  3  8  1  0  0  0
  8  9  2  0  0  0
  9  1  1  0  0  0
  7  2  1  0  0  0
 29 27  1  0  0  0
 15 10  1  0  0  0
 17 19  1  0  0  0
 24 26  1  0  0  0
M  END
>  <minimizedAffinity>
2.48544

>  <minimizedRMSD>
2.04598

$$$$
CSSS00782374427 Z229599666


 34 38  0  0  0  0  0  0  0  0999 V2000
   15.6238  -10.7653   10.3673 C   0  0  0  0  0  0  0  0  0  0  0  0
   16.1139  -10.3944    9.0124 C   0  0  0  0  0  0  0  0  0  0  0  0
   15.4382  -10.6963    7.8781 N   0  0  0  0  0  0  0  0  0  0  0  0
   16.0751  -10.1440    6.8814 O   0  0  0  0  0  0  0  0  0  0  0  0
   17.1209   -9.4981    7.3270 C   0  0  0  0  0  0  0  0  0  0  0  0
   17.9892   -8.7628    6.5927 N   0  0  0  0  0  0  0  0  0  0  0  0
   19.0116   -8.1064    7.2227 C   0  0  0  0  0  0  0  0  0  0  0  0
   19.1517   -8.2129    8.6290 C   0  0  0  0  0  0  0  0  0  0  0  0
   18.2556   -8.9901    9.3895 C   0  0  0  0  0  0  0  0  0  0  0  0
   17.2212   -9.6262    8.6833 C   0  0  0  0  0  0  0  0  0  0  0  0
   19.9612   -7.2939    6.4327 C   0  0  0  0  0  0  0  0  0  0  0  0
   19.4842   -6.3888    5.4717 C   0  0  0  0  0  0  0  0  0  0  0  0
   20.3748   -5.6166    4.7202 C   0  0  0  0  0  0  0  0  0  0  0  0
   21.7514   -5.7422    4.9226 C   0  0  0  0  0  0  0  0  0  0  0  0
   22.6980   -4.9213    4.1238 C   0  0  0  0  0  0  0  0  0  0  0  0
   22.2379   -6.6397    5.8764 C   0  0  0  0  0  0  0  0  0  0  0  0
   21.3473   -7.4118    6.6278 C   0  0  0  0  0  0  0  0  0  0  0  0
   18.4724   -9.1190   10.8414 C   0  0  0  0  0  0  0  0  0  0  0  0
   19.5285   -8.6540   11.3496 O   0  0  0  0  0  0  0  0  0  0  0  0
   17.5316   -9.8393   11.6488 N   0  0  0  0  0  0  0  0  0  0  0  0
   16.7640  -10.2381   11.1786 H   0  0  0  0  0  0  0  0  0  0  0  0
   17.5881  -10.0416   13.0686 C   0  0  0  0  0  0  0  0  0  0  0  0
   16.9027   -9.2014   13.9595 C   0  0  0  0  0  0  0  0  0  0  0  0
   16.9699   -9.4244   15.3406 C   0  0  0  0  0  0  0  0  0  0  0  0
   16.3004   -8.6063   16.2603 C   0  0  0  0  0  0  0  0  0  0  0  0
   15.6061   -7.6294   15.8705 O   0  0  0  0  0  0  0  0  0  0  0  0
   16.4007   -8.8691   17.5900 N   0  0  0  0  0  0  0  0  0  0  0  0
   17.1402   -9.9138   18.0483 C   0  0  0  0  0  0  0  0  0  0  0  0
   17.7983  -10.7212   17.1756 N   0  0  0  0  0  0  0  0  0  0  0  0
   17.7302  -10.5010   15.8376 C   0  0  0  0  0  0  0  0  0  0  0  0
   18.4111  -11.3394   14.9528 C   0  0  0  0  0  0  0  0  0  0  0  0
   18.3409  -11.1124   13.5748 C   0  0  0  0  0  0  0  0  0  0  0  0
   19.0077  -11.9383   12.7308 F   0  0  0  0  0  0  0  0  0  0  0  0
   15.9290   -8.2921   18.2333 H   0  0  0  0  0  0  0  0  0  0  0  0
  1  2  1  0  0  0
  2  3  2  0  0  0
  3  4  1  0  0  0
  4  5  1  0  0  0
  5  6  2  0  0  0
  6  7  1  0  0  0
  7  8  2  0  0  0
  8  9  1  0  0  0
  9 18  1  0  0  0
 18 19  2  0  0  0
 18 20  1  0  0  0
 20 22  1  0  0  0
 22 23  2  0  0  0
 23 24  1  0  0  0
 24 25  1  0  0  0
 25 26  2  0  0  0
 25 27  1  0  0  0
 27 28  1  0  0  0
 28 29  2  0  0  0
 29 30  1  0  0  0
 30 31  1  0  0  0
 31 32  2  0  0  0
 32 33  1  0  0  0
  9 10  2  0  0  0
  7 11  1  0  0  0
 11 12  2  0  0  0
 12 13  1  0  0  0
 13 14  2  0  0  0
 14 15  1  0  0  0
 14 16  1  0  0  0
 16 17  2  0  0  0
 10  2  1  0  0  0
 17 11  1  0  0  0
 10  5  1  0  0  0
 32 22  1  0  0  0
 30 24  2  0  0  0
 20 21  1  0  0  0
 27 34  1  0  0  0
M  END
>  <minimizedAffinity>
2.52120

>  <minimizedRMSD>
1.95722

$$$$
CSSS00132610548 MCULE-1501902628 MolPort-023-282-128


 38 43  0  0  0  0  0  0  0  0999 V2000
   17.7240   -9.4199   10.8440 N   0  0  0  0  0  0  0  0  0  0  0  0
   18.8071   -9.4679   11.6131 N   0  0  0  0  0  0  0  0  0  0  0  0
   18.4631  -10.0671   12.7763 C   0  0  0  0  0  0  0  0  0  0  0  0
   17.1282  -10.4131   12.7347 C   0  0  0  0  0  0  0  0  0  0  0  0
   16.1935  -10.9420   13.7754 C   0  0  0  0  0  0  0  0  0  0  0  0
   14.8586  -11.4073   13.1398 C   0  0  0  0  0  0  0  0  0  0  0  0
   14.4730  -10.7225   11.8329 C   0  0  0  0  0  0  0  0  0  0  0  0
   13.1576  -10.8100   11.3993 O   0  0  0  0  0  0  0  0  0  0  0  0
   15.3443  -10.0914   11.0960 N   0  0  0  0  0  0  0  0  0  0  0  0
   16.7033   -9.9861   11.5176 C   0  0  0  0  0  0  0  0  0  0  0  0
   19.3909  -10.2587   13.9234 C   0  0  0  0  0  0  0  0  0  0  0  0
   12.5218  -11.2608   11.9195 H   0  0  0  0  0  0  0  0  0  0  0  0
   17.6836   -8.8355    9.5298 C   0  0  0  0  0  0  0  0  0  0  0  0
   16.5287   -8.8406    8.7958 N   0  0  0  0  0  0  0  0  0  0  0  0
   16.4708   -8.2897    7.5416 C   0  0  0  0  0  0  0  0  0  0  0  0
   17.5786   -7.7145    6.9853 N   0  0  0  0  0  0  0  0  0  0  0  0
   18.7234   -7.7078    7.7083 C   0  0  0  0  0  0  0  0  0  0  0  0
   19.9017   -7.1960    7.3334 N   0  0  0  0  0  0  0  0  0  0  0  0
   20.6905   -7.4552    8.4119 C   0  0  0  0  0  0  0  0  0  0  0  0
   20.0472   -8.1000    9.4238 N   0  0  0  0  0  0  0  0  0  0  0  0
   18.8039   -8.2440    8.9442 C   0  0  0  0  0  0  0  0  0  0  0  0
   20.1383   -6.7458    6.4904 H   0  0  0  0  0  0  0  0  0  0  0  0
   15.9483   -9.9241   14.8483 C   0  0  0  0  0  0  0  0  0  0  0  0
   15.5743   -8.6086   14.5350 C   0  0  0  0  0  0  0  0  0  0  0  0
   15.3616   -7.6779   15.5548 C   0  0  0  0  0  0  0  0  0  0  0  0
   15.5215   -8.0490   16.8982 C   0  0  0  0  0  0  0  0  0  0  0  0
   15.8954   -9.3614   17.2056 C   0  0  0  0  0  0  0  0  0  0  0  0
   16.1087  -10.2945   16.1869 C   0  0  0  0  0  0  0  0  0  0  0  0
   15.3088   -7.1230   17.9720 N   0  0  0  0  0  0  0  0  0  0  0  0
   14.1265   -6.9954   18.7726 C   0  0  0  0  0  0  0  0  0  0  0  0
   13.1200   -7.7265   18.5746 O   0  0  0  0  0  0  0  0  0  0  0  0
   16.0515   -6.5115   18.1810 H   0  0  0  0  0  0  0  0  0  0  0  0
   14.1008   -6.0025   19.8825 C   0  0  0  0  0  0  0  0  0  0  0  0
   14.5712   -6.6323   21.1480 C   0  0  0  0  0  0  0  0  0  0  0  0
   15.8055   -6.4247   21.7388 C   0  0  0  0  0  0  0  0  0  0  0  0
   15.9853   -7.1986   22.8944 C   0  0  0  0  0  0  0  0  0  0  0  0
   14.9060   -8.0217   23.2105 C   0  0  0  0  0  0  0  0  0  0  0  0
   13.7278   -7.7753   22.0345 S   0  0  0  0  0  0  0  0  0  0  0  0
  1 13  1  0  0  0
 13 14  2  0  0  0
 14 15  1  0  0  0
 15 16  2  0  0  0
 16 17  1  0  0  0
 17 18  1  0  0  0
 18 19  1  0  0  0
 19 20  2  0  0  0
 20 21  1  0  0  0
  1  2  1  0  0  0
  2  3  2  0  0  0
  3  4  1  0  0  0
  4  5  1  0  0  0
  5  6  1  0  0  0
  6  7  1  0  0  0
  7  8  1  0  0  0
  7  9  2  0  0  0
  9 10  1  0  0  0
  5 23  1  0  0  0
 23 24  2  0  0  0
 24 25  1  0  0  0
 25 26  2  0  0  0
 26 27  1  0  0  0
 27 28  2  0  0  0
 26 29  1  0  0  0
 29 30  1  0  0  0
 30 31  2  0  0  0
 30 33  1  0  0  0
 33 34  1  0  0  0
 34 35  2  0  0  0
 35 36  1  0  0  0
 36 37  2  0  0  0
 37 38  1  0  0  0
  3 11  1  0  0  0
 10  1  1  0  0  0
 28 23  1  0  0  0
 38 34  1  0  0  0
 21 13  1  0  0  0
 10  4  2  0  0  0
 21 17  2  0  0  0
 18 22  1  0  0  0
  8 12  1  0  0  0
 29 32  1  0  0  0
M  END
>  <minimizedAffinity>
2.53000

>  <minimizedRMSD>
1.71449

$$$$
CSSS00776402044


 27 30  0  0  0  0  0  0  0  0999 V2000
   15.5716   -8.3484   12.5281 C   0  0  0  0  0  0  0  0  0  0  0  0
   15.6049   -7.0763   13.3644 C   0  0  0  0  0  0  0  0  0  0  0  0
   16.4931   -7.3653   14.5602 C   0  0  0  0  0  0  0  0  0  0  0  0
   16.6881   -8.8006   14.5683 N   0  0  0  0  0  0  0  0  0  0  0  0
   16.0632   -9.4599   13.4392 C   0  0  0  0  0  0  0  0  0  0  0  0
   17.3281   -9.4871   15.6568 C   0  0  0  0  0  0  0  0  0  0  0  0
   17.5541   -8.8581   16.7265 O   0  0  0  0  0  0  0  0  0  0  0  0
   17.7509  -10.9058   15.5401 C   0  0  0  0  0  0  0  0  0  0  0  0
   17.9500  -11.4443   14.3034 N   0  0  0  0  0  0  0  0  0  0  0  0
   18.3578  -12.7289   14.1260 C   0  0  0  0  0  0  0  0  0  0  0  0
   18.5922  -13.5463   15.2304 C   0  0  0  0  0  0  0  0  0  0  0  0
   18.4023  -13.0287   16.5104 C   0  0  0  0  0  0  0  0  0  0  0  0
   17.9820  -11.7080   16.6777 C   0  0  0  0  0  0  0  0  0  0  0  0
   17.7889  -11.2187   17.9644 O   0  0  0  0  0  0  0  0  0  0  0  0
   17.9491  -11.7707   18.7045 H   0  0  0  0  0  0  0  0  0  0  0  0
   16.4813   -8.2021   11.4008 N   0  0  0  0  0  0  0  0  0  0  0  0
   17.0897   -7.4282   11.3838 H   0  0  0  0  0  0  0  0  0  0  0  0
   19.4805   -6.7231    7.0539 C   0  0  0  0  0  0  0  0  0  0  0  0
   18.6148   -7.7780    7.6420 C   0  0  0  0  0  0  0  0  0  0  0  0
   18.0166   -7.7013    8.9000 C   0  0  0  0  0  0  0  0  0  0  0  0
   17.2640   -8.8498    9.1671 C   0  0  0  0  0  0  0  0  0  0  0  0
   16.5293   -9.1345   10.3167 C   0  0  0  0  0  0  0  0  0  0  0  0
   15.8582  -10.3225   10.3839 N   0  0  0  0  0  0  0  0  0  0  0  0
   15.8968  -11.2236    9.3566 C   0  0  0  0  0  0  0  0  0  0  0  0
   16.6136  -10.9544    8.2286 N   0  0  0  0  0  0  0  0  0  0  0  0
   17.2828   -9.7799    8.1490 C   0  0  0  0  0  0  0  0  0  0  0  0
   18.2232   -9.2356    6.8738 S   0  0  0  0  0  0  0  0  0  0  0  0
 18 19  1  0  0  0
 19 20  2  0  0  0
 20 21  1  0  0  0
 21 22  2  0  0  0
 22 16  1  0  0  0
  1 16  1  0  0  0
  1  2  1  0  0  0
  2  3  1  0  0  0
  3  4  1  0  0  0
  4  5  1  0  0  0
  4  6  1  0  0  0
  6  7  2  0  0  0
  6  8  1  0  0  0
  8  9  2  0  0  0
  9 10  1  0  0  0
 10 11  2  0  0  0
 11 12  1  0  0  0
 12 13  2  0  0  0
 13 14  1  0  0  0
 22 23  1  0  0  0
 23 24  2  0  0  0
 24 25  1  0  0  0
 25 26  2  0  0  0
 26 27  1  0  0  0
 27 19  1  0  0  0
 26 21  1  0  0  0
  5  1  1  0  0  0
 13  8  1  0  0  0
 16 17  1  0  0  0
 14 15  1  0  0  0
M  END
>  <minimizedAffinity>
2.56086

>  <minimizedRMSD>
1.88680

$$$$
CSC027286070 CSSS00027286070 MCULE-7697799047 MolPort-020-091-549 Z1172204167


 24 27  0  0  0  0  0  0  0  0999 V2000
   16.0112   -9.0874   13.7874 C   0  0  0  0  0  0  0  0  0  0  0  0
   15.4186  -10.2071   12.9299 C   0  0  0  0  0  0  0  0  0  0  0  0
   14.9334   -9.6483   11.5955 C   0  0  0  0  0  0  0  0  0  0  0  0
   16.0167   -8.9100   10.9507 N   0  0  0  0  0  0  0  0  0  0  0  0
   16.6228   -7.8235   11.7158 C   0  0  0  0  0  0  0  0  0  0  0  0
   17.1359   -8.3617   13.0471 C   0  0  0  0  0  0  0  0  0  0  0  0
   16.5315   -9.3545    9.6797 C   0  0  0  0  0  0  0  0  0  0  0  0
   17.5527   -8.6872    8.9848 C   0  0  0  0  0  0  0  0  0  0  0  0
   17.9955   -9.1694    7.7697 C   0  0  0  0  0  0  0  0  0  0  0  0
   19.0039   -8.4109    7.1684 C   0  0  0  0  0  0  0  0  0  0  0  0
   19.3636   -7.2945    7.9274 C   0  0  0  0  0  0  0  0  0  0  0  0
   18.4107   -7.2858    9.3264 S   0  0  0  0  0  0  0  0  0  0  0  0
   17.4553  -10.2890    7.2300 N   0  0  0  0  0  0  0  0  0  0  0  0
   16.4611  -10.9414    7.8951 C   0  0  0  0  0  0  0  0  0  0  0  0
   16.0104  -10.4750    9.0971 N   0  0  0  0  0  0  0  0  0  0  0  0
   17.3122  -10.6936   15.2484 N   0  0  0  0  0  0  0  0  0  0  0  0
   16.5027   -9.6267   15.0939 C   0  0  0  0  0  0  0  0  0  0  0  0
   16.1766   -9.0845   16.2832 N   0  0  0  0  0  0  0  0  0  0  0  0
   16.7737   -9.8109   17.2185 N   0  0  0  0  0  0  0  0  0  0  0  0
   17.4558  -10.7823   16.5835 C   0  0  0  0  0  0  0  0  0  0  0  0
   18.3997  -12.0455   17.4312 S   0  0  0  0  0  0  0  0  0  0  0  0
   18.3335  -11.8368   18.7734 H   0  0  0  0  0  0  0  0  0  0  0  0
   19.2730  -11.1698   13.8729 C   0  0  0  0  0  0  0  0  0  0  0  0
   17.8521  -11.5742   14.2189 C   0  0  0  0  0  0  0  0  0  0  0  0
 23 24  1  0  0  0
 24 16  1  0  0  0
 16 17  1  0  0  0
 17  1  1  0  0  0
  1  2  1  0  0  0
  2  3  1  0  0  0
  3  4  1  0  0  0
  4  7  1  0  0  0
  7  8  1  0  0  0
  8  9  2  0  0  0
  9 10  1  0  0  0
 10 11  2  0  0  0
 11 12  1  0  0  0
  9 13  1  0  0  0
 13 14  2  0  0  0
 14 15  1  0  0  0
  4  5  1  0  0  0
  5  6  1  0  0  0
 17 18  2  0  0  0
 18 19  1  0  0  0
 19 20  2  0  0  0
 20 21  1  0  0  0
 20 16  1  0  0  0
  6  1  1  0  0  0
 15  7  2  0  0  0
 12  8  1  0  0  0
 21 22  1  0  0  0
M  END
>  <minimizedAffinity>
2.58091

>  <minimizedRMSD>
2.21103

$$$$
CSC026183979 9960037 CSSS00026183979 MCULE-4453264867 MolPort-004-143-416 PubChem-16279206 Z24664930 ZINC000009960037


 36 39  0  0  0  0  0  0  0  0999 V2000
   15.2157   -7.3934   16.0582 N   0  0  0  0  0  0  0  0  0  0  0  0
   15.5123   -8.4422   15.1273 C   0  0  0  0  0  0  0  0  0  0  0  0
   15.4013   -9.6544   15.4491 O   0  0  0  0  0  0  0  0  0  0  0  0
   15.2924   -6.4727   15.7180 H   0  0  0  0  0  0  0  0  0  0  0  0
   15.6298   -8.2625   18.3400 C   0  0  0  0  0  0  0  0  0  0  0  0
   14.8191   -7.5347   17.4321 C   0  0  0  0  0  0  0  0  0  0  0  0
   13.6148   -6.9744   17.8873 C   0  0  0  0  0  0  0  0  0  0  0  0
   13.2112   -7.1239   19.2142 C   0  0  0  0  0  0  0  0  0  0  0  0
   14.0059   -7.8418   20.1055 C   0  0  0  0  0  0  0  0  0  0  0  0
   15.2047   -8.4064   19.6696 C   0  0  0  0  0  0  0  0  0  0  0  0
   16.9173   -8.8867   17.9524 C   0  0  0  0  0  0  0  0  0  0  0  0
   17.8161   -8.2126   17.3777 O   0  0  0  0  0  0  0  0  0  0  0  0
   17.1411  -10.2373   18.2430 O   0  0  0  0  0  0  0  0  0  0  0  0
   18.2105  -10.9779   17.6647 C   0  0  0  0  0  0  0  0  0  0  0  0
   18.4388  -11.7261   15.2656 N   0  0  0  0  0  0  0  0  0  0  0  0
   17.7191  -11.7644   16.4979 C   0  0  0  0  0  0  0  0  0  0  0  0
   16.6530  -12.4285   16.5984 O   0  0  0  0  0  0  0  0  0  0  0  0
   19.2745  -11.2078   15.2181 H   0  0  0  0  0  0  0  0  0  0  0  0
   17.9777  -12.4276   14.0785 C   0  0  0  0  0  0  0  0  0  0  0  0
   20.0478  -11.5265   13.1119 C   0  0  0  0  0  0  0  0  0  0  0  0
   18.8671  -12.1109   12.9220 C   0  0  0  0  0  0  0  0  0  0  0  0
   15.9697   -8.0914   13.7542 C   0  0  0  0  0  0  0  0  0  0  0  0
   17.1528   -9.3313   13.1388 S   0  0  0  0  0  0  0  0  0  0  0  0
   16.1592   -9.7195   11.6947 C   0  0  0  0  0  0  0  0  0  0  0  0
   16.5946   -9.4858   10.3782 C   0  0  0  0  0  0  0  0  0  0  0  0
   15.7339   -9.8144    9.3424 C   0  0  0  0  0  0  0  0  0  0  0  0
   16.4163   -9.4592    7.8499 S   0  0  0  0  0  0  0  0  0  0  0  0
   17.8423   -8.8486    8.5153 C   0  0  0  0  0  0  0  0  0  0  0  0
   17.8108   -8.9517    9.9090 C   0  0  0  0  0  0  0  0  0  0  0  0
   18.9429   -8.4361   10.7524 C   0  0  0  0  0  0  0  0  0  0  0  0
   20.2431   -8.3480    9.9476 C   0  0  0  0  0  0  0  0  0  0  0  0
   20.0057   -7.6145    8.6259 C   0  0  0  0  0  0  0  0  0  0  0  0
   19.0421   -8.4050    7.7358 C   0  0  0  0  0  0  0  0  0  0  0  0
   14.5105  -10.3528    9.5564 N   0  0  0  0  0  0  0  0  0  0  0  0
   14.1073  -10.5800   10.8363 C   0  0  0  0  0  0  0  0  0  0  0  0
   14.9247  -10.2673   11.8838 N   0  0  0  0  0  0  0  0  0  0  0  0
 20 21  2  0  0  0
 21 19  1  0  0  0
 19 15  1  0  0  0
 15 16  1  0  0  0
 16 14  1  0  0  0
 14 13  1  0  0  0
 13 11  1  0  0  0
 11  5  1  0  0  0
  5  6  2  0  0  0
  6  1  1  0  0  0
  1  2  1  0  0  0
  2 22  1  0  0  0
 22 23  1  0  0  0
 23 24  1  0  0  0
 24 25  1  0  0  0
 25 26  2  0  0  0
 26 27  1  0  0  0
 27 28  1  0  0  0
 28 29  2  0  0  0
 29 30  1  0  0  0
 30 31  1  0  0  0
 31 32  1  0  0  0
 32 33  1  0  0  0
 26 34  1  0  0  0
 34 35  2  0  0  0
 35 36  1  0  0  0
  2  3  2  0  0  0
  6  7  1  0  0  0
  7  8  2  0  0  0
  8  9  1  0  0  0
  9 10  2  0  0  0
 11 12  2  0  0  0
 16 17  2  0  0  0
 10  5  1  0  0  0
 36 24  2  0  0  0
 29 25  1  0  0  0
 33 28  1  0  0  0
 15 18  1  0  0  0
  1  4  1  0  0  0
M  END
>  <minimizedAffinity>
2.61914

>  <minimizedRMSD>
3.93629

$$$$
19770303 CSSS00159516966 MCULE-7272466385 MolPort-005-103-778 PubChem-28330682 ZINC000019770303 ZINC19770303


 36 40  0  0  0  0  0  0  0  0999 V2000
   16.2881   -9.2024   13.6022 C   0  0  0  0  0  0  0  0  0  0  0  0
   17.6522   -8.9979   13.8543 C   0  0  0  0  0  0  0  0  0  0  0  0
   18.1071   -8.7498   15.1496 C   0  0  0  0  0  0  0  0  0  0  0  0
   17.2067   -8.7108   16.2250 C   0  0  0  0  0  0  0  0  0  0  0  0
   15.8390   -8.9101   15.9803 C   0  0  0  0  0  0  0  0  0  0  0  0
   15.3901   -9.1582   14.6797 C   0  0  0  0  0  0  0  0  0  0  0  0
   12.5015  -10.6032   10.7077 C   0  0  0  0  0  0  0  0  0  0  0  0
   13.9321  -10.2258   10.8428 C   0  0  0  0  0  0  0  0  0  0  0  0
   14.4444   -9.8824   12.0925 C   0  0  0  0  0  0  0  0  0  0  0  0
   15.7941   -9.5294   12.2374 C   0  0  0  0  0  0  0  0  0  0  0  0
   16.6147   -9.5158   11.0813 C   0  0  0  0  0  0  0  0  0  0  0  0
   17.9652   -9.1323   11.1228 C   0  0  0  0  0  0  0  0  0  0  0  0
   18.7410   -9.1247    9.9611 C   0  0  0  0  0  0  0  0  0  0  0  0
   18.1757   -9.4951    8.7395 C   0  0  0  0  0  0  0  0  0  0  0  0
   16.8316   -9.8676    8.6753 C   0  0  0  0  0  0  0  0  0  0  0  0
   16.0478   -9.8754    9.8329 C   0  0  0  0  0  0  0  0  0  0  0  0
   14.7368  -10.2190    9.7502 N   0  0  0  0  0  0  0  0  0  0  0  0
   17.6538   -8.4986   17.5377 O   0  0  0  0  0  0  0  0  0  0  0  0
   18.6887   -9.2649   18.1501 C   0  0  0  0  0  0  0  0  0  0  0  0
   18.4647  -10.7178   17.8996 C   0  0  0  0  0  0  0  0  0  0  0  0
   19.2005  -11.5690   18.4663 O   0  0  0  0  0  0  0  0  0  0  0  0
   17.4457  -11.1295   16.9866 N   0  0  0  0  0  0  0  0  0  0  0  0
   16.7096  -10.5083   16.7831 H   0  0  0  0  0  0  0  0  0  0  0  0
   17.4601  -12.4361   16.3479 C   0  0  0  0  0  0  0  0  0  0  0  0
   18.1539  -12.3394   15.0313 C   0  0  0  0  0  0  0  0  0  0  0  0
   17.7090  -12.9345   13.9072 N   0  0  0  0  0  0  0  0  0  0  0  0
   18.4787  -12.6276   12.8272 C   0  0  0  0  0  0  0  0  0  0  0  0
   19.5466  -11.7658   13.0776 C   0  0  0  0  0  0  0  0  0  0  0  0
   19.4978  -11.3917   14.7197 S   0  0  0  0  0  0  0  0  0  0  0  0
   14.8454   -8.8610   17.0934 C   0  0  0  0  0  0  0  0  0  0  0  0
   14.6414   -7.4807   17.5225 N   0  0  0  0  0  0  0  0  0  0  0  0
   15.1491   -7.3166   18.8931 C   0  0  0  0  0  0  0  0  0  0  0  0
   14.2140   -7.9643   19.9224 C   0  0  0  0  0  0  0  0  0  0  0  0
   12.9327   -7.4005   19.8186 O   0  0  0  0  0  0  0  0  0  0  0  0
   12.4181   -7.8183   18.5812 C   0  0  0  0  0  0  0  0  0  0  0  0
   13.2088   -7.1614   17.4416 C   0  0  0  0  0  0  0  0  0  0  0  0
  7  8  1  0  0  0
  8  9  2  0  0  0
  9 10  1  0  0  0
 10  1  1  0  0  0
 10 11  2  0  0  0
  1  2  2  0  0  0
  2  3  1  0  0  0
  3  4  2  0  0  0
  4 18  1  0  0  0
  4  5  1  0  0  0
 18 19  1  0  0  0
 19 20  1  0  0  0
 20 21  2  0  0  0
 20 22  1  0  0  0
 22 24  1  0  0  0
 24 25  1  0  0  0
 25 26  2  0  0  0
 26 27  1  0  0  0
 27 28  2  0  0  0
 28 29  1  0  0  0
 29 25  1  0  0  0
  5 30  1  0  0  0
  5  6  2  0  0  0
 30 31  1  0  0  0
 31 32  1  0  0  0
 32 33  1  0  0  0
 33 34  1  0  0  0
 34 35  1  0  0  0
 35 36  1  0  0  0
 36 31  1  0  0  0
  6  1  1  0  0  0
 11 12  1  0  0  0
 12 13  2  0  0  0
 13 14  1  0  0  0
 14 15  2  0  0  0
 15 16  1  0  0  0
 16 17  2  0  0  0
 16 11  1  0  0  0
 17  8  1  0  0  0
 22 23  1  0  0  0
M  END
>  <minimizedAffinity>
2.71315

>  <minimizedRMSD>
3.23703

$$$$
95357759 CSSS00159874386 MCULE-5526442889 MolPort-028-576-902 PubChem-72852185 ZINC000095357759


 29 32  0  0  0  0  0  0  0  0999 V2000
   17.7581   -9.5665   11.2043 C   0  0  0  0  0  0  0  0  0  0  0  0
   18.0664   -9.0219    9.9330 C   0  0  0  0  0  0  0  0  0  0  0  0
   19.3655   -8.6223    9.5794 C   0  0  0  0  0  0  0  0  0  0  0  0
   19.6298   -8.0902    8.3149 C   0  0  0  0  0  0  0  0  0  0  0  0
   18.5980   -7.9501    7.3850 C   0  0  0  0  0  0  0  0  0  0  0  0
   17.2998   -8.3422    7.7173 C   0  0  0  0  0  0  0  0  0  0  0  0
   17.0276   -8.8757    8.9804 C   0  0  0  0  0  0  0  0  0  0  0  0
   15.7599   -9.2529    9.2866 N   0  0  0  0  0  0  0  0  0  0  0  0
   15.4346   -9.7789   10.4983 C   0  0  0  0  0  0  0  0  0  0  0  0
   16.4335   -9.9393   11.4658 C   0  0  0  0  0  0  0  0  0  0  0  0
   14.0378  -10.1733   10.7818 C   0  0  0  0  0  0  0  0  0  0  0  0
   12.9862   -9.6303   10.0314 C   0  0  0  0  0  0  0  0  0  0  0  0
   11.6708  -10.0091   10.3076 C   0  0  0  0  0  0  0  0  0  0  0  0
   11.4121  -10.9012   11.3005 N   0  0  0  0  0  0  0  0  0  0  0  0
   12.4114  -11.4449   12.0454 C   0  0  0  0  0  0  0  0  0  0  0  0
   13.7396  -11.0913   11.7997 C   0  0  0  0  0  0  0  0  0  0  0  0
   18.5108  -10.7380   13.3059 N   0  0  0  0  0  0  0  0  0  0  0  0
   18.7587   -9.7661   12.2859 C   0  0  0  0  0  0  0  0  0  0  0  0
   19.8218   -9.0889   12.3215 O   0  0  0  0  0  0  0  0  0  0  0  0
   17.6851  -11.2725   13.2627 H   0  0  0  0  0  0  0  0  0  0  0  0
   19.4365  -10.9638   14.4047 C   0  0  0  0  0  0  0  0  0  0  0  0
   19.0912  -10.0512   15.5663 C   0  0  0  0  0  0  0  0  0  0  0  0
   17.8206  -10.8200   16.6143 S   0  0  0  0  0  0  0  0  0  0  0  0
   16.2807   -8.9995   15.2075 N   0  0  0  0  0  0  0  0  0  0  0  0
   15.4770   -7.9711   15.5470 C   0  0  0  0  0  0  0  0  0  0  0  0
   15.4267   -7.8067   16.8836 N   0  0  0  0  0  0  0  0  0  0  0  0
   16.2002   -8.7304   17.4256 N   0  0  0  0  0  0  0  0  0  0  0  0
   16.7074   -9.4383   16.4050 C   0  0  0  0  0  0  0  0  0  0  0  0
   16.3702   -8.8709   18.3851 H   0  0  0  0  0  0  0  0  0  0  0  0
 24 25  1  0  0  0
 25 26  2  0  0  0
 26 27  1  0  0  0
 27 28  1  0  0  0
 28 23  1  0  0  0
 23 22  1  0  0  0
 22 21  1  0  0  0
 21 17  1  0  0  0
 17 18  1  0  0  0
 18 19  2  0  0  0
 18  1  1  0  0  0
  1  2  1  0  0  0
  2  3  2  0  0  0
  3  4  1  0  0  0
  4  5  2  0  0  0
  5  6  1  0  0  0
  6  7  2  0  0  0
  7  8  1  0  0  0
  8  9  2  0  0  0
  9 11  1  0  0  0
 11 12  2  0  0  0
 12 13  1  0  0  0
 13 14  2  0  0  0
 14 15  1  0  0  0
 15 16  2  0  0  0
  9 10  1  0  0  0
 28 24  2  0  0  0
 10  1  2  0  0  0
  7  2  1  0  0  0
 16 11  1  0  0  0
 27 29  1  0  0  0
 17 20  1  0  0  0
M  END
>  <minimizedAffinity>
2.75130

>  <minimizedRMSD>
1.46345

$$$$
CSSS14790108212 Z8302762630


 31 34  0  0  0  0  0  0  0  0999 V2000
   17.3338   -8.8534   12.0191 N   0  0  0  0  0  0  0  0  0  0  0  0
   17.9280  -10.0096   11.3565 C   0  0  0  0  0  0  0  0  0  0  0  0
   19.1317   -9.5732   10.5282 C   0  0  0  0  0  0  0  0  0  0  0  0
   18.8251   -8.3576    9.6439 C   0  0  0  0  0  0  0  0  0  0  0  0
   18.0720   -7.2245   10.3530 C   0  0  0  0  0  0  0  0  0  0  0  0
   16.9022   -7.7344   11.1885 C   0  0  0  0  0  0  0  0  0  0  0  0
   18.2681   -8.7069    8.3330 N   0  0  0  0  0  0  0  0  0  0  0  0
   17.1787   -9.4528    7.9916 C   0  0  0  0  0  0  0  0  0  0  0  0
   16.2621  -10.1154    8.9592 C   0  0  0  0  0  0  0  0  0  0  0  0
   16.9867   -9.5488    6.6498 N   0  0  0  0  0  0  0  0  0  0  0  0
   18.0045   -8.8291    6.1467 C   0  0  0  0  0  0  0  0  0  0  0  0
   18.2925   -8.5923    4.8050 C   0  0  0  0  0  0  0  0  0  0  0  0
   19.4204   -7.8024    4.5138 C   0  0  0  0  0  0  0  0  0  0  0  0
   20.2187   -7.2777    5.5548 C   0  0  0  0  0  0  0  0  0  0  0  0
   19.8995   -7.5363    6.9006 C   0  0  0  0  0  0  0  0  0  0  0  0
   18.7749   -8.3228    7.1520 C   0  0  0  0  0  0  0  0  0  0  0  0
   17.6117   -9.5148   15.6197 C   0  0  0  0  0  0  0  0  0  0  0  0
   16.4668   -8.9519   16.0809 N   0  0  0  0  0  0  0  0  0  0  0  0
   15.6056   -8.3570   15.2179 C   0  0  0  0  0  0  0  0  0  0  0  0
   14.3524   -7.7408   15.7257 C   0  0  0  0  0  0  0  0  0  0  0  0
   15.8879   -8.3249   13.8913 N   0  0  0  0  0  0  0  0  0  0  0  0
   17.0327   -8.8874   13.4209 C   0  0  0  0  0  0  0  0  0  0  0  0
   17.8930   -9.4788   14.2910 N   0  0  0  0  0  0  0  0  0  0  0  0
   18.5124  -10.1385   16.5377 N   0  0  0  0  0  0  0  0  0  0  0  0
   19.1601   -9.5737   17.0182 H   0  0  0  0  0  0  0  0  0  0  0  0
   18.5148  -11.5735   16.7944 C   0  0  0  0  0  0  0  0  0  0  0  0
   17.9079  -11.8527   18.1606 C   0  0  0  0  0  0  0  0  0  0  0  0
   17.7899  -12.3337   15.6759 C   0  0  0  0  0  0  0  0  0  0  0  0
   16.7074  -13.2611   16.2118 C   0  0  0  0  0  0  0  0  0  0  0  0
   18.6688  -12.4561   13.6488 C   0  0  0  0  0  0  0  0  0  0  0  0
   18.7031  -13.0590   14.9073 O   0  0  0  0  0  0  0  0  0  0  0  0
 30 31  1  0  0  0
 31 28  1  0  0  0
 28 29  1  0  0  0
 28 26  1  0  0  0
 26 27  1  0  0  0
 26 24  1  0  0  0
 24 17  1  0  0  0
 17 18  2  0  0  0
 18 19  1  0  0  0
 19 20  1  0  0  0
 19 21  2  0  0  0
 21 22  1  0  0  0
 22 23  2  0  0  0
 22  1  1  0  0  0
  1  2  1  0  0  0
  2  3  1  0  0  0
  3  4  1  0  0  0
  4  5  1  0  0  0
  5  6  1  0  0  0
  4  7  1  0  0  0
  7  8  1  0  0  0
  8  9  1  0  0  0
  8 10  2  0  0  0
 10 11  1  0  0  0
 11 12  2  0  0  0
 12 13  1  0  0  0
 13 14  2  0  0  0
 14 15  1  0  0  0
 15 16  2  0  0  0
 23 17  1  0  0  0
  6  1  1  0  0  0
 16  7  1  0  0  0
 16 11  1  0  0  0
 24 25  1  0  0  0
M  END
>  <minimizedAffinity>
2.80069

>  <minimizedRMSD>
2.88362

$$$$
CSSS14831855205 Z8571459640


 33 35  0  0  0  0  0  0  0  0999 V2000
   15.2335  -10.5537   12.3349 C   0  0  0  0  0  0  0  0  0  0  0  0
   13.7233  -10.3863   12.3749 C   0  0  0  0  0  0  0  0  0  0  0  0
   13.3161   -9.7388   11.0571 C   0  0  0  0  0  0  0  0  0  0  0  0
   12.9149   -8.2964   11.2935 C   0  0  0  0  0  0  0  0  0  0  0  0
   12.1627  -10.4984   10.4363 C   0  0  0  0  0  0  0  0  0  0  0  0
   14.5272   -9.7922   10.1463 C   0  0  0  0  0  0  0  0  0  0  0  0
   15.6375  -10.2040   10.9839 N   0  0  0  0  0  0  0  0  0  0  0  0
   16.9621  -10.4352   10.4779 C   0  0  0  0  0  0  0  0  0  0  0  0
   17.7505  -11.1815   11.1195 O   0  0  0  0  0  0  0  0  0  0  0  0
   17.4151   -9.8472    9.1995 C   0  0  0  0  0  0  0  0  0  0  0  0
   16.7546  -10.2280    8.0260 C   0  0  0  0  0  0  0  0  0  0  0  0
   17.1256   -9.7202    6.8227 N   0  0  0  0  0  0  0  0  0  0  0  0
   18.1473   -8.8347    6.7080 C   0  0  0  0  0  0  0  0  0  0  0  0
   18.4943   -8.3348    5.4494 C   0  0  0  0  0  0  0  0  0  0  0  0
   19.5520   -7.4309    5.3210 C   0  0  0  0  0  0  0  0  0  0  0  0
   20.2681   -7.0250    6.4500 C   0  0  0  0  0  0  0  0  0  0  0  0
   19.9278   -7.5206    7.7116 C   0  0  0  0  0  0  0  0  0  0  0  0
   18.8650   -8.4271    7.8557 C   0  0  0  0  0  0  0  0  0  0  0  0
   18.5002   -8.9459    9.1133 C   0  0  0  0  0  0  0  0  0  0  0  0
   19.2994   -8.5892   10.3309 C   0  0  0  0  0  0  0  0  0  0  0  0
   16.4513  -10.1740   14.5262 N   0  0  0  0  0  0  0  0  0  0  0  0
   15.8757   -9.6419   13.3312 C   0  0  0  0  0  0  0  0  0  0  0  0
   15.9178   -8.4044   13.0989 O   0  0  0  0  0  0  0  0  0  0  0  0
   16.4263  -11.1469   14.6746 H   0  0  0  0  0  0  0  0  0  0  0  0
   17.0736   -9.3239   15.5317 C   0  0  0  0  0  0  0  0  0  0  0  0
   16.2811   -8.0609   15.6621 C   0  0  0  0  0  0  0  0  0  0  0  0
   16.6951   -6.9893   15.1451 O   0  0  0  0  0  0  0  0  0  0  0  0
   15.0466   -8.0740   16.3682 N   0  0  0  0  0  0  0  0  0  0  0  0
   14.7201   -8.9097   16.7734 H   0  0  0  0  0  0  0  0  0  0  0  0
   14.5185   -7.2473   16.4516 H   0  0  0  0  0  0  0  0  0  0  0  0
   19.3519   -8.7223   16.4029 C   0  0  0  0  0  0  0  0  0  0  0  0
   18.5340   -9.0395   15.1629 C   0  0  0  0  0  0  0  0  0  0  0  0
   19.1593  -10.2413   14.4759 C   0  0  0  0  0  0  0  0  0  0  0  0
 31 32  1  0  0  0
 32 33  1  0  0  0
 32 25  1  0  0  0
 25 21  1  0  0  0
 21 22  1  0  0  0
 22 23  2  0  0  0
 22  1  1  0  0  0
  1  2  1  0  0  0
  2  3  1  0  0  0
  3  4  1  0  0  0
  3  5  1  0  0  0
  3  6  1  0  0  0
  6  7  1  0  0  0
  7  8  1  0  0  0
  8  9  2  0  0  0
  8 10  1  0  0  0
 10 11  2  0  0  0
 11 12  1  0  0  0
 12 13  2  0  0  0
 13 14  1  0  0  0
 14 15  2  0  0  0
 15 16  1  0  0  0
 16 17  2  0  0  0
 17 18  1  0  0  0
 18 19  2  0  0  0
 19 20  1  0  0  0
 25 26  1  0  0  0
 26 27  2  0  0  0
 26 28  1  0  0  0
  7  1  1  0  0  0
 19 10  1  0  0  0
 18 13  1  0  0  0
 21 24  1  0  0  0
 28 29  1  0  0  0
 28 30  1  0  0  0
M  END
>  <minimizedAffinity>
2.84017

>  <minimizedRMSD>
2.38553

$$$$
14536560 CSSS00159763945 MCULE-4252275910 MolPort-004-981-760 PubChem-26139976 ZINC000014536560


 33 37  0  0  0  0  0  0  0  0999 V2000
   16.9144   -9.2588   15.9962 C   0  0  0  0  0  0  0  0  0  0  0  0
   16.8151   -8.2159   14.9323 C   0  0  0  0  0  0  0  0  0  0  0  0
   17.2209   -8.7948   13.6463 N   0  0  0  0  0  0  0  0  0  0  0  0
   18.3890   -9.6879   13.6028 C   0  0  0  0  0  0  0  0  0  0  0  0
   18.2294  -10.8801   14.5620 C   0  0  0  0  0  0  0  0  0  0  0  0
   17.5720  -10.4487   15.8370 C   0  0  0  0  0  0  0  0  0  0  0  0
   17.4569  -11.1594   16.9722 N   0  0  0  0  0  0  0  0  0  0  0  0
   16.7666  -10.4641   17.8652 N   0  0  0  0  0  0  0  0  0  0  0  0
   16.4239   -9.2881   17.2908 C   0  0  0  0  0  0  0  0  0  0  0  0
   17.9896  -12.4884   17.2170 C   0  0  0  0  0  0  0  0  0  0  0  0
   16.7164   -8.2225   12.4290 C   0  0  0  0  0  0  0  0  0  0  0  0
   16.2239   -7.0611   12.4434 O   0  0  0  0  0  0  0  0  0  0  0  0
   16.7780   -8.9567   11.1466 C   0  0  0  0  0  0  0  0  0  0  0  0
   17.9540   -8.8862   10.3860 C   0  0  0  0  0  0  0  0  0  0  0  0
   18.0613   -9.5658    9.1695 C   0  0  0  0  0  0  0  0  0  0  0  0
   16.9886  -10.3196    8.6898 C   0  0  0  0  0  0  0  0  0  0  0  0
   15.8026  -10.3874    9.4222 C   0  0  0  0  0  0  0  0  0  0  0  0
   15.6853   -9.7008   10.6515 C   0  0  0  0  0  0  0  0  0  0  0  0
   14.4999   -9.7511   11.3194 N   0  0  0  0  0  0  0  0  0  0  0  0
   13.4463  -10.4633   10.8402 C   0  0  0  0  0  0  0  0  0  0  0  0
   13.5733  -11.1539    9.6335 C   0  0  0  0  0  0  0  0  0  0  0  0
   14.7464  -11.0993    8.9495 N   0  0  0  0  0  0  0  0  0  0  0  0
   15.6429   -8.2444   17.9687 C   0  0  0  0  0  0  0  0  0  0  0  0
   14.8316   -7.5334   17.3160 O   0  0  0  0  0  0  0  0  0  0  0  0
   15.8085   -8.0404   19.3725 N   0  0  0  0  0  0  0  0  0  0  0  0
   16.4462   -8.6062   19.8649 H   0  0  0  0  0  0  0  0  0  0  0  0
   15.0642   -7.0226   20.0967 C   0  0  0  0  0  0  0  0  0  0  0  0
   15.5353   -6.9637   21.5066 C   0  0  0  0  0  0  0  0  0  0  0  0
   14.7055   -7.4098   22.5412 C   0  0  0  0  0  0  0  0  0  0  0  0
   15.1564   -7.3753   23.8644 C   0  0  0  0  0  0  0  0  0  0  0  0
   16.4394   -6.8999   24.1536 C   0  0  0  0  0  0  0  0  0  0  0  0
   17.2724   -6.4610   23.1196 C   0  0  0  0  0  0  0  0  0  0  0  0
   16.8216   -6.4953   21.7963 C   0  0  0  0  0  0  0  0  0  0  0  0
  1  2  1  0  0  0
  2  3  1  0  0  0
  3  4  1  0  0  0
  4  5  1  0  0  0
  5  6  1  0  0  0
  6  7  1  0  0  0
  7  8  1  0  0  0
  8  9  2  0  0  0
  9 23  1  0  0  0
 23 24  2  0  0  0
 23 25  1  0  0  0
 25 27  1  0  0  0
 27 28  1  0  0  0
 28 29  2  0  0  0
 29 30  1  0  0  0
 30 31  2  0  0  0
 31 32  1  0  0  0
 32 33  2  0  0  0
  7 10  1  0  0  0
  3 11  1  0  0  0
 11 12  2  0  0  0
 11 13  1  0  0  0
 13 14  2  0  0  0
 14 15  1  0  0  0
 15 16  2  0  0  0
 16 17  1  0  0  0
 17 18  2  0  0  0
 18 19  1  0  0  0
 19 20  2  0  0  0
 20 21  1  0  0  0
 21 22  2  0  0  0
  6  1  2  0  0  0
 33 28  1  0  0  0
 18 13  1  0  0  0
  9  1  1  0  0  0
 22 17  1  0  0  0
 25 26  1  0  0  0
M  END
>  <minimizedAffinity>
2.92353

>  <minimizedRMSD>
2.48120

$$$$
CSSS00132564129 MCULE-4103182099 MolPort-042-664-768 PubChem-135637479


 39 44  0  0  0  0  0  0  0  0999 V2000
   19.4360  -10.3716   13.7238 C   0  0  0  0  0  0  0  0  0  0  0  0
   18.4884  -10.1361   12.6015 C   0  0  0  0  0  0  0  0  0  0  0  0
   18.8189   -9.5108   11.4486 N   0  0  0  0  0  0  0  0  0  0  0  0
   17.7229   -9.4259   10.7018 N   0  0  0  0  0  0  0  0  0  0  0  0
   16.7063   -9.9949   11.3790 C   0  0  0  0  0  0  0  0  0  0  0  0
   17.1479  -10.4635   12.5792 C   0  0  0  0  0  0  0  0  0  0  0  0
   16.2397  -11.0094   13.6413 C   0  0  0  0  0  0  0  0  0  0  0  0
   14.9175  -11.5404   13.0364 C   0  0  0  0  0  0  0  0  0  0  0  0
   14.4220  -10.7607   11.8337 C   0  0  0  0  0  0  0  0  0  0  0  0
   13.1943  -10.7585   11.5605 O   0  0  0  0  0  0  0  0  0  0  0  0
   15.3399  -10.0626   10.9804 N   0  0  0  0  0  0  0  0  0  0  0  0
   15.0347   -9.6426   10.1440 H   0  0  0  0  0  0  0  0  0  0  0  0
   17.6676   -8.8051    9.4050 C   0  0  0  0  0  0  0  0  0  0  0  0
   18.7868   -8.2174    8.8133 C   0  0  0  0  0  0  0  0  0  0  0  0
   20.0411   -8.1063    9.2729 N   0  0  0  0  0  0  0  0  0  0  0  0
   20.6761   -7.4446    8.2667 C   0  0  0  0  0  0  0  0  0  0  0  0
   19.8717   -7.1439    7.2107 N   0  0  0  0  0  0  0  0  0  0  0  0
   18.6923   -7.6469    7.5941 C   0  0  0  0  0  0  0  0  0  0  0  0
   17.5337   -7.6138    6.8941 N   0  0  0  0  0  0  0  0  0  0  0  0
   16.4268   -8.1839    7.4566 C   0  0  0  0  0  0  0  0  0  0  0  0
   16.4989   -8.7697    8.6942 N   0  0  0  0  0  0  0  0  0  0  0  0
   20.4118   -8.4248   10.1275 H   0  0  0  0  0  0  0  0  0  0  0  0
   15.9786   -9.9900   14.7097 C   0  0  0  0  0  0  0  0  0  0  0  0
   15.9373  -10.4010   16.0455 C   0  0  0  0  0  0  0  0  0  0  0  0
   15.7074   -9.4691   17.0617 C   0  0  0  0  0  0  0  0  0  0  0  0
   15.5183   -8.1177   16.7547 C   0  0  0  0  0  0  0  0  0  0  0  0
   15.5607   -7.7058   15.4142 C   0  0  0  0  0  0  0  0  0  0  0  0
   15.7904   -8.6354   14.3970 C   0  0  0  0  0  0  0  0  0  0  0  0
   15.2833   -7.1936   17.8256 N   0  0  0  0  0  0  0  0  0  0  0  0
   14.0532   -6.9983   18.5356 C   0  0  0  0  0  0  0  0  0  0  0  0
   13.0213   -7.6624   18.2517 O   0  0  0  0  0  0  0  0  0  0  0  0
   16.0457   -6.6354   18.1021 H   0  0  0  0  0  0  0  0  0  0  0  0
   14.0047   -6.0135   19.6533 C   0  0  0  0  0  0  0  0  0  0  0  0
   14.3995   -6.6613   20.9365 C   0  0  0  0  0  0  0  0  0  0  0  0
   15.5053   -6.1857   21.6513 C   0  0  0  0  0  0  0  0  0  0  0  0
   15.8869   -6.8060   22.8449 C   0  0  0  0  0  0  0  0  0  0  0  0
   15.1662   -7.9047   23.3235 C   0  0  0  0  0  0  0  0  0  0  0  0
   14.0645   -8.3843   22.6081 C   0  0  0  0  0  0  0  0  0  0  0  0
   13.6825   -7.7645   21.4143 C   0  0  0  0  0  0  0  0  0  0  0  0
  1  2  1  0  0  0
  2  3  2  0  0  0
  3  4  1  0  0  0
  4  5  1  0  0  0
  5  6  2  0  0  0
  6  7  1  0  0  0
  7  8  1  0  0  0
  8  9  1  0  0  0
  9 10  2  0  0  0
  9 11  1  0  0  0
  7 23  1  0  0  0
 23 24  2  0  0  0
 24 25  1  0  0  0
 25 26  2  0  0  0
 26 29  1  0  0  0
 29 30  1  0  0  0
 30 31  2  0  0  0
 30 33  1  0  0  0
 33 34  1  0  0  0
 34 35  2  0  0  0
 35 36  1  0  0  0
 36 37  2  0  0  0
 37 38  1  0  0  0
 38 39  2  0  0  0
 26 27  1  0  0  0
 27 28  2  0  0  0
  4 13  1  0  0  0
 13 14  2  0  0  0
 14 15  1  0  0  0
 15 16  1  0  0  0
 16 17  2  0  0  0
 17 18  1  0  0  0
 18 19  2  0  0  0
 19 20  1  0  0  0
 20 21  2  0  0  0
  6  2  1  0  0  0
 28 23  1  0  0  0
 21 13  1  0  0  0
 11  5  1  0  0  0
 39 34  1  0  0  0
 18 14  1  0  0  0
 11 12  1  0  0  0
 29 32  1  0  0  0
 15 22  1  0  0  0
M  END
>  <minimizedAffinity>
2.98402

>  <minimizedRMSD>
1.70912

$$$$
CSSS00132612408 MolPort-023-281-853


 38 43  0  0  0  0  0  0  0  0999 V2000
   19.2612  -10.3221   13.7235 C   0  0  0  0  0  0  0  0  0  0  0  0
   18.3737  -10.0498   12.5612 C   0  0  0  0  0  0  0  0  0  0  0  0
   18.7671   -9.4029   11.4403 N   0  0  0  0  0  0  0  0  0  0  0  0
   17.7099   -9.2918   10.6421 N   0  0  0  0  0  0  0  0  0  0  0  0
   16.6566   -9.8661   11.2557 C   0  0  0  0  0  0  0  0  0  0  0  0
   17.0335  -10.3620   12.4623 C   0  0  0  0  0  0  0  0  0  0  0  0
   16.0558  -10.9226   13.4455 C   0  0  0  0  0  0  0  0  0  0  0  0
   14.7308  -11.3225   12.7477 C   0  0  0  0  0  0  0  0  0  0  0  0
   14.4022  -10.5664   11.4651 C   0  0  0  0  0  0  0  0  0  0  0  0
   13.0998  -10.6032   10.9870 O   0  0  0  0  0  0  0  0  0  0  0  0
   15.3097   -9.9203   10.7874 N   0  0  0  0  0  0  0  0  0  0  0  0
   12.4383  -11.0641   11.4645 H   0  0  0  0  0  0  0  0  0  0  0  0
   17.7245   -8.6466    9.3562 C   0  0  0  0  0  0  0  0  0  0  0  0
   18.8954   -8.1383    8.7922 C   0  0  0  0  0  0  0  0  0  0  0  0
   20.1462   -8.1303    9.2738 N   0  0  0  0  0  0  0  0  0  0  0  0
   20.8471   -7.5038    8.2890 C   0  0  0  0  0  0  0  0  0  0  0  0
   20.0864   -7.1255    7.2257 N   0  0  0  0  0  0  0  0  0  0  0  0
   18.8657   -7.5427    7.5815 C   0  0  0  0  0  0  0  0  0  0  0  0
   17.7253   -7.4096    6.8639 N   0  0  0  0  0  0  0  0  0  0  0  0
   16.5683   -7.9019    7.3991 C   0  0  0  0  0  0  0  0  0  0  0  0
   16.5742   -8.5106    8.6277 N   0  0  0  0  0  0  0  0  0  0  0  0
   20.3640   -6.6619    6.4028 H   0  0  0  0  0  0  0  0  0  0  0  0
   15.8004   -9.9572   14.5635 C   0  0  0  0  0  0  0  0  0  0  0  0
   15.8190   -8.5706   14.3496 C   0  0  0  0  0  0  0  0  0  0  0  0
   15.5905   -7.6937   15.4127 C   0  0  0  0  0  0  0  0  0  0  0  0
   15.3413   -8.1904   16.7009 C   0  0  0  0  0  0  0  0  0  0  0  0
   15.3229   -9.5736   16.9090 C   0  0  0  0  0  0  0  0  0  0  0  0
   15.5521  -10.4532   15.8471 C   0  0  0  0  0  0  0  0  0  0  0  0
   15.1036   -7.3222   17.8172 N   0  0  0  0  0  0  0  0  0  0  0  0
   13.8888   -7.2032   18.5735 C   0  0  0  0  0  0  0  0  0  0  0  0
   12.8779   -7.8972   18.2781 O   0  0  0  0  0  0  0  0  0  0  0  0
   15.8528   -6.7468   18.0945 H   0  0  0  0  0  0  0  0  0  0  0  0
   13.8213   -6.2573   19.7017 C   0  0  0  0  0  0  0  0  0  0  0  0
   14.5311   -6.5128   20.8843 C   0  0  0  0  0  0  0  0  0  0  0  0
   14.4698   -5.6149   21.9540 C   0  0  0  0  0  0  0  0  0  0  0  0
   13.6981   -4.4546   21.8491 C   0  0  0  0  0  0  0  0  0  0  0  0
   12.9875   -4.1920   20.6747 C   0  0  0  0  0  0  0  0  0  0  0  0
   13.0488   -5.0900   19.6049 C   0  0  0  0  0  0  0  0  0  0  0  0
  1  2  1  0  0  0
  2  3  2  0  0  0
  3  4  1  0  0  0
  4  5  1  0  0  0
  5  6  2  0  0  0
  6  7  1  0  0  0
  7  8  1  0  0  0
  8  9  1  0  0  0
  9 10  1  0  0  0
  9 11  2  0  0  0
  7 23  1  0  0  0
 23 24  2  0  0  0
 24 25  1  0  0  0
 25 26  2  0  0  0
 26 29  1  0  0  0
 29 30  1  0  0  0
 30 31  2  0  0  0
 30 33  1  0  0  0
 33 34  2  0  0  0
 34 35  1  0  0  0
 35 36  2  0  0  0
 36 37  1  0  0  0
 37 38  2  0  0  0
 26 27  1  0  0  0
 27 28  2  0  0  0
  4 13  1  0  0  0
 13 14  2  0  0  0
 14 15  1  0  0  0
 15 16  2  0  0  0
 16 17  1  0  0  0
 17 18  1  0  0  0
 18 19  2  0  0  0
 19 20  1  0  0  0
 20 21  2  0  0  0
  6  2  1  0  0  0
 28 23  1  0  0  0
 21 13  1  0  0  0
 11  5  1  0  0  0
 38 33  1  0  0  0
 18 14  1  0  0  0
 10 12  1  0  0  0
 29 32  1  0  0  0
 17 22  1  0  0  0
M  END
>  <minimizedAffinity>
2.98580

>  <minimizedRMSD>
1.68665

$$$$
CSSS06835407508 Z8416332924


 35 39  0  0  0  0  0  0  0  0999 V2000
   16.1019  -10.3638   11.5471 C   0  0  0  0  0  0  0  0  0  0  0  0
   19.2216   -7.9212    5.4022 C   0  0  0  0  0  0  0  0  0  0  0  0
   18.9068   -8.1191    6.8408 C   0  0  0  0  0  0  0  0  0  0  0  0
   19.6234   -7.3972    7.8220 C   0  0  0  0  0  0  0  0  0  0  0  0
   19.3389   -7.5714    9.1892 C   0  0  0  0  0  0  0  0  0  0  0  0
   18.3340   -8.4755    9.5228 C   0  0  0  0  0  0  0  0  0  0  0  0
   17.8960   -8.7960   10.7478 N   0  0  0  0  0  0  0  0  0  0  0  0
   16.9257   -9.7111   10.4804 C   0  0  0  0  0  0  0  0  0  0  0  0
   16.7341   -9.9661    9.1598 N   0  0  0  0  0  0  0  0  0  0  0  0
   17.6430   -9.1714    8.5785 C   0  0  0  0  0  0  0  0  0  0  0  0
   17.8965   -9.0241    7.2171 C   0  0  0  0  0  0  0  0  0  0  0  0
   18.1995   -8.4556   11.6203 H   0  0  0  0  0  0  0  0  0  0  0  0
   14.6484  -10.3430   11.1909 C   0  0  0  0  0  0  0  0  0  0  0  0
   14.1848   -9.6405   10.0675 C   0  0  0  0  0  0  0  0  0  0  0  0
   12.8241   -9.6477    9.7471 C   0  0  0  0  0  0  0  0  0  0  0  0
   11.9223  -10.3582   10.5446 C   0  0  0  0  0  0  0  0  0  0  0  0
   12.3809  -11.0626   11.6616 C   0  0  0  0  0  0  0  0  0  0  0  0
   13.7416  -11.0559   11.9829 C   0  0  0  0  0  0  0  0  0  0  0  0
   16.3224   -9.7258   12.8398 N   0  0  0  0  0  0  0  0  0  0  0  0
   17.0427  -10.3569   13.9036 C   0  0  0  0  0  0  0  0  0  0  0  0
   17.4840  -11.5298   13.7569 O   0  0  0  0  0  0  0  0  0  0  0  0
   15.9604   -8.8222   12.9872 H   0  0  0  0  0  0  0  0  0  0  0  0
   17.2671   -9.6373   15.1689 C   0  0  0  0  0  0  0  0  0  0  0  0
   18.5681   -9.3014   15.5730 C   0  0  0  0  0  0  0  0  0  0  0  0
   18.7847   -8.6169   16.7723 C   0  0  0  0  0  0  0  0  0  0  0  0
   17.6980   -8.2607   17.5812 C   0  0  0  0  0  0  0  0  0  0  0  0
   17.8637   -7.5743   18.7917 C   0  0  0  0  0  0  0  0  0  0  0  0
   19.0116   -7.2501   19.1988 O   0  0  0  0  0  0  0  0  0  0  0  0
   16.7732   -7.2537   19.5368 N   0  0  0  0  0  0  0  0  0  0  0  0
   15.5190   -7.5861   19.1310 C   0  0  0  0  0  0  0  0  0  0  0  0
   14.3479   -7.2205   19.9694 C   0  0  0  0  0  0  0  0  0  0  0  0
   15.3329   -8.2518   17.9611 N   0  0  0  0  0  0  0  0  0  0  0  0
   16.3889   -8.5953   17.1801 C   0  0  0  0  0  0  0  0  0  0  0  0
   16.1803   -9.2795   15.9800 C   0  0  0  0  0  0  0  0  0  0  0  0
   16.8938   -6.7715   20.3866 H   0  0  0  0  0  0  0  0  0  0  0  0
  2  3  1  0  0  0
  3  4  2  0  0  0
  4  5  1  0  0  0
  5  6  2  0  0  0
  6  7  1  0  0  0
  7  8  1  0  0  0
  8  9  2  0  0  0
  9 10  1  0  0  0
 10 11  2  0  0  0
  8  1  1  0  0  0
  1 19  1  0  0  0
 19 20  1  0  0  0
 20 21  2  0  0  0
 20 23  1  0  0  0
 23 24  2  0  0  0
 24 25  1  0  0  0
 25 26  2  0  0  0
 26 27  1  0  0  0
 27 28  2  0  0  0
 27 29  1  0  0  0
 29 30  1  0  0  0
 30 31  1  0  0  0
 30 32  2  0  0  0
 32 33  1  0  0  0
 33 34  2  0  0  0
  1 13  1  0  0  0
 13 14  2  0  0  0
 14 15  1  0  0  0
 15 16  2  0  0  0
 16 17  1  0  0  0
 17 18  2  0  0  0
 11  3  1  0  0  0
 34 23  1  0  0  0
 18 13  1  0  0  0
 10  6  1  0  0  0
 33 26  1  0  0  0
  7 12  1  0  0  0
 19 22  1  0  0  0
 29 35  1  0  0  0
M  END
>  <minimizedAffinity>
2.99201

>  <minimizedRMSD>
1.99648

$$$$
1055576797 CSSS00498291059 MCULE-5327787149 MolPort-047-477-385 Z4473654525


 29 33  0  0  0  0  0  0  0  0999 V2000
   17.1415   -9.4490    9.1172 N   0  0  0  0  0  0  0  0  0  0  0  0
   16.7999  -10.8252    9.4219 C   0  0  0  0  0  0  0  0  0  0  0  0
   16.0156  -10.7916   10.7221 C   0  0  0  0  0  0  0  0  0  0  0  0
   14.6129  -11.3165   10.4850 C   0  0  0  0  0  0  0  0  0  0  0  0
   13.6839  -10.3407   11.1711 C   0  0  0  0  0  0  0  0  0  0  0  0
   14.3922   -9.0056   11.1151 C   0  0  0  0  0  0  0  0  0  0  0  0
   15.8751   -9.3217   11.1136 C   0  0  0  0  0  0  0  0  0  0  0  0
   16.5825   -8.4955   10.0542 C   0  0  0  0  0  0  0  0  0  0  0  0
   19.9640   -8.0171    9.9920 C   0  0  0  0  0  0  0  0  0  0  0  0
   19.8306   -7.8340    8.5216 C   0  0  0  0  0  0  0  0  0  0  0  0
   20.7633   -7.2096    7.7625 N   0  0  0  0  0  0  0  0  0  0  0  0
   20.3838   -7.3047    6.5159 O   0  0  0  0  0  0  0  0  0  0  0  0
   19.2571   -7.9652    6.4451 C   0  0  0  0  0  0  0  0  0  0  0  0
   18.5814   -8.3040    5.3227 N   0  0  0  0  0  0  0  0  0  0  0  0
   17.4395   -9.0407    5.4571 C   0  0  0  0  0  0  0  0  0  0  0  0
   16.9949   -9.4159    6.6979 N   0  0  0  0  0  0  0  0  0  0  0  0
   17.6628   -9.0661    7.8393 C   0  0  0  0  0  0  0  0  0  0  0  0
   18.8381   -8.3214    7.6897 C   0  0  0  0  0  0  0  0  0  0  0  0
   16.4341   -9.0708   12.4404 N   0  0  0  0  0  0  0  0  0  0  0  0
   17.2118  -10.0082   13.1961 C   0  0  0  0  0  0  0  0  0  0  0  0
   17.4484  -11.1590   12.7390 O   0  0  0  0  0  0  0  0  0  0  0  0
   16.2634   -8.1903   12.8464 H   0  0  0  0  0  0  0  0  0  0  0  0
   17.7344   -9.6197   14.5116 C   0  0  0  0  0  0  0  0  0  0  0  0
   17.0630   -8.8645   15.3976 N   0  0  0  0  0  0  0  0  0  0  0  0
   17.8270   -8.7089   16.4700 N   0  0  0  0  0  0  0  0  0  0  0  0
   18.9971   -9.3589   16.2908 C   0  0  0  0  0  0  0  0  0  0  0  0
   18.9581   -9.9474   15.0462 C   0  0  0  0  0  0  0  0  0  0  0  0
   19.9336  -10.6944   14.4739 F   0  0  0  0  0  0  0  0  0  0  0  0
   17.5792   -8.1976   17.2740 H   0  0  0  0  0  0  0  0  0  0  0  0
  9 10  1  0  0  0
 10 11  2  0  0  0
 11 12  1  0  0  0
 12 13  1  0  0  0
 13 14  2  0  0  0
 14 15  1  0  0  0
 15 16  2  0  0  0
 16 17  1  0  0  0
 17  1  1  0  0  0
  1  2  1  0  0  0
  3  2  1  0  0  0
  3  4  1  0  0  0
  4  5  1  0  0  0
  5  6  1  0  0  0
  6  7  1  0  0  0
  7  8  1  0  0  0
  7 19  1  0  0  0
 19 20  1  0  0  0
 20 21  2  0  0  0
 20 23  1  0  0  0
 23 24  2  0  0  0
 24 25  1  0  0  0
 25 26  1  0  0  0
 26 27  2  0  0  0
 27 28  1  0  0  0
 17 18  2  0  0  0
 18 10  1  0  0  0
 18 13  1  0  0  0
  8  1  1  0  0  0
 27 23  1  0  0  0
  7  3  1  0  0  0
 19 22  1  0  0  0
 25 29  1  0  0  0
M  END
>  <minimizedAffinity>
2.99628

>  <minimizedRMSD>
2.39026

$$$$
CSC026317322 58404762 CSSS00026317322 MCULE-1715506415 MolPort-009-340-663 PubChem-51120409 Z666064344 ZINC000058404762


 28 31  0  0  0  0  0  0  0  0999 V2000
   16.3105   -8.3986   13.6250 C   0  0  0  0  0  0  0  0  0  0  0  0
   16.7579   -9.3574   12.7362 C   0  0  0  0  0  0  0  0  0  0  0  0
   16.3589   -8.9652   11.5136 N   0  0  0  0  0  0  0  0  0  0  0  0
   15.6494   -7.8508   11.5916 N   0  0  0  0  0  0  0  0  0  0  0  0
   15.6073   -7.4665   12.8815 C   0  0  0  0  0  0  0  0  0  0  0  0
   16.5205   -9.7325   10.3159 C   0  0  0  0  0  0  0  0  0  0  0  0
   17.2503   -9.2651    9.2042 C   0  0  0  0  0  0  0  0  0  0  0  0
   17.2609  -10.0505    8.0623 C   0  0  0  0  0  0  0  0  0  0  0  0
   18.1927   -9.3514    6.8574 S   0  0  0  0  0  0  0  0  0  0  0  0
   18.6259   -8.0150    7.7930 C   0  0  0  0  0  0  0  0  0  0  0  0
   18.0485   -8.1093    9.0625 C   0  0  0  0  0  0  0  0  0  0  0  0
   18.3575   -7.1336   10.1483 C   0  0  0  0  0  0  0  0  0  0  0  0
   19.5385   -6.9334    7.3282 C   0  0  0  0  0  0  0  0  0  0  0  0
   16.6345  -11.2481    7.9943 N   0  0  0  0  0  0  0  0  0  0  0  0
   15.9584  -11.6990    9.0848 C   0  0  0  0  0  0  0  0  0  0  0  0
   15.9062  -10.9482   10.2227 N   0  0  0  0  0  0  0  0  0  0  0  0
   16.4791   -8.3810   15.0937 C   0  0  0  0  0  0  0  0  0  0  0  0
   16.2156   -7.3127   15.7096 O   0  0  0  0  0  0  0  0  0  0  0  0
   18.0003  -11.7710   15.8698 C   0  0  0  0  0  0  0  0  0  0  0  0
   17.5243  -10.6534   15.1799 C   0  0  0  0  0  0  0  0  0  0  0  0
   16.9519   -9.5656   15.8588 C   0  0  0  0  0  0  0  0  0  0  0  0
   16.8705   -9.6155   17.2685 C   0  0  0  0  0  0  0  0  0  0  0  0
   16.3062   -8.5727   17.9944 O   0  0  0  0  0  0  0  0  0  0  0  0
   17.3482  -10.7319   17.9605 C   0  0  0  0  0  0  0  0  0  0  0  0
   17.9101  -11.8047   17.2678 C   0  0  0  0  0  0  0  0  0  0  0  0
   15.9800   -7.8151   17.5497 H   0  0  0  0  0  0  0  0  0  0  0  0
   18.5964  -12.8470   13.7238 C   0  0  0  0  0  0  0  0  0  0  0  0
   18.5568  -12.8277   15.1441 O   0  0  0  0  0  0  0  0  0  0  0  0
 27 28  1  0  0  0
 28 19  1  0  0  0
 19 20  2  0  0  0
 20 21  1  0  0  0
 21 17  1  0  0  0
 17  1  1  0  0  0
  1  2  2  0  0  0
  2  3  1  0  0  0
  3  6  1  0  0  0
  6  7  1  0  0  0
  7  8  2  0  0  0
  8  9  1  0  0  0
  9 10  1  0  0  0
 10 11  2  0  0  0
 11 12  1  0  0  0
 10 13  1  0  0  0
  8 14  1  0  0  0
 14 15  2  0  0  0
 15 16  1  0  0  0
  3  4  1  0  0  0
  4  5  2  0  0  0
 17 18  2  0  0  0
 21 22  2  0  0  0
 22 23  1  0  0  0
 22 24  1  0  0  0
 24 25  2  0  0  0
 25 19  1  0  0  0
  5  1  1  0  0  0
 16  6  2  0  0  0
 11  7  1  0  0  0
 23 26  1  0  0  0
M  END
>  <minimizedAffinity>
3.21434

>  <minimizedRMSD>
0.94216

$$$$
285361195 CSSS00104703594 MCULE-8827992226 MolPort-039-173-056 PubChem-128988765 Z2061472604 ZINC000285361195


 25 27  0  0  0  0  0  0  0  0999 V2000
   17.1518  -11.0328   16.8721 C   0  0  0  0  0  0  0  0  0  0  0  0
   16.1320  -10.0340   16.3645 C   0  0  0  0  0  0  0  0  0  0  0  0
   16.1827   -9.9712   14.8503 C   0  0  0  0  0  0  0  0  0  0  0  0
   16.2561   -8.5626   14.5124 N   0  0  0  0  0  0  0  0  0  0  0  0
   16.3398   -8.0597   13.1686 C   0  0  0  0  0  0  0  0  0  0  0  0
   16.7094   -6.8683   12.9819 O   0  0  0  0  0  0  0  0  0  0  0  0
   16.3915   -7.7045   15.6721 C   0  0  0  0  0  0  0  0  0  0  0  0
   16.4739   -8.6364   16.8682 C   0  0  0  0  0  0  0  0  0  0  0  0
   15.9751   -8.9008   11.9991 C   0  0  0  0  0  0  0  0  0  0  0  0
   14.7195   -9.5178   11.9774 C   0  0  0  0  0  0  0  0  0  0  0  0
   14.3178  -10.2735   10.9221 N   0  0  0  0  0  0  0  0  0  0  0  0
   12.9974  -10.8809   10.9859 C   0  0  0  0  0  0  0  0  0  0  0  0
   15.1210  -10.4582    9.8328 C   0  0  0  0  0  0  0  0  0  0  0  0
   14.7224  -11.1644    8.8637 O   0  0  0  0  0  0  0  0  0  0  0  0
   16.3924   -9.8628    9.7924 C   0  0  0  0  0  0  0  0  0  0  0  0
   17.2373  -10.0456    8.6865 C   0  0  0  0  0  0  0  0  0  0  0  0
   18.5040   -9.4599    8.6598 C   0  0  0  0  0  0  0  0  0  0  0  0
   18.9394   -8.6885    9.7379 C   0  0  0  0  0  0  0  0  0  0  0  0
   18.1075   -8.4987   10.8432 C   0  0  0  0  0  0  0  0  0  0  0  0
   16.8261   -9.0735   10.8855 C   0  0  0  0  0  0  0  0  0  0  0  0
   15.5318   -8.2075   17.9456 C   0  0  0  0  0  0  0  0  0  0  0  0
   16.0479   -7.7689   19.1962 N   0  0  0  0  0  0  0  0  0  0  0  0
   14.2859   -8.2315   17.7576 O   0  0  0  0  0  0  0  0  0  0  0  0
   17.0205   -7.7484   19.3474 H   0  0  0  0  0  0  0  0  0  0  0  0
   15.4326   -7.4857   19.9106 H   0  0  0  0  0  0  0  0  0  0  0  0
  2  1  1  0  0  0
  2  3  1  0  0  0
  3  4  1  0  0  0
  4  5  1  0  0  0
  5  6  2  0  0  0
  5  9  1  0  0  0
  9 10  2  0  0  0
 10 11  1  0  0  0
 11 12  1  0  0  0
 11 13  1  0  0  0
 13 14  2  0  0  0
 13 15  1  0  0  0
 15 16  2  0  0  0
 16 17  1  0  0  0
 17 18  2  0  0  0
 18 19  1  0  0  0
 19 20  2  0  0  0
  4  7  1  0  0  0
  7  8  1  0  0  0
  8 21  1  0  0  0
 21 22  1  0  0  0
 21 23  2  0  0  0
  8  2  1  0  0  0
 20  9  1  0  0  0
 20 15  1  0  0  0
 22 24  1  0  0  0
 22 25  1  0  0  0
M  END
>  <minimizedAffinity>
3.21790

>  <minimizedRMSD>
1.80215

$$$$
CSC027344896 CSSS00027344896 MCULE-8190196384 MolPort-020-088-855 PubChem-56803843 Z1165356510


 33 37  0  0  0  0  0  0  0  0999 V2000
   17.3657   -8.8769   15.2451 C   0  0  0  0  0  0  0  0  0  0  0  0
   18.8374   -9.3045   15.3118 C   0  0  0  0  0  0  0  0  0  0  0  0
   19.6339   -8.4219   16.2583 C   0  0  0  0  0  0  0  0  0  0  0  0
   19.6538   -9.0356   17.6508 C   0  0  0  0  0  0  0  0  0  0  0  0
   18.3255   -8.8547   18.3732 C   0  0  0  0  0  0  0  0  0  0  0  0
   17.2077   -9.6283   17.6879 C   0  0  0  0  0  0  0  0  0  0  0  0
   16.6905   -8.8647   16.5532 N   0  0  0  0  0  0  0  0  0  0  0  0
   15.4761   -8.1131   16.7189 C   0  0  0  0  0  0  0  0  0  0  0  0
   15.0367   -7.4134   15.7658 O   0  0  0  0  0  0  0  0  0  0  0  0
   14.7748   -8.1571   17.9717 N   0  0  0  0  0  0  0  0  0  0  0  0
   15.1716   -8.7160   18.6784 H   0  0  0  0  0  0  0  0  0  0  0  0
   17.2013   -9.2957   11.4641 N   0  0  0  0  0  0  0  0  0  0  0  0
   16.4652   -8.2366   12.1493 C   0  0  0  0  0  0  0  0  0  0  0  0
   15.6701   -8.8225   13.3138 C   0  0  0  0  0  0  0  0  0  0  0  0
   16.5498   -9.6871   14.2237 C   0  0  0  0  0  0  0  0  0  0  0  0
   17.3586  -10.7315   13.4407 C   0  0  0  0  0  0  0  0  0  0  0  0
   18.1135  -10.1035   12.2715 C   0  0  0  0  0  0  0  0  0  0  0  0
   15.4938  -11.2921    7.2332 C   0  0  0  0  0  0  0  0  0  0  0  0
   16.3951  -10.3537    7.9507 C   0  0  0  0  0  0  0  0  0  0  0  0
   17.2493   -9.5591    7.2431 N   0  0  0  0  0  0  0  0  0  0  0  0
   18.0584   -8.7096    7.9202 C   0  0  0  0  0  0  0  0  0  0  0  0
   18.9321   -7.8540    7.3666 N   0  0  0  0  0  0  0  0  0  0  0  0
   19.4474   -7.2423    8.4669 C   0  0  0  0  0  0  0  0  0  0  0  0
   18.9057   -7.7101    9.6193 N   0  0  0  0  0  0  0  0  0  0  0  0
   18.0395   -8.6332    9.2508 N   0  0  0  0  0  0  0  0  0  0  0  0
   17.2165   -9.3955   10.0254 C   0  0  0  0  0  0  0  0  0  0  0  0
   16.3569  -10.2871    9.3563 C   0  0  0  0  0  0  0  0  0  0  0  0
   13.5583   -7.4737   18.3029 C   0  0  0  0  0  0  0  0  0  0  0  0
   13.5878   -6.4936   19.3012 C   0  0  0  0  0  0  0  0  0  0  0  0
   12.4223   -5.8060   19.6531 C   0  0  0  0  0  0  0  0  0  0  0  0
   11.2176   -6.0961   19.0071 C   0  0  0  0  0  0  0  0  0  0  0  0
   11.1787   -7.0735   18.0091 C   0  0  0  0  0  0  0  0  0  0  0  0
   12.3449   -7.7596   17.6579 C   0  0  0  0  0  0  0  0  0  0  0  0
 18 19  1  0  0  0
 19 20  2  0  0  0
 20 21  1  0  0  0
 21 22  2  0  0  0
 22 23  1  0  0  0
 23 24  2  0  0  0
 24 25  1  0  0  0
 25 26  1  0  0  0
 25 21  1  0  0  0
 26 27  2  0  0  0
 26 12  1  0  0  0
 27 19  1  0  0  0
 12 13  1  0  0  0
 13 14  1  0  0  0
 14 15  1  0  0  0
 15 16  1  0  0  0
 16 17  1  0  0  0
 17 12  1  0  0  0
  1 15  1  0  0  0
  1  2  1  0  0  0
  2  3  1  0  0  0
  3  4  1  0  0  0
  4  5  1  0  0  0
  5  6  1  0  0  0
  6  7  1  0  0  0
  7  8  1  0  0  0
  7  1  1  0  0  0
  8  9  2  0  0  0
  8 10  1  0  0  0
 10 28  1  0  0  0
 28 29  2  0  0  0
 29 30  1  0  0  0
 30 31  2  0  0  0
 31 32  1  0  0  0
 32 33  2  0  0  0
 33 28  1  0  0  0
 10 11  1  0  0  0
M  END
>  <minimizedAffinity>
3.27629

>  <minimizedRMSD>
1.70083

$$$$
CSC026189086 CSSS00026189086 MCULE-1228110479 MolPort-009-118-563 Z991704692


 34 37  0  0  0  0  0  0  0  0999 V2000
   18.2089   -9.6024   11.0152 N   0  0  0  0  0  0  0  0  0  0  0  0
   19.3969   -9.4408   11.6682 C   0  0  0  0  0  0  0  0  0  0  0  0
   20.4748   -9.3279   11.0236 O   0  0  0  0  0  0  0  0  0  0  0  0
   19.4323   -9.4085   13.0219 N   0  0  0  0  0  0  0  0  0  0  0  0
   18.3095   -9.5176   13.7724 C   0  0  0  0  0  0  0  0  0  0  0  0
   18.4257   -9.5326   15.0255 O   0  0  0  0  0  0  0  0  0  0  0  0
   17.0520   -9.6489   13.1412 C   0  0  0  0  0  0  0  0  0  0  0  0
   15.8106   -9.7482   13.8313 C   0  0  0  0  0  0  0  0  0  0  0  0
   14.6436   -9.9974   13.1044 C   0  0  0  0  0  0  0  0  0  0  0  0
   14.6900  -10.1143   11.7198 C   0  0  0  0  0  0  0  0  0  0  0  0
   15.8728   -9.9672   11.0694 N   0  0  0  0  0  0  0  0  0  0  0  0
   17.0446   -9.7347   11.7249 C   0  0  0  0  0  0  0  0  0  0  0  0
   20.3003   -9.3026   13.4743 H   0  0  0  0  0  0  0  0  0  0  0  0
   15.6511   -9.5399   15.2814 C   0  0  0  0  0  0  0  0  0  0  0  0
   15.9760  -10.4616   16.0777 O   0  0  0  0  0  0  0  0  0  0  0  0
   15.0440   -8.3320   15.7634 N   0  0  0  0  0  0  0  0  0  0  0  0
   14.7374   -7.6907   15.0824 H   0  0  0  0  0  0  0  0  0  0  0  0
   14.8375   -7.9617   17.1330 C   0  0  0  0  0  0  0  0  0  0  0  0
   13.5829   -7.4404   17.5063 C   0  0  0  0  0  0  0  0  0  0  0  0
   13.4019   -7.0796   18.8381 C   0  0  0  0  0  0  0  0  0  0  0  0
   12.3033   -6.5692   19.4103 N   0  0  0  0  0  0  0  0  0  0  0  0
   12.5894   -6.3808   20.6958 N   0  0  0  0  0  0  0  0  0  0  0  0
   13.8649   -6.7664   20.9546 C   0  0  0  0  0  0  0  0  0  0  0  0
   14.3894   -7.2153   19.7654 C   0  0  0  0  0  0  0  0  0  0  0  0
   15.6438   -7.7221   19.4447 C   0  0  0  0  0  0  0  0  0  0  0  0
   15.8615   -8.0974   18.1059 C   0  0  0  0  0  0  0  0  0  0  0  0
   11.9657   -6.0144   21.3635 H   0  0  0  0  0  0  0  0  0  0  0  0
   13.4301  -10.3723   10.9604 C   0  0  0  0  0  0  0  0  0  0  0  0
   13.7333  -10.6467    9.4996 C   0  0  0  0  0  0  0  0  0  0  0  0
   12.4846   -9.1921   11.0784 C   0  0  0  0  0  0  0  0  0  0  0  0
   18.2010   -9.6744    9.5504 C   0  0  0  0  0  0  0  0  0  0  0  0
   16.9075   -8.5708    7.7494 C   0  0  0  0  0  0  0  0  0  0  0  0
   17.8157   -8.3348    8.9369 C   0  0  0  0  0  0  0  0  0  0  0  0
   19.0548   -7.5910    8.4781 C   0  0  0  0  0  0  0  0  0  0  0  0
 32 33  1  0  0  0
 33 34  1  0  0  0
 33 31  1  0  0  0
 31  1  1  0  0  0
  1  2  1  0  0  0
  2  3  2  0  0  0
  2  4  1  0  0  0
  4  5  1  0  0  0
  5  6  2  0  0  0
  5  7  1  0  0  0
  7  8  2  0  0  0
  8  9  1  0  0  0
  8 14  1  0  0  0
  9 10  2  0  0  0
 10 11  1  0  0  0
 10 28  1  0  0  0
 11 12  2  0  0  0
 12  1  1  0  0  0
 12  7  1  0  0  0
 28 29  1  0  0  0
 28 30  1  0  0  0
 14 15  2  0  0  0
 14 16  1  0  0  0
 16 18  1  0  0  0
 18 19  2  0  0  0
 19 20  1  0  0  0
 20 21  2  0  0  0
 21 22  1  0  0  0
 22 23  1  0  0  0
 23 24  2  0  0  0
 24 25  1  0  0  0
 24 20  1  0  0  0
 25 26  2  0  0  0
 26 18  1  0  0  0
  4 13  1  0  0  0
 16 17  1  0  0  0
 22 27  1  0  0  0
M  END
>  <minimizedAffinity>
3.28535

>  <minimizedRMSD>
4.31643

$$$$
1875260005 CSSS01861128474 MCULE-9516257372 MolPort-047-612-589 PubChem-166212385 Z1677189254


 33 38  0  0  0  0  0  0  0  0999 V2000
   16.3497   -9.7014   10.9550 C   0  0  0  0  0  0  0  0  0  0  0  0
   16.2047   -8.9923    9.8067 N   0  0  0  0  0  0  0  0  0  0  0  0
   17.4682   -8.6872    9.4779 C   0  0  0  0  0  0  0  0  0  0  0  0
   17.8929   -7.9252    8.3926 C   0  0  0  0  0  0  0  0  0  0  0  0
   19.2718   -7.6780    8.2713 C   0  0  0  0  0  0  0  0  0  0  0  0
   20.1760   -8.1795    9.2311 C   0  0  0  0  0  0  0  0  0  0  0  0
   19.7129   -8.9415   10.3175 C   0  0  0  0  0  0  0  0  0  0  0  0
   18.3400   -9.1887   10.4020 C   0  0  0  0  0  0  0  0  0  0  0  0
   17.6512   -9.8649   11.3474 N   0  0  0  0  0  0  0  0  0  0  0  0
   18.1552  -10.4295   12.6210 C   0  0  0  0  0  0  0  0  0  0  0  0
   18.5341   -9.2722   13.5664 C   0  0  0  0  0  0  0  0  0  0  0  0
   19.0460   -9.8160   14.9073 C   0  0  0  0  0  0  0  0  0  0  0  0
   17.9474  -10.6699   15.5599 C   0  0  0  0  0  0  0  0  0  0  0  0
   17.5855  -11.8508   14.6446 C   0  0  0  0  0  0  0  0  0  0  0  0
   18.8348  -12.7101   14.4025 C   0  0  0  0  0  0  0  0  0  0  0  0
   19.9295  -11.8621   13.7371 C   0  0  0  0  0  0  0  0  0  0  0  0
   20.2882  -10.6862   14.6572 C   0  0  0  0  0  0  0  0  0  0  0  0
   19.4020  -11.3184   12.3992 C   0  0  0  0  0  0  0  0  0  0  0  0
   17.0809  -11.3143   13.2970 C   0  0  0  0  0  0  0  0  0  0  0  0
   15.1638  -10.1351   11.7525 C   0  0  0  0  0  0  0  0  0  0  0  0
   14.9955   -9.2572   12.8543 O   0  0  0  0  0  0  0  0  0  0  0  0
   14.7395   -9.7212   14.1459 C   0  0  0  0  0  0  0  0  0  0  0  0
   14.2218  -10.8568   14.3310 O   0  0  0  0  0  0  0  0  0  0  0  0
   15.2144   -7.9978   17.2664 C   0  0  0  0  0  0  0  0  0  0  0  0
   14.5714   -8.9983   16.5636 C   0  0  0  0  0  0  0  0  0  0  0  0
   15.1041   -8.8863   15.2944 C   0  0  0  0  0  0  0  0  0  0  0  0
   16.0176   -7.8494   15.2874 C   0  0  0  0  0  0  0  0  0  0  0  0
   16.0529   -7.3430   16.4973 O   0  0  0  0  0  0  0  0  0  0  0  0
   16.1049   -7.3561   19.5152 N   0  0  0  0  0  0  0  0  0  0  0  0
   14.9984   -7.6855   18.6830 C   0  0  0  0  0  0  0  0  0  0  0  0
   13.8361   -7.6968   19.1671 O   0  0  0  0  0  0  0  0  0  0  0  0
   15.9603   -7.1464   20.4662 H   0  0  0  0  0  0  0  0  0  0  0  0
   17.0149   -7.3379   19.1399 H   0  0  0  0  0  0  0  0  0  0  0  0
 29 30  1  0  0  0
 30 31  2  0  0  0
 30 24  1  0  0  0
 24 25  2  0  0  0
 25 26  1  0  0  0
 26 27  2  0  0  0
 27 28  1  0  0  0
 26 22  1  0  0  0
 22 23  2  0  0  0
 22 21  1  0  0  0
 21 20  1  0  0  0
 20  1  1  0  0  0
  1  2  2  0  0  0
  2  3  1  0  0  0
  3  4  2  0  0  0
  4  5  1  0  0  0
  5  6  2  0  0  0
  6  7  1  0  0  0
  7  8  2  0  0  0
  8  9  1  0  0  0
  9 10  1  0  0  0
 10 11  1  0  0  0
 11 12  1  0  0  0
 12 13  1  0  0  0
 13 14  1  0  0  0
 14 15  1  0  0  0
 15 16  1  0  0  0
 16 17  1  0  0  0
 16 18  1  0  0  0
 14 19  1  0  0  0
 28 24  1  0  0  0
  9  1  1  0  0  0
 18 10  1  0  0  0
  8  3  1  0  0  0
 19 10  1  0  0  0
 17 12  1  0  0  0
 29 32  1  0  0  0
 29 33  1  0  0  0
M  END
>  <minimizedAffinity>
3.30010

>  <minimizedRMSD>
2.96267

$$$$
CSC047379089 CSSS00047379089 MCULE-5483549426 MolPort-040-509-722 PubChem-127603203 Z1450036931


 30 34  0  0  0  0  0  0  0  0999 V2000
   15.8842   -7.7860   12.7381 C   0  0  0  0  0  0  0  0  0  0  0  0
   17.9565  -11.6680   17.8850 C   0  0  0  0  0  0  0  0  0  0  0  0
   17.8128  -11.5156   16.4092 C   0  0  0  0  0  0  0  0  0  0  0  0
   18.1820  -12.4283   15.4243 C   0  0  0  0  0  0  0  0  0  0  0  0
   17.9028  -11.9531   14.2230 O   0  0  0  0  0  0  0  0  0  0  0  0
   17.3676  -10.7687   14.3956 C   0  0  0  0  0  0  0  0  0  0  0  0
   16.9321   -9.9320   13.4237 N   0  0  0  0  0  0  0  0  0  0  0  0
   16.3968   -8.7285   13.7915 C   0  0  0  0  0  0  0  0  0  0  0  0
   16.3050   -8.3859   15.1165 N   0  0  0  0  0  0  0  0  0  0  0  0
   16.7431   -9.2247   16.0996 C   0  0  0  0  0  0  0  0  0  0  0  0
   17.2866  -10.4464   15.7180 C   0  0  0  0  0  0  0  0  0  0  0  0
   16.6377   -8.8489   17.4685 N   0  0  0  0  0  0  0  0  0  0  0  0
   18.8052  -13.7595   15.6611 C   0  0  0  0  0  0  0  0  0  0  0  0
   16.2486   -7.9777   17.7112 H   0  0  0  0  0  0  0  0  0  0  0  0
   16.9538   -9.4601   18.1726 H   0  0  0  0  0  0  0  0  0  0  0  0
   15.3991   -8.4568   11.5248 N   0  0  0  0  0  0  0  0  0  0  0  0
   14.7750   -9.7361   11.8761 C   0  0  0  0  0  0  0  0  0  0  0  0
   14.1806  -10.3872   10.6308 C   0  0  0  0  0  0  0  0  0  0  0  0
   15.2797  -10.6108    9.5979 C   0  0  0  0  0  0  0  0  0  0  0  0
   15.9976   -9.2944    9.2947 C   0  0  0  0  0  0  0  0  0  0  0  0
   16.5115   -8.6810   10.5966 C   0  0  0  0  0  0  0  0  0  0  0  0
   17.1362   -9.4885    8.3355 C   0  0  0  0  0  0  0  0  0  0  0  0
   17.6655  -10.6868    7.9898 N   0  0  0  0  0  0  0  0  0  0  0  0
   18.6481  -10.4571    7.1221 N   0  0  0  0  0  0  0  0  0  0  0  0
   18.6959   -9.1232    6.9563 C   0  0  0  0  0  0  0  0  0  0  0  0
   17.7717   -8.4952    7.6931 N   0  0  0  0  0  0  0  0  0  0  0  0
   17.6003   -7.1497    7.7065 C   0  0  0  0  0  0  0  0  0  0  0  0
   18.4495   -6.3773    6.8996 C   0  0  0  0  0  0  0  0  0  0  0  0
   19.4325   -7.0156    6.1158 C   0  0  0  0  0  0  0  0  0  0  0  0
   19.5681   -8.4147    6.1351 C   0  0  0  0  0  0  0  0  0  0  0  0
  2  3  1  0  0  0
  3  4  2  0  0  0
  4  5  1  0  0  0
  5  6  1  0  0  0
  6  7  2  0  0  0
  7  8  1  0  0  0
  8  9  2  0  0  0
  9 10  1  0  0  0
 10 11  2  0  0  0
 10 12  1  0  0  0
  8  1  1  0  0  0
  1 16  1  0  0  0
 16 17  1  0  0  0
 17 18  1  0  0  0
 18 19  1  0  0  0
 19 20  1  0  0  0
 20 21  1  0  0  0
 20 22  1  0  0  0
 22 23  2  0  0  0
 23 24  1  0  0  0
 24 25  2  0  0  0
 25 26  1  0  0  0
 26 27  1  0  0  0
 27 28  2  0  0  0
 28 29  1  0  0  0
 29 30  2  0  0  0
  4 13  1  0  0  0
 11  3  1  0  0  0
 11  6  1  0  0  0
 21 16  1  0  0  0
 26 22  1  0  0  0
 30 25  1  0  0  0
 12 14  1  0  0  0
 12 15  1  0  0  0
M  END
>  <minimizedAffinity>
3.38403

>  <minimizedRMSD>
2.29393

$$$$
67967719 CSSS00159800686 MCULE-7428413774 MolPort-019-901-671 PubChem-56759281 ZINC000067967719


 29 32  0  0  0  0  0  0  0  0999 V2000
   19.3761  -12.2692   13.8901 C   0  0  0  0  0  0  0  0  0  0  0  0
   18.6006  -11.7320   15.0045 N   0  0  0  0  0  0  0  0  0  0  0  0
   17.5494  -12.7050   15.2952 C   0  0  0  0  0  0  0  0  0  0  0  0
   16.8912  -12.3738   16.6289 C   0  0  0  0  0  0  0  0  0  0  0  0
   16.5772  -10.9514   16.7197 N   0  0  0  0  0  0  0  0  0  0  0  0
   17.0801   -9.9846   15.7921 C   0  0  0  0  0  0  0  0  0  0  0  0
   16.6955   -8.7874   15.8845 O   0  0  0  0  0  0  0  0  0  0  0  0
   18.0160  -10.4050   14.6791 C   0  0  0  0  0  0  0  0  0  0  0  0
   19.1520   -9.3545   14.6222 C   0  0  0  0  0  0  0  0  0  0  0  0
   19.7977   -9.2166   13.2401 C   0  0  0  0  0  0  0  0  0  0  0  0
   18.7938   -9.0796   12.1806 N   0  0  0  0  0  0  0  0  0  0  0  0
   17.3750   -9.2194   12.5033 C   0  0  0  0  0  0  0  0  0  0  0  0
   17.1811  -10.4563   13.3712 C   0  0  0  0  0  0  0  0  0  0  0  0
   19.2159   -8.7136   10.8546 C   0  0  0  0  0  0  0  0  0  0  0  0
   20.3616   -8.2119   10.6894 O   0  0  0  0  0  0  0  0  0  0  0  0
   15.9942  -10.6436   17.4508 H   0  0  0  0  0  0  0  0  0  0  0  0
   18.3482   -8.9431    9.6703 C   0  0  0  0  0  0  0  0  0  0  0  0
   18.7186   -8.5437    8.3648 C   0  0  0  0  0  0  0  0  0  0  0  0
   19.9109   -7.8494    8.1171 C   0  0  0  0  0  0  0  0  0  0  0  0
   20.2489   -7.4568    6.8227 C   0  0  0  0  0  0  0  0  0  0  0  0
   19.4023   -7.7465    5.7518 C   0  0  0  0  0  0  0  0  0  0  0  0
   19.8092   -7.3061    4.3858 C   0  0  0  0  0  0  0  0  0  0  0  0
   18.1952   -8.4357    5.9747 C   0  0  0  0  0  0  0  0  0  0  0  0
   17.2786   -8.7448    4.8315 C   0  0  0  0  0  0  0  0  0  0  0  0
   17.8503   -8.8318    7.2816 C   0  0  0  0  0  0  0  0  0  0  0  0
   16.6799   -9.4884    7.5125 N   0  0  0  0  0  0  0  0  0  0  0  0
   16.3099   -9.8811    8.7579 C   0  0  0  0  0  0  0  0  0  0  0  0
   15.0229  -10.5958    8.9583 C   0  0  0  0  0  0  0  0  0  0  0  0
   17.1355   -9.6189    9.8487 C   0  0  0  0  0  0  0  0  0  0  0  0
  1  2  1  0  0  0
  2  3  1  0  0  0
  3  4  1  0  0  0
  4  5  1  0  0  0
  5  6  1  0  0  0
  6  7  2  0  0  0
  6  8  1  0  0  0
  8  9  1  0  0  0
  8  2  1  0  0  0
  9 10  1  0  0  0
 10 11  1  0  0  0
 11 12  1  0  0  0
 11 14  1  0  0  0
 12 13  1  0  0  0
 13  8  1  0  0  0
 14 15  2  0  0  0
 14 17  1  0  0  0
 17 18  1  0  0  0
 18 19  2  0  0  0
 19 20  1  0  0  0
 20 21  2  0  0  0
 21 22  1  0  0  0
 21 23  1  0  0  0
 23 24  1  0  0  0
 23 25  2  0  0  0
 25 26  1  0  0  0
 25 18  1  0  0  0
 26 27  2  0  0  0
 27 28  1  0  0  0
 27 29  1  0  0  0
 29 17  2  0  0  0
  5 16  1  0  0  0
M  END
>  <minimizedAffinity>
3.52544

>  <minimizedRMSD>
1.83536

$$$$
CSC025968647 24167148 CSSS00025968647 MCULE-7692355083 MolPort-010-050-694 PubChem-31629708 Z17531305 ZINC000024167148 ZINC24167148


 31 34  0  0  0  0  0  0  0  0999 V2000
   17.4860   -9.5309   10.4730 C   0  0  0  0  0  0  0  0  0  0  0  0
   16.3611   -9.8510   11.2102 C   0  0  0  0  0  0  0  0  0  0  0  0
   15.3114   -9.8594   10.3638 N   0  0  0  0  0  0  0  0  0  0  0  0
   15.7046   -9.5615    9.1355 N   0  0  0  0  0  0  0  0  0  0  0  0
   17.0339   -9.3515    9.1663 C   0  0  0  0  0  0  0  0  0  0  0  0
   17.7937   -8.9522    7.9677 C   0  0  0  0  0  0  0  0  0  0  0  0
   17.5666   -9.4461    6.6943 C   0  0  0  0  0  0  0  0  0  0  0  0
   18.4795   -8.8006    5.8751 C   0  0  0  0  0  0  0  0  0  0  0  0
   19.1849   -7.9638    6.7152 C   0  0  0  0  0  0  0  0  0  0  0  0
   20.2832   -7.0558    6.2918 C   0  0  0  0  0  0  0  0  0  0  0  0
   18.7596   -8.0695    7.9473 O   0  0  0  0  0  0  0  0  0  0  0  0
   13.9502  -10.1464   10.7187 C   0  0  0  0  0  0  0  0  0  0  0  0
   13.6535  -11.0999   11.7060 C   0  0  0  0  0  0  0  0  0  0  0  0
   12.3264  -11.3754   12.0476 C   0  0  0  0  0  0  0  0  0  0  0  0
   11.2849  -10.7003   11.4055 C   0  0  0  0  0  0  0  0  0  0  0  0
   11.5702   -9.7496   10.4219 C   0  0  0  0  0  0  0  0  0  0  0  0
   12.8973   -9.4738   10.0799 C   0  0  0  0  0  0  0  0  0  0  0  0
   18.8464   -9.4586   11.0351 C   0  0  0  0  0  0  0  0  0  0  0  0
   19.7493   -8.7920   10.4635 O   0  0  0  0  0  0  0  0  0  0  0  0
   19.1339  -10.1696   12.2016 O   0  0  0  0  0  0  0  0  0  0  0  0
   19.4845   -9.5171   13.4131 C   0  0  0  0  0  0  0  0  0  0  0  0
   17.3289   -9.9094   16.3232 C   0  0  0  0  0  0  0  0  0  0  0  0
   18.0693   -9.2173   15.4341 N   0  0  0  0  0  0  0  0  0  0  0  0
   18.6469  -10.0452   14.5222 C   0  0  0  0  0  0  0  0  0  0  0  0
   18.3660  -11.4049   14.6577 C   0  0  0  0  0  0  0  0  0  0  0  0
   17.3585  -11.5517   16.0016 S   0  0  0  0  0  0  0  0  0  0  0  0
   14.9753   -7.7191   18.4747 C   0  0  0  0  0  0  0  0  0  0  0  0
   15.6660   -8.2420   17.2676 C   0  0  0  0  0  0  0  0  0  0  0  0
   15.4198   -7.7313   16.1430 O   0  0  0  0  0  0  0  0  0  0  0  0
   16.6002   -9.3175   17.4030 N   0  0  0  0  0  0  0  0  0  0  0  0
   16.7529   -9.6771   18.3067 H   0  0  0  0  0  0  0  0  0  0  0  0
 27 28  1  0  0  0
 28 29  2  0  0  0
 28 30  1  0  0  0
 30 22  1  0  0  0
 22 23  2  0  0  0
 23 24  1  0  0  0
 24 21  1  0  0  0
 24 25  2  0  0  0
 21 20  1  0  0  0
 20 18  1  0  0  0
 18 19  2  0  0  0
 18  1  1  0  0  0
  1  2  2  0  0  0
  2  3  1  0  0  0
  3  4  1  0  0  0
  3 12  1  0  0  0
  4  5  2  0  0  0
  5  6  1  0  0  0
  5  1  1  0  0  0
  6  7  2  0  0  0
  7  8  1  0  0  0
  8  9  2  0  0  0
  9 10  1  0  0  0
  9 11  1  0  0  0
 11  6  1  0  0  0
 12 13  2  0  0  0
 13 14  1  0  0  0
 14 15  2  0  0  0
 15 16  1  0  0  0
 16 17  2  0  0  0
 17 12  1  0  0  0
 25 26  1  0  0  0
 26 22  1  0  0  0
 30 31  1  0  0  0
M  END
>  <minimizedAffinity>
3.56826

>  <minimizedRMSD>
1.65437

$$$$
CSC025853495 CSSS00025853495 MCULE-4180937979 MolPort-009-236-447 PubChem-45644058 Z16385826


 32 35  0  0  0  0  0  0  0  0999 V2000
   15.2928   -9.2985   13.3266 C   0  0  0  0  0  0  0  0  0  0  0  0
   15.6442   -7.9683   13.9835 C   0  0  0  0  0  0  0  0  0  0  0  0
   17.4504   -7.7164   14.0797 S   0  0  0  0  0  0  0  0  0  0  0  0
   17.7483   -9.0974   15.1961 C   0  0  0  0  0  0  0  0  0  0  0  0
   18.8809   -9.8925   15.0045 C   0  0  0  0  0  0  0  0  0  0  0  0
   19.1809  -10.9164   15.9062 C   0  0  0  0  0  0  0  0  0  0  0  0
   18.3460  -11.1604   17.0056 C   0  0  0  0  0  0  0  0  0  0  0  0
   17.2079  -10.3637   17.1935 C   0  0  0  0  0  0  0  0  0  0  0  0
   16.8942   -9.3469   16.2872 C   0  0  0  0  0  0  0  0  0  0  0  0
   15.6621   -8.6339   16.4367 N   0  0  0  0  0  0  0  0  0  0  0  0
   15.0708   -7.8952   15.3627 C   0  0  0  0  0  0  0  0  0  0  0  0
   14.0653   -7.1718   15.5820 O   0  0  0  0  0  0  0  0  0  0  0  0
   15.2054   -8.6522   17.3086 H   0  0  0  0  0  0  0  0  0  0  0  0
   18.7035  -12.2187   18.0084 C   0  0  0  0  0  0  0  0  0  0  0  0
   19.6083  -11.7004   18.9160 F   0  0  0  0  0  0  0  0  0  0  0  0
   19.2727  -13.3109   17.3764 F   0  0  0  0  0  0  0  0  0  0  0  0
   17.5740  -12.6419   18.6876 F   0  0  0  0  0  0  0  0  0  0  0  0
   16.4327   -9.8009   12.5102 C   0  0  0  0  0  0  0  0  0  0  0  0
   16.9648  -10.9065   12.7992 O   0  0  0  0  0  0  0  0  0  0  0  0
   16.9095   -9.0326   11.4483 O   0  0  0  0  0  0  0  0  0  0  0  0
   18.2195   -9.2045   10.9286 C   0  0  0  0  0  0  0  0  0  0  0  0
   16.0748  -10.4215    9.2768 C   0  0  0  0  0  0  0  0  0  0  0  0
   17.1672   -9.6125    8.6636 C   0  0  0  0  0  0  0  0  0  0  0  0
   18.1926   -9.0477    9.4451 C   0  0  0  0  0  0  0  0  0  0  0  0
   19.1598   -8.3058    8.8412 N   0  0  0  0  0  0  0  0  0  0  0  0
   19.1628   -8.1127    7.4974 C   0  0  0  0  0  0  0  0  0  0  0  0
   20.1659   -7.3525    6.8904 C   0  0  0  0  0  0  0  0  0  0  0  0
   20.1525   -7.1638    5.5042 C   0  0  0  0  0  0  0  0  0  0  0  0
   19.1380   -7.7334    4.7259 C   0  0  0  0  0  0  0  0  0  0  0  0
   18.1313   -8.4945    5.3299 C   0  0  0  0  0  0  0  0  0  0  0  0
   18.1410   -8.6856    6.7140 C   0  0  0  0  0  0  0  0  0  0  0  0
   17.1704   -9.4187    7.3174 N   0  0  0  0  0  0  0  0  0  0  0  0
 22 23  1  0  0  0
 23 24  2  0  0  0
 24 21  1  0  0  0
 24 25  1  0  0  0
 21 20  1  0  0  0
 20 18  1  0  0  0
 18 19  2  0  0  0
 18  1  1  0  0  0
  2  1  1  0  0  0
  2  3  1  0  0  0
  3  4  1  0  0  0
  4  5  2  0  0  0
  5  6  1  0  0  0
  6  7  2  0  0  0
  7  8  1  0  0  0
  7 14  1  0  0  0
  8  9  2  0  0  0
  9 10  1  0  0  0
  9  4  1  0  0  0
 10 11  1  0  0  0
 11 12  2  0  0  0
 11  2  1  0  0  0
 14 15  1  0  0  0
 14 16  1  0  0  0
 14 17  1  0  0  0
 25 26  2  0  0  0
 26 27  1  0  0  0
 27 28  2  0  0  0
 28 29  1  0  0  0
 29 30  2  0  0  0
 30 31  1  0  0  0
 31 32  2  0  0  0
 31 26  1  0  0  0
 32 23  1  0  0  0
 10 13  1  0  0  0
M  END
>  <minimizedAffinity>
3.60627

>  <minimizedRMSD>
3.26526

$$$$
CSC027287467 CSSS00027287467 MCULE-8238279048 MolPort-003-346-639 PubChem-24587977 Z219428906


 30 34  0  0  0  0  0  0  0  0999 V2000
   18.3652  -10.0750   15.4991 N   0  0  0  0  0  0  0  0  0  0  0  0
   17.9701   -8.8042   14.8721 C   0  0  0  0  0  0  0  0  0  0  0  0
   18.5106   -8.7370   13.4461 C   0  0  0  0  0  0  0  0  0  0  0  0
   18.0676   -9.9183   12.7109 N   0  0  0  0  0  0  0  0  0  0  0  0
   18.2989  -11.2191   13.3349 C   0  0  0  0  0  0  0  0  0  0  0  0
   17.7625  -11.1898   14.7634 C   0  0  0  0  0  0  0  0  0  0  0  0
   17.2160   -9.7663   11.5594 C   0  0  0  0  0  0  0  0  0  0  0  0
   15.8900  -10.0515   11.6816 N   0  0  0  0  0  0  0  0  0  0  0  0
   15.0260   -9.9406   10.6372 C   0  0  0  0  0  0  0  0  0  0  0  0
   15.4823   -9.5257    9.4262 N   0  0  0  0  0  0  0  0  0  0  0  0
   16.7882   -9.2116    9.2399 C   0  0  0  0  0  0  0  0  0  0  0  0
   17.2229   -8.7674    7.9877 C   0  0  0  0  0  0  0  0  0  0  0  0
   18.5616   -8.4170    7.7944 C   0  0  0  0  0  0  0  0  0  0  0  0
   19.4683   -8.5054    8.8535 C   0  0  0  0  0  0  0  0  0  0  0  0
   19.0401   -8.9508   10.1071 C   0  0  0  0  0  0  0  0  0  0  0  0
   17.7017   -9.3188   10.3118 C   0  0  0  0  0  0  0  0  0  0  0  0
   13.6025  -10.2690   10.8179 C   0  0  0  0  0  0  0  0  0  0  0  0
   13.1606  -11.2068   11.7460 C   0  0  0  0  0  0  0  0  0  0  0  0
   11.4898  -11.2469   11.5973 S   0  0  0  0  0  0  0  0  0  0  0  0
   11.3048  -10.1030   10.3824 C   0  0  0  0  0  0  0  0  0  0  0  0
   12.5829   -9.6606   10.0666 C   0  0  0  0  0  0  0  0  0  0  0  0
   17.9077  -11.5676   17.4702 C   0  0  0  0  0  0  0  0  0  0  0  0
   17.9155  -10.1470   16.8995 C   0  0  0  0  0  0  0  0  0  0  0  0
   16.5916   -9.4695   17.1106 C   0  0  0  0  0  0  0  0  0  0  0  0
   15.6082   -9.7322   16.3651 O   0  0  0  0  0  0  0  0  0  0  0  0
   16.4600   -8.5054   18.1570 N   0  0  0  0  0  0  0  0  0  0  0  0
   17.2419   -8.3035   18.7201 H   0  0  0  0  0  0  0  0  0  0  0  0
   15.2085   -7.8134   18.4166 C   0  0  0  0  0  0  0  0  0  0  0  0
   14.6868   -8.2186   19.7796 C   0  0  0  0  0  0  0  0  0  0  0  0
   15.3885   -6.8893   19.6024 C   0  0  0  0  0  0  0  0  0  0  0  0
 22 23  1  0  0  0
 23  1  1  0  0  0
  1  2  1  0  0  0
  2  3  1  0  0  0
  3  4  1  0  0  0
  4  5  1  0  0  0
  5  6  1  0  0  0
  4  7  1  0  0  0
  7  8  2  0  0  0
  8  9  1  0  0  0
  9 10  2  0  0  0
 10 11  1  0  0  0
 11 12  2  0  0  0
 12 13  1  0  0  0
 13 14  2  0  0  0
 14 15  1  0  0  0
 15 16  2  0  0  0
  9 17  1  0  0  0
 17 18  2  0  0  0
 18 19  1  0  0  0
 19 20  1  0  0  0
 20 21  2  0  0  0
 23 24  1  0  0  0
 24 25  2  0  0  0
 24 26  1  0  0  0
 26 28  1  0  0  0
 28 29  1  0  0  0
 29 30  1  0  0  0
  6  1  1  0  0  0
 16  7  1  0  0  0
 21 17  1  0  0  0
 30 28  1  0  0  0
 16 11  1  0  0  0
 26 27  1  0  0  0
M  END
>  <minimizedAffinity>
3.61457

>  <minimizedRMSD>
2.40612

$$$$
CSSS14929154528


 30 33  0  0  0  0  0  0  0  0999 V2000
   15.8879   -9.3391   10.9829 C   0  0  0  0  0  0  0  0  0  0  0  0
   17.2387   -8.9522   11.0217 C   0  0  0  0  0  0  0  0  0  0  0  0
   18.0166   -8.4650   12.5198 Cl  0  0  0  0  0  0  0  0  0  0  0  0
   17.9921   -8.9431    9.8446 C   0  0  0  0  0  0  0  0  0  0  0  0
   17.4189   -9.3126    8.6188 C   0  0  0  0  0  0  0  0  0  0  0  0
   16.0679   -9.6890    8.5899 C   0  0  0  0  0  0  0  0  0  0  0  0
   15.3087   -9.7013    9.7617 C   0  0  0  0  0  0  0  0  0  0  0  0
   18.1934   -9.3069    7.4036 N   0  0  0  0  0  0  0  0  0  0  0  0
   18.5200  -10.3947    6.6575 C   0  0  0  0  0  0  0  0  0  0  0  0
   19.2618  -10.0798    5.5627 N   0  0  0  0  0  0  0  0  0  0  0  0
   19.3929   -8.7449    5.6452 C   0  0  0  0  0  0  0  0  0  0  0  0
   18.7524   -8.2707    6.7513 C   0  0  0  0  0  0  0  0  0  0  0  0
   18.7383   -6.9109    7.0684 C   0  0  0  0  0  0  0  0  0  0  0  0
   19.4138   -6.0346    6.1997 C   0  0  0  0  0  0  0  0  0  0  0  0
   20.0762   -6.5291    5.0546 C   0  0  0  0  0  0  0  0  0  0  0  0
   20.0710   -7.9059    4.7645 C   0  0  0  0  0  0  0  0  0  0  0  0
   15.0548   -9.3739   12.2256 C   0  0  0  0  0  0  0  0  0  0  0  0
   16.0410   -9.8222   14.5177 C   0  0  0  0  0  0  0  0  0  0  0  0
   15.7810   -8.6496   14.9022 O   0  0  0  0  0  0  0  0  0  0  0  0
   15.6529  -10.2611   13.2146 N   0  0  0  0  0  0  0  0  0  0  0  0
   15.7960  -11.2050   12.9742 H   0  0  0  0  0  0  0  0  0  0  0  0
   19.1293   -9.9117   14.8833 C   0  0  0  0  0  0  0  0  0  0  0  0
   18.2026  -11.1203   14.8808 C   0  0  0  0  0  0  0  0  0  0  0  0
   18.1108  -11.6482   13.4583 C   0  0  0  0  0  0  0  0  0  0  0  0
   18.9376  -12.4500   15.9010 S   0  0  0  0  0  0  0  0  0  0  0  0
   18.6842  -11.6304   17.5095 C   0  0  0  0  0  0  0  0  0  0  0  0
   17.2157  -11.2873   17.6857 C   0  0  0  0  0  0  0  0  0  0  0  0
   16.8490  -10.2179   16.7680 N   0  0  0  0  0  0  0  0  0  0  0  0
   16.7925  -10.7631   15.4125 C   0  0  0  0  0  0  0  0  0  0  0  0
   17.5465   -9.4748   16.8104 H   0  0  0  0  0  0  0  0  0  0  0  0
 22 23  1  0  0  0
 23 24  1  0  0  0
 23 25  1  0  0  0
 25 26  1  0  0  0
 26 27  1  0  0  0
 27 28  1  0  0  0
 28 29  1  0  0  0
 29 18  1  0  0  0
 18 19  2  0  0  0
 18 20  1  0  0  0
 20 17  1  0  0  0
 17  1  1  0  0  0
  1  2  2  0  0  0
  2  3  1  0  0  0
  2  4  1  0  0  0
  4  5  2  0  0  0
  5  6  1  0  0  0
  6  7  2  0  0  0
  5  8  1  0  0  0
  8  9  1  0  0  0
  9 10  2  0  0  0
 10 11  1  0  0  0
 11 12  2  0  0  0
 12 13  1  0  0  0
 13 14  2  0  0  0
 14 15  1  0  0  0
 15 16  2  0  0  0
 29 23  1  0  0  0
  7  1  1  0  0  0
 12  8  1  0  0  0
 16 11  1  0  0  0
 28 30  1  0  0  0
 20 21  1  0  0  0
M  END
>  <minimizedAffinity>
3.72195

>  <minimizedRMSD>
2.98058

$$$$
CSC026333435 CSSS00026333435 MCULE-2379236177 MolPort-009-498-292 PubChem-136024192 Z28510454


 35 38  0  0  0  0  0  0  0  0999 V2000
   17.5904  -10.5437   12.6075 C   0  0  0  0  0  0  0  0  0  0  0  0
   17.2807  -11.7390   12.8632 O   0  0  0  0  0  0  0  0  0  0  0  0
   16.7062   -9.7175   11.8290 N   0  0  0  0  0  0  0  0  0  0  0  0
   18.8744   -9.9999   13.1427 C   0  0  0  0  0  0  0  0  0  0  0  0
   19.4587  -11.0237   14.5264 S   0  0  0  0  0  0  0  0  0  0  0  0
   16.6765   -8.9351   17.5237 C   0  0  0  0  0  0  0  0  0  0  0  0
   16.8387  -10.3245   17.5585 C   0  0  0  0  0  0  0  0  0  0  0  0
   17.6845  -10.9617   16.6462 C   0  0  0  0  0  0  0  0  0  0  0  0
   18.3728  -10.2111   15.6895 C   0  0  0  0  0  0  0  0  0  0  0  0
   18.2192   -8.8223   15.6500 C   0  0  0  0  0  0  0  0  0  0  0  0
   17.3736   -8.1867   16.5626 C   0  0  0  0  0  0  0  0  0  0  0  0
   13.8129   -7.0105   19.3070 C   0  0  0  0  0  0  0  0  0  0  0  0
   14.6105   -7.5701   18.1854 C   0  0  0  0  0  0  0  0  0  0  0  0
   14.2312   -7.3747   17.0008 O   0  0  0  0  0  0  0  0  0  0  0  0
   15.7974   -8.3193   18.4747 N   0  0  0  0  0  0  0  0  0  0  0  0
   16.0338   -8.4218   19.4249 H   0  0  0  0  0  0  0  0  0  0  0  0
   15.4292  -10.2342   11.3478 C   0  0  0  0  0  0  0  0  0  0  0  0
   15.5944  -10.9122    9.9945 C   0  0  0  0  0  0  0  0  0  0  0  0
   15.2956   -9.9255    8.8919 C   0  0  0  0  0  0  0  0  0  0  0  0
   16.3218  -10.2363    7.8438 C   0  0  0  0  0  0  0  0  0  0  0  0
   17.1340  -11.3573    8.4488 C   0  0  0  0  0  0  0  0  0  0  0  0
   16.9103  -11.3695    9.8324 O   0  0  0  0  0  0  0  0  0  0  0  0
   16.9906   -8.3025   11.6209 C   0  0  0  0  0  0  0  0  0  0  0  0
   17.8631   -8.1200   10.4263 C   0  0  0  0  0  0  0  0  0  0  0  0
   17.3009   -7.8951    9.2096 N   0  0  0  0  0  0  0  0  0  0  0  0
   18.0708   -7.7668    8.0992 C   0  0  0  0  0  0  0  0  0  0  0  0
   17.4756   -7.5384    6.8552 C   0  0  0  0  0  0  0  0  0  0  0  0
   18.2716   -7.4124    5.7124 C   0  0  0  0  0  0  0  0  0  0  0  0
   19.6631   -7.5145    5.8099 C   0  0  0  0  0  0  0  0  0  0  0  0
   20.2651   -7.7428    7.0510 C   0  0  0  0  0  0  0  0  0  0  0  0
   19.4734   -7.8702    8.2008 C   0  0  0  0  0  0  0  0  0  0  0  0
   20.0289   -8.1050    9.4653 C   0  0  0  0  0  0  0  0  0  0  0  0
   21.2759   -8.2097    9.6139 O   0  0  0  0  0  0  0  0  0  0  0  0
   19.2131   -8.2264   10.5451 N   0  0  0  0  0  0  0  0  0  0  0  0
   19.6076   -8.3948   11.4312 H   0  0  0  0  0  0  0  0  0  0  0  0
 12 13  1  0  0  0
 13 14  2  0  0  0
 13 15  1  0  0  0
 15  6  1  0  0  0
  6  7  2  0  0  0
  7  8  1  0  0  0
  8  9  2  0  0  0
  9  5  1  0  0  0
  9 10  1  0  0  0
  5  4  1  0  0  0
  4  1  1  0  0  0
  1  2  2  0  0  0
  1  3  1  0  0  0
  3 17  1  0  0  0
  3 23  1  0  0  0
 18 17  1  0  0  0
 18 19  1  0  0  0
 19 20  1  0  0  0
 20 21  1  0  0  0
 21 22  1  0  0  0
 22 18  1  0  0  0
 23 24  1  0  0  0
 24 25  2  0  0  0
 25 26  1  0  0  0
 26 27  2  0  0  0
 27 28  1  0  0  0
 28 29  2  0  0  0
 29 30  1  0  0  0
 30 31  2  0  0  0
 31 32  1  0  0  0
 31 26  1  0  0  0
 32 33  2  0  0  0
 32 34  1  0  0  0
 34 24  1  0  0  0
 10 11  2  0  0  0
 11  6  1  0  0  0
 15 16  1  0  0  0
 34 35  1  0  0  0
M  END
>  <minimizedAffinity>
3.73620

>  <minimizedRMSD>
2.80340

$$$$
CSC025980546 12535827 CSSS00025980546 MCULE-6280516614 MolPort-005-722-599 PubChem-25342204 Z245532494 ZINC000012535827 ZINC12535827


 34 38  0  0  0  0  0  0  0  0999 V2000
   17.1030   -8.3689    7.1607 C   0  0  0  0  0  0  0  0  0  0  0  0
   17.6569   -8.6260    8.4783 N   0  0  0  0  0  0  0  0  0  0  0  0
   18.9425   -8.5164    8.7825 N   0  0  0  0  0  0  0  0  0  0  0  0
   19.0923   -8.8613   10.0851 C   0  0  0  0  0  0  0  0  0  0  0  0
   20.4237   -8.9404   10.7441 C   0  0  0  0  0  0  0  0  0  0  0  0
   17.8498   -9.2014   10.6175 C   0  0  0  0  0  0  0  0  0  0  0  0
   17.3797   -9.6713   11.8573 C   0  0  0  0  0  0  0  0  0  0  0  0
   16.0080   -9.9850   11.9325 C   0  0  0  0  0  0  0  0  0  0  0  0
   15.1571   -9.8174   10.8128 C   0  0  0  0  0  0  0  0  0  0  0  0
   15.6720   -9.3450    9.6367 N   0  0  0  0  0  0  0  0  0  0  0  0
   16.9917   -9.0453    9.5630 C   0  0  0  0  0  0  0  0  0  0  0  0
   13.7192  -10.1484   10.9059 C   0  0  0  0  0  0  0  0  0  0  0  0
   13.2670  -11.1632   11.7656 C   0  0  0  0  0  0  0  0  0  0  0  0
   11.9056  -11.4696   11.8473 C   0  0  0  0  0  0  0  0  0  0  0  0
   10.9831  -10.7647   11.0703 C   0  0  0  0  0  0  0  0  0  0  0  0
   11.4215   -9.7534   10.2119 C   0  0  0  0  0  0  0  0  0  0  0  0
   12.7829   -9.4469   10.1304 C   0  0  0  0  0  0  0  0  0  0  0  0
   18.2108   -9.8210   13.0674 C   0  0  0  0  0  0  0  0  0  0  0  0
   19.3364  -10.3829   13.0083 O   0  0  0  0  0  0  0  0  0  0  0  0
   17.7572   -9.2665   14.3066 N   0  0  0  0  0  0  0  0  0  0  0  0
   16.8638   -8.8543   14.3392 H   0  0  0  0  0  0  0  0  0  0  0  0
   18.5608   -9.2858   15.5216 C   0  0  0  0  0  0  0  0  0  0  0  0
   17.6810   -9.0879   16.7455 C   0  0  0  0  0  0  0  0  0  0  0  0
   16.2496   -8.8046   16.3250 C   0  0  0  0  0  0  0  0  0  0  0  0
   15.5013   -8.1735   17.4472 C   0  0  0  0  0  0  0  0  0  0  0  0
   14.3154   -7.5368   17.2634 N   0  0  0  0  0  0  0  0  0  0  0  0
   14.0051   -7.1435   18.5065 C   0  0  0  0  0  0  0  0  0  0  0  0
   12.8789   -6.4349   18.9176 C   0  0  0  0  0  0  0  0  0  0  0  0
   12.7691   -6.1343   20.2882 C   0  0  0  0  0  0  0  0  0  0  0  0
   13.7717   -6.5442   21.1956 C   0  0  0  0  0  0  0  0  0  0  0  0
   14.8963   -7.2597   20.7433 C   0  0  0  0  0  0  0  0  0  0  0  0
   14.9714   -7.5384   19.3809 C   0  0  0  0  0  0  0  0  0  0  0  0
   15.9400   -8.2009   18.7337 N   0  0  0  0  0  0  0  0  0  0  0  0
   16.7609   -8.6049   19.0974 H   0  0  0  0  0  0  0  0  0  0  0  0
  1  2  1  0  0  0
  2  3  1  0  0  0
  3  4  2  0  0  0
  4  5  1  0  0  0
  4  6  1  0  0  0
  6  7  2  0  0  0
  7  8  1  0  0  0
  7 18  1  0  0  0
  8  9  2  0  0  0
  9 10  1  0  0  0
  9 12  1  0  0  0
 10 11  2  0  0  0
 11  2  1  0  0  0
 11  6  1  0  0  0
 12 13  2  0  0  0
 13 14  1  0  0  0
 14 15  2  0  0  0
 15 16  1  0  0  0
 16 17  2  0  0  0
 17 12  1  0  0  0
 18 19  2  0  0  0
 18 20  1  0  0  0
 20 22  1  0  0  0
 22 23  1  0  0  0
 23 24  1  0  0  0
 24 25  1  0  0  0
 25 26  2  0  0  0
 26 27  1  0  0  0
 27 28  2  0  0  0
 28 29  1  0  0  0
 29 30  2  0  0  0
 30 31  1  0  0  0
 31 32  2  0  0  0
 32 33  1  0  0  0
 32 27  1  0  0  0
 33 25  1  0  0  0
 20 21  1  0  0  0
 33 34  1  0  0  0
M  END
>  <minimizedAffinity>
3.74745

>  <minimizedRMSD>
1.66509

$$$$
45731542 CSSS00103645804 MCULE-5527511003 MolPort-007-182-719 PubChem-46692723 Z141925580


 35 39  0  0  0  0  0  0  0  0999 V2000
   15.7031   -8.2688   15.9715 C   0  0  0  0  0  0  0  0  0  0  0  0
   15.9130   -7.0860   15.5937 O   0  0  0  0  0  0  0  0  0  0  0  0
   15.3942   -9.3031   15.0301 N   0  0  0  0  0  0  0  0  0  0  0  0
   14.9478  -10.1071   15.3818 H   0  0  0  0  0  0  0  0  0  0  0  0
   15.6732   -9.2785   13.6255 C   0  0  0  0  0  0  0  0  0  0  0  0
   16.3140   -8.1892   13.0206 C   0  0  0  0  0  0  0  0  0  0  0  0
   16.6448   -8.2308   11.6649 C   0  0  0  0  0  0  0  0  0  0  0  0
   16.3479   -9.3635   10.8920 C   0  0  0  0  0  0  0  0  0  0  0  0
   15.6980  -10.4473   11.5020 C   0  0  0  0  0  0  0  0  0  0  0  0
   15.3662  -10.4051   12.8579 C   0  0  0  0  0  0  0  0  0  0  0  0
   16.7230   -9.4356    9.5034 N   0  0  0  0  0  0  0  0  0  0  0  0
   16.1858  -10.2663    8.5715 C   0  0  0  0  0  0  0  0  0  0  0  0
   16.7742  -10.1393    7.3525 N   0  0  0  0  0  0  0  0  0  0  0  0
   17.7107   -9.1950    7.5519 C   0  0  0  0  0  0  0  0  0  0  0  0
   18.6236   -8.6989    6.6245 C   0  0  0  0  0  0  0  0  0  0  0  0
   19.5348   -7.7217    7.0676 C   0  0  0  0  0  0  0  0  0  0  0  0
   19.5130   -7.2759    8.4073 C   0  0  0  0  0  0  0  0  0  0  0  0
   18.5792   -7.8012    9.3192 C   0  0  0  0  0  0  0  0  0  0  0  0
   17.6862   -8.7648    8.8451 C   0  0  0  0  0  0  0  0  0  0  0  0
   15.8403   -8.6152   17.4134 C   0  0  0  0  0  0  0  0  0  0  0  0
   17.1944  -10.7167   17.7383 C   0  0  0  0  0  0  0  0  0  0  0  0
   16.1871  -11.3913   18.0819 O   0  0  0  0  0  0  0  0  0  0  0  0
   17.1103   -9.2958   17.6196 N   0  0  0  0  0  0  0  0  0  0  0  0
   17.9350   -8.7615   17.6790 H   0  0  0  0  0  0  0  0  0  0  0  0
   18.4623  -11.4108   17.3786 C   0  0  0  0  0  0  0  0  0  0  0  0
   19.5984   -9.2743   12.7912 C   0  0  0  0  0  0  0  0  0  0  0  0
   19.6703   -8.8263   14.1129 C   0  0  0  0  0  0  0  0  0  0  0  0
   19.2856   -9.6661   15.1612 C   0  0  0  0  0  0  0  0  0  0  0  0
   18.8198  -10.9633   14.8979 C   0  0  0  0  0  0  0  0  0  0  0  0
   18.7457  -11.4078   13.5535 C   0  0  0  0  0  0  0  0  0  0  0  0
   19.1388  -10.5629   12.5114 C   0  0  0  0  0  0  0  0  0  0  0  0
   18.2776  -12.6914   13.2662 C   0  0  0  0  0  0  0  0  0  0  0  0
   17.8788  -13.5392   14.3006 C   0  0  0  0  0  0  0  0  0  0  0  0
   17.9522  -13.1097   15.6280 C   0  0  0  0  0  0  0  0  0  0  0  0
   18.4274  -11.8303   15.9392 C   0  0  0  0  0  0  0  0  0  0  0  0
 26 27  2  0  0  0
 27 28  1  0  0  0
 28 29  2  0  0  0
 29 30  1  0  0  0
 30 31  2  0  0  0
 30 32  1  0  0  0
 32 33  2  0  0  0
 33 34  1  0  0  0
 34 35  2  0  0  0
 35 25  1  0  0  0
 25 21  1  0  0  0
 21 22  2  0  0  0
 21 23  1  0  0  0
 23 20  1  0  0  0
 20  1  1  0  0  0
  1  2  2  0  0  0
  1  3  1  0  0  0
  3  5  1  0  0  0
  5  6  2  0  0  0
  6  7  1  0  0  0
  7  8  2  0  0  0
  8  9  1  0  0  0
  9 10  2  0  0  0
  8 11  1  0  0  0
 11 12  1  0  0  0
 12 13  2  0  0  0
 13 14  1  0  0  0
 14 15  2  0  0  0
 15 16  1  0  0  0
 16 17  2  0  0  0
 17 18  1  0  0  0
 18 19  2  0  0  0
 31 26  1  0  0  0
 35 29  1  0  0  0
 10  5  1  0  0  0
 19 11  1  0  0  0
 19 14  1  0  0  0
 23 24  1  0  0  0
  3  4  1  0  0  0
M  END
>  <minimizedAffinity>
3.76062

>  <minimizedRMSD>
1.79252

$$$$
8425940 CSSS00132959141 ChemDiv-8011-6950 MCULE-1513355198 MolPort-001-982-702 PubChem-1804181 ZINC000008425940


 34 37  0  0  0  0  0  0  0  0999 V2000
   16.3871   -9.5767    9.5295 C   0  0  0  0  0  0  0  0  0  0  0  0
   17.6367   -9.2282    9.9403 N   0  0  0  0  0  0  0  0  0  0  0  0
   18.1557   -8.5609    8.9007 C   0  0  0  0  0  0  0  0  0  0  0  0
   17.2357   -8.5270    7.8943 C   0  0  0  0  0  0  0  0  0  0  0  0
   17.4935   -7.8932    6.6815 C   0  0  0  0  0  0  0  0  0  0  0  0
   18.7510   -7.2801    6.5254 C   0  0  0  0  0  0  0  0  0  0  0  0
   19.7025   -7.3137    7.5700 C   0  0  0  0  0  0  0  0  0  0  0  0
   19.4098   -7.9620    8.7841 C   0  0  0  0  0  0  0  0  0  0  0  0
   16.1079   -9.1611    8.2640 N   0  0  0  0  0  0  0  0  0  0  0  0
   15.4149  -10.3231   10.3520 C   0  0  0  0  0  0  0  0  0  0  0  0
   15.6172  -11.5443   10.8776 N   0  0  0  0  0  0  0  0  0  0  0  0
   14.5232  -11.8394   11.5254 O   0  0  0  0  0  0  0  0  0  0  0  0
   13.6103  -10.9093   11.4706 N   0  0  0  0  0  0  0  0  0  0  0  0
   14.1540   -9.9310   10.7276 C   0  0  0  0  0  0  0  0  0  0  0  0
   13.5147   -8.6940   10.3951 N   0  0  0  0  0  0  0  0  0  0  0  0
   12.0994   -8.5064   10.2990 C   0  0  0  0  0  0  0  0  0  0  0  0
   11.3018   -9.4556   10.5233 O   0  0  0  0  0  0  0  0  0  0  0  0
   14.0911   -7.9154   10.2196 H   0  0  0  0  0  0  0  0  0  0  0  0
   11.5614   -7.1620    9.9587 C   0  0  0  0  0  0  0  0  0  0  0  0
   11.8067   -6.2034   11.1068 C   0  0  0  0  0  0  0  0  0  0  0  0
   18.2601   -9.4458   11.2396 C   0  0  0  0  0  0  0  0  0  0  0  0
   17.1947   -9.5283   12.3150 C   0  0  0  0  0  0  0  0  0  0  0  0
   17.5273  -10.6569   13.2699 C   0  0  0  0  0  0  0  0  0  0  0  0
   17.2110  -10.2547   14.6680 C   0  0  0  0  0  0  0  0  0  0  0  0
   17.4314  -11.0499   15.7371 N   0  0  0  0  0  0  0  0  0  0  0  0
   17.0906  -10.4835   16.8936 N   0  0  0  0  0  0  0  0  0  0  0  0
   16.6014   -9.2330   16.7511 C   0  0  0  0  0  0  0  0  0  0  0  0
   16.5721   -8.7646   15.1288 S   0  0  0  0  0  0  0  0  0  0  0  0
   16.1738   -8.4465   17.8695 N   0  0  0  0  0  0  0  0  0  0  0  0
   14.9530   -7.7039   17.9674 C   0  0  0  0  0  0  0  0  0  0  0  0
   14.1308   -7.6681   17.0143 O   0  0  0  0  0  0  0  0  0  0  0  0
   16.7778   -8.4132   18.6462 H   0  0  0  0  0  0  0  0  0  0  0  0
   14.6668   -6.9328   19.2070 C   0  0  0  0  0  0  0  0  0  0  0  0
   14.9216   -7.8002   20.4237 C   0  0  0  0  0  0  0  0  0  0  0  0
  1  2  1  0  0  0
  2 21  1  0  0  0
 21 22  1  0  0  0
 22 23  1  0  0  0
 23 24  1  0  0  0
 24 25  2  0  0  0
 25 26  1  0  0  0
 26 27  2  0  0  0
 27 29  1  0  0  0
 29 30  1  0  0  0
 30 33  1  0  0  0
 33 34  1  0  0  0
 30 31  2  0  0  0
 27 28  1  0  0  0
  2  3  1  0  0  0
  3  4  1  0  0  0
  4  5  2  0  0  0
  5  6  1  0  0  0
  6  7  2  0  0  0
  7  8  1  0  0  0
  4  9  1  0  0  0
  1 10  1  0  0  0
 10 11  2  0  0  0
 11 12  1  0  0  0
 12 13  1  0  0  0
 13 14  2  0  0  0
 14 15  1  0  0  0
 15 16  1  0  0  0
 16 19  1  0  0  0
 19 20  1  0  0  0
 16 17  2  0  0  0
  9  1  2  0  0  0
 14 10  1  0  0  0
 28 24  1  0  0  0
  8  3  2  0  0  0
 29 32  1  0  0  0
 15 18  1  0  0  0
M  END
>  <minimizedAffinity>
3.76766

>  <minimizedRMSD>
3.18384

$$$$
CSSS00159504211 MCULE-7895445943 MolPort-005-074-823 PubChem-45207826


 37 42  0  0  0  0  0  0  0  0999 V2000
   17.8272   -9.6738   16.9897 C   0  0  0  0  0  0  0  0  0  0  0  0
   16.8339  -10.8372   16.9665 C   0  0  0  0  0  0  0  0  0  0  0  0
   16.8906   -9.8803   15.8024 C   0  0  0  0  0  0  0  0  0  0  0  0
   15.6119   -9.0542   15.6387 C   0  0  0  0  0  0  0  0  0  0  0  0
   15.7951   -8.0440   14.5093 C   0  0  0  0  0  0  0  0  0  0  0  0
   16.3470   -8.7083   13.3293 N   0  0  0  0  0  0  0  0  0  0  0  0
   17.6213   -9.4136   13.4718 C   0  0  0  0  0  0  0  0  0  0  0  0
   17.5061  -10.4878   14.5497 C   0  0  0  0  0  0  0  0  0  0  0  0
   15.5675   -8.8084   12.1257 C   0  0  0  0  0  0  0  0  0  0  0  0
   14.3213   -8.6203   12.1761 O   0  0  0  0  0  0  0  0  0  0  0  0
   16.1833   -9.1586   10.8271 C   0  0  0  0  0  0  0  0  0  0  0  0
   15.7520  -10.3044   10.1600 C   0  0  0  0  0  0  0  0  0  0  0  0
   16.2948  -10.6490    8.9673 N   0  0  0  0  0  0  0  0  0  0  0  0
   17.2605   -9.8902    8.3916 C   0  0  0  0  0  0  0  0  0  0  0  0
   17.7982  -10.2848    7.1640 C   0  0  0  0  0  0  0  0  0  0  0  0
   18.7846   -9.5044    6.5644 C   0  0  0  0  0  0  0  0  0  0  0  0
   19.2228   -8.3402    7.1917 C   0  0  0  0  0  0  0  0  0  0  0  0
   18.6652   -7.9725    8.4174 C   0  0  0  0  0  0  0  0  0  0  0  0
   17.6994   -8.7395    9.0076 N   0  0  0  0  0  0  0  0  0  0  0  0
   17.1638   -8.3590   10.2099 C   0  0  0  0  0  0  0  0  0  0  0  0
   17.5295   -7.2795   10.7559 O   0  0  0  0  0  0  0  0  0  0  0  0
   18.2449   -7.7958   18.3961 O   0  0  0  0  0  0  0  0  0  0  0  0
   17.3783   -8.5521   17.8819 C   0  0  0  0  0  0  0  0  0  0  0  0
   15.9895   -8.3311   18.1368 N   0  0  0  0  0  0  0  0  0  0  0  0
   15.3322   -8.9701   17.7777 H   0  0  0  0  0  0  0  0  0  0  0  0
   15.5142   -7.1922   18.9100 C   0  0  0  0  0  0  0  0  0  0  0  0
   14.3984   -7.6152   19.8666 C   0  0  0  0  0  0  0  0  0  0  0  0
   14.2919   -6.5734   20.9742 C   0  0  0  0  0  0  0  0  0  0  0  0
   14.3755   -7.3178   22.2892 C   0  0  0  0  0  0  0  0  0  0  0  0
   15.1529   -8.5733   21.9845 C   0  0  0  0  0  0  0  0  0  0  0  0
   14.7915   -8.9239   20.5582 C   0  0  0  0  0  0  0  0  0  0  0  0
   13.0746   -7.7140   19.1255 C   0  0  0  0  0  0  0  0  0  0  0  0
   12.1031   -8.6691   19.4753 C   0  0  0  0  0  0  0  0  0  0  0  0
   10.9058   -8.7621   18.7606 C   0  0  0  0  0  0  0  0  0  0  0  0
   10.6651   -7.9036   17.6857 C   0  0  0  0  0  0  0  0  0  0  0  0
   11.6212   -6.9517   17.3250 C   0  0  0  0  0  0  0  0  0  0  0  0
   12.8186   -6.8583   18.0393 C   0  0  0  0  0  0  0  0  0  0  0  0
 22 23  2  0  0  0
 23 24  1  0  0  0
 24 26  1  0  0  0
 26 27  1  0  0  0
 27 28  1  0  0  0
 27 32  1  0  0  0
 28 29  1  0  0  0
 29 30  1  0  0  0
 30 31  1  0  0  0
 31 27  1  0  0  0
 32 33  2  0  0  0
 33 34  1  0  0  0
 34 35  2  0  0  0
 35 36  1  0  0  0
 36 37  2  0  0  0
 37 32  1  0  0  0
  1 23  1  0  0  0
  1  2  1  0  0  0
  2  3  1  0  0  0
  3  4  1  0  0  0
  3  1  1  0  0  0
  4  5  1  0  0  0
  5  6  1  0  0  0
  6  7  1  0  0  0
  6  9  1  0  0  0
  7  8  1  0  0  0
  8  3  1  0  0  0
  9 10  2  0  0  0
  9 11  1  0  0  0
 11 12  2  0  0  0
 12 13  1  0  0  0
 13 14  2  0  0  0
 14 15  1  0  0  0
 15 16  2  0  0  0
 16 17  1  0  0  0
 17 18  2  0  0  0
 18 19  1  0  0  0
 19 20  1  0  0  0
 19 14  1  0  0  0
 20 21  2  0  0  0
 20 11  1  0  0  0
 24 25  1  0  0  0
M  END
>  <minimizedAffinity>
3.81980

>  <minimizedRMSD>
1.98798

$$$$
CSC028001203 21336882 CSSS00028001203 MCULE-6132830295 MolPort-009-502-584 PubChem-29441720 Z29685046 ZINC000021336882 ZINC21336882


 37 40  0  0  0  0  0  0  0  0999 V2000
   16.4456  -10.1915   15.2874 C   0  0  0  0  0  0  0  0  0  0  0  0
   16.0322   -9.5357   16.4570 C   0  0  0  0  0  0  0  0  0  0  0  0
   15.8219   -8.1509   16.4776 C   0  0  0  0  0  0  0  0  0  0  0  0
   16.0482   -7.4038   15.3128 C   0  0  0  0  0  0  0  0  0  0  0  0
   16.4537   -8.0568   14.1392 C   0  0  0  0  0  0  0  0  0  0  0  0
   16.6283   -9.4425   14.1076 C   0  0  0  0  0  0  0  0  0  0  0  0
   15.4035   -7.4739   17.6728 N   0  0  0  0  0  0  0  0  0  0  0  0
   15.3500   -8.0180   19.0006 C   0  0  0  0  0  0  0  0  0  0  0  0
   15.6572   -9.2226   19.2141 O   0  0  0  0  0  0  0  0  0  0  0  0
   15.1230   -6.5358   17.5709 H   0  0  0  0  0  0  0  0  0  0  0  0
   14.9273   -7.1620   20.1231 C   0  0  0  0  0  0  0  0  0  0  0  0
   13.6618   -6.5570   20.1154 C   0  0  0  0  0  0  0  0  0  0  0  0
   13.2601   -5.7435   21.1791 C   0  0  0  0  0  0  0  0  0  0  0  0
   14.1214   -5.5286   22.2585 C   0  0  0  0  0  0  0  0  0  0  0  0
   15.3839   -6.1273   22.2745 C   0  0  0  0  0  0  0  0  0  0  0  0
   15.7854   -6.9414   21.2111 C   0  0  0  0  0  0  0  0  0  0  0  0
   17.0548  -10.0430   12.8781 N   0  0  0  0  0  0  0  0  0  0  0  0
   16.2105  -10.3411   11.7617 C   0  0  0  0  0  0  0  0  0  0  0  0
   15.0553   -9.8462   11.6749 O   0  0  0  0  0  0  0  0  0  0  0  0
   18.0092  -10.2696   12.7945 H   0  0  0  0  0  0  0  0  0  0  0  0
   16.7417  -11.1672   10.6400 C   0  0  0  0  0  0  0  0  0  0  0  0
   17.1261  -10.3148    9.5209 N   0  0  0  0  0  0  0  0  0  0  0  0
   16.4534  -10.4553    8.3358 C   0  0  0  0  0  0  0  0  0  0  0  0
   16.7634   -9.6761    7.2613 N   0  0  0  0  0  0  0  0  0  0  0  0
   17.7489   -8.7583    7.3893 C   0  0  0  0  0  0  0  0  0  0  0  0
   18.4473   -8.5838    8.5584 C   0  0  0  0  0  0  0  0  0  0  0  0
   19.4257   -7.5853    8.4855 C   0  0  0  0  0  0  0  0  0  0  0  0
   19.4787   -6.9776    7.2250 C   0  0  0  0  0  0  0  0  0  0  0  0
   18.3075   -7.6954    6.2284 S   0  0  0  0  0  0  0  0  0  0  0  0
   18.1266   -9.3846    9.6537 C   0  0  0  0  0  0  0  0  0  0  0  0
   18.7491   -9.2538   10.7437 O   0  0  0  0  0  0  0  0  0  0  0  0
   16.7089  -11.5661   15.2962 O   0  0  0  0  0  0  0  0  0  0  0  0
   18.4902  -12.7219   14.1818 C   0  0  0  0  0  0  0  0  0  0  0  0
   18.0128  -12.1015   15.4781 C   0  0  0  0  0  0  0  0  0  0  0  0
   15.8639   -6.0168   15.3412 O   0  0  0  0  0  0  0  0  0  0  0  0
   16.0483   -5.1918   14.1988 C   0  0  0  0  0  0  0  0  0  0  0  0
   16.6645   -3.8754   14.6222 C   0  0  0  0  0  0  0  0  0  0  0  0
 33 34  1  0  0  0
 34 32  1  0  0  0
 32  1  1  0  0  0
  1  2  2  0  0  0
  2  3  1  0  0  0
  3  7  1  0  0  0
  3  4  2  0  0  0
  7  8  1  0  0  0
  8  9  2  0  0  0
  8 11  1  0  0  0
 11 12  2  0  0  0
 12 13  1  0  0  0
 13 14  2  0  0  0
 14 15  1  0  0  0
 15 16  2  0  0  0
 16 11  1  0  0  0
  4 35  1  0  0  0
  4  5  1  0  0  0
 35 36  1  0  0  0
 36 37  1  0  0  0
  5  6  2  0  0  0
  6 17  1  0  0  0
  6  1  1  0  0  0
 17 18  1  0  0  0
 18 19  2  0  0  0
 18 21  1  0  0  0
 21 22  1  0  0  0
 22 23  1  0  0  0
 23 24  2  0  0  0
 24 25  1  0  0  0
 25 26  2  0  0  0
 26 27  1  0  0  0
 26 30  1  0  0  0
 27 28  2  0  0  0
 28 29  1  0  0  0
 29 25  1  0  0  0
 30 31  2  0  0  0
 30 22  1  0  0  0
  7 10  1  0  0  0
 17 20  1  0  0  0
M  END
>  <minimizedAffinity>
3.86451

>  <minimizedRMSD>
1.80036

$$$$
CSC027900247 CSSS00027900247 MCULE-7637283215 MolPort-004-176-085 PubChem-16317827 Z17321727


 35 39  0  0  0  0  0  0  0  0999 V2000
   17.3127   -9.3489   14.2034 N   0  0  0  0  0  0  0  0  0  0  0  0
   17.6455   -9.8847   13.0080 C   0  0  0  0  0  0  0  0  0  0  0  0
   18.8317  -10.5242   13.0848 N   0  0  0  0  0  0  0  0  0  0  0  0
   19.2607  -10.4163   14.3340 N   0  0  0  0  0  0  0  0  0  0  0  0
   18.3350   -9.7060   15.0030 C   0  0  0  0  0  0  0  0  0  0  0  0
   16.8479   -9.7707   11.7568 C   0  0  0  0  0  0  0  0  0  0  0  0
   17.4265   -9.4549   10.5054 C   0  0  0  0  0  0  0  0  0  0  0  0
   16.5870   -9.3388    9.3705 C   0  0  0  0  0  0  0  0  0  0  0  0
   17.1326   -9.0355    8.1197 C   0  0  0  0  0  0  0  0  0  0  0  0
   18.5097   -8.8502    7.9806 C   0  0  0  0  0  0  0  0  0  0  0  0
   19.3475   -8.9698    9.0914 C   0  0  0  0  0  0  0  0  0  0  0  0
   18.8097   -9.2723   10.3449 C   0  0  0  0  0  0  0  0  0  0  0  0
   15.2477   -9.5279    9.4888 N   0  0  0  0  0  0  0  0  0  0  0  0
   14.6638   -9.8330   10.6794 C   0  0  0  0  0  0  0  0  0  0  0  0
   15.4622   -9.9547   11.8226 C   0  0  0  0  0  0  0  0  0  0  0  0
   13.2006  -10.0314   10.7565 C   0  0  0  0  0  0  0  0  0  0  0  0
   12.3315   -9.1092   10.1527 C   0  0  0  0  0  0  0  0  0  0  0  0
   10.9469   -9.2891   10.2211 C   0  0  0  0  0  0  0  0  0  0  0  0
   10.4178  -10.3937   10.8932 C   0  0  0  0  0  0  0  0  0  0  0  0
   11.2729  -11.3188   11.4970 C   0  0  0  0  0  0  0  0  0  0  0  0
   12.6574  -11.1389   11.4290 C   0  0  0  0  0  0  0  0  0  0  0  0
   15.9844   -7.3219   13.8994 C   0  0  0  0  0  0  0  0  0  0  0  0
   16.0797   -8.6705   14.5879 C   0  0  0  0  0  0  0  0  0  0  0  0
   18.4428   -9.3463   16.7570 S   0  0  0  0  0  0  0  0  0  0  0  0
   16.6754   -9.6761   17.0424 C   0  0  0  0  0  0  0  0  0  0  0  0
   15.9911   -8.4620   17.5694 C   0  0  0  0  0  0  0  0  0  0  0  0
   15.5545   -8.4241   18.9283 N   0  0  0  0  0  0  0  0  0  0  0  0
   15.7954   -7.4795   16.8056 O   0  0  0  0  0  0  0  0  0  0  0  0
   15.7146   -9.2069   19.5036 H   0  0  0  0  0  0  0  0  0  0  0  0
   14.8801   -7.2633   19.4876 C   0  0  0  0  0  0  0  0  0  0  0  0
   13.3754   -7.4416   19.3932 C   0  0  0  0  0  0  0  0  0  0  0  0
   12.7432   -6.6636   20.3730 O   0  0  0  0  0  0  0  0  0  0  0  0
   11.4718   -6.3837   19.8514 C   0  0  0  0  0  0  0  0  0  0  0  0
   11.5789   -6.3049   18.3462 C   0  0  0  0  0  0  0  0  0  0  0  0
   12.8723   -6.9962   18.0383 C   0  0  0  0  0  0  0  0  0  0  0  0
 22 23  1  0  0  0
 23  1  1  0  0  0
  1  2  1  0  0  0
  2  6  1  0  0  0
  6  7  1  0  0  0
  7  8  1  0  0  0
  8  9  2  0  0  0
  9 10  1  0  0  0
 10 11  2  0  0  0
 11 12  1  0  0  0
  8 13  1  0  0  0
 13 14  2  0  0  0
 14 16  1  0  0  0
 16 17  2  0  0  0
 17 18  1  0  0  0
 18 19  2  0  0  0
 19 20  1  0  0  0
 20 21  2  0  0  0
 14 15  1  0  0  0
  2  3  2  0  0  0
  3  4  1  0  0  0
  4  5  2  0  0  0
  5 24  1  0  0  0
 24 25  1  0  0  0
 25 26  1  0  0  0
 26 27  1  0  0  0
 27 30  1  0  0  0
 30 31  1  0  0  0
 31 32  1  0  0  0
 32 33  1  0  0  0
 33 34  1  0  0  0
 34 35  1  0  0  0
 26 28  2  0  0  0
  5  1  1  0  0  0
 35 31  1  0  0  0
 15  6  2  0  0  0
 12  7  2  0  0  0
 21 16  1  0  0  0
 27 29  1  0  0  0
M  END
>  <minimizedAffinity>
3.93159

>  <minimizedRMSD>
3.12929

$$$$
CSC027021201 24658436 CSSS00027021201 MCULE-7559975527 MolPort-005-706-058 PubChem-31981001 Z367550654 ZINC000024658436 ZINC24658436


 33 36  0  0  0  0  0  0  0  0999 V2000
   20.0911   -7.1741    6.8454 C   0  0  0  0  0  0  0  0  0  0  0  0
   19.0439   -7.9101    7.6067 C   0  0  0  0  0  0  0  0  0  0  0  0
   19.1507   -8.3499    8.9290 C   0  0  0  0  0  0  0  0  0  0  0  0
   20.3678   -8.1272    9.7650 C   0  0  0  0  0  0  0  0  0  0  0  0
   17.9888   -9.0145    9.3637 C   0  0  0  0  0  0  0  0  0  0  0  0
   17.7118   -9.5886   10.6114 C   0  0  0  0  0  0  0  0  0  0  0  0
   16.4968  -10.1827   10.8002 N   0  0  0  0  0  0  0  0  0  0  0  0
   15.5603  -10.2338    9.8070 C   0  0  0  0  0  0  0  0  0  0  0  0
   15.8150   -9.6723    8.5923 N   0  0  0  0  0  0  0  0  0  0  0  0
   17.0138   -9.0789    8.3856 C   0  0  0  0  0  0  0  0  0  0  0  0
   17.5332   -8.3338    6.9760 S   0  0  0  0  0  0  0  0  0  0  0  0
   18.6707   -9.5540   11.6699 N   0  0  0  0  0  0  0  0  0  0  0  0
   19.3016   -8.7996   11.7152 H   0  0  0  0  0  0  0  0  0  0  0  0
   18.7470  -10.5946   12.6824 C   0  0  0  0  0  0  0  0  0  0  0  0
   18.6836   -9.9805   14.0356 C   0  0  0  0  0  0  0  0  0  0  0  0
   19.8622   -9.7252   14.7443 C   0  0  0  0  0  0  0  0  0  0  0  0
   19.8038   -9.1249   16.0056 C   0  0  0  0  0  0  0  0  0  0  0  0
   18.5675   -8.7732   16.5559 C   0  0  0  0  0  0  0  0  0  0  0  0
   17.3874   -9.0177   15.8446 C   0  0  0  0  0  0  0  0  0  0  0  0
   17.4477   -9.6213   14.5837 C   0  0  0  0  0  0  0  0  0  0  0  0
   15.8351   -8.5809   16.5338 S   0  0  0  0  0  0  0  0  0  0  0  0
   16.0132   -8.2614   18.2226 N   0  0  0  0  0  0  0  0  0  0  0  0
   15.3134   -7.3439   15.8585 O   0  0  0  0  0  0  0  0  0  0  0  0
   14.8625   -9.7094   16.3392 O   0  0  0  0  0  0  0  0  0  0  0  0
   16.6733   -7.4953   18.3559 H   0  0  0  0  0  0  0  0  0  0  0  0
   16.3627   -9.0969   18.6917 H   0  0  0  0  0  0  0  0  0  0  0  0
   14.2376  -10.8664   10.0678 C   0  0  0  0  0  0  0  0  0  0  0  0
   13.6458  -10.3065   11.2789 N   0  0  0  0  0  0  0  0  0  0  0  0
   13.3297   -8.8863   11.0587 C   0  0  0  0  0  0  0  0  0  0  0  0
   12.0922   -8.7145   10.1683 C   0  0  0  0  0  0  0  0  0  0  0  0
   10.9939   -9.3630   10.7543 O   0  0  0  0  0  0  0  0  0  0  0  0
   11.2697  -10.7378   10.6895 C   0  0  0  0  0  0  0  0  0  0  0  0
   12.4410  -11.0758   11.6218 C   0  0  0  0  0  0  0  0  0  0  0  0
  1  2  1  0  0  0
  2  3  2  0  0  0
  3  4  1  0  0  0
  3  5  1  0  0  0
  5  6  2  0  0  0
  6 12  1  0  0  0
  6  7  1  0  0  0
 12 14  1  0  0  0
 14 15  1  0  0  0
 15 16  2  0  0  0
 16 17  1  0  0  0
 17 18  2  0  0  0
 18 19  1  0  0  0
 19 20  2  0  0  0
 19 21  1  0  0  0
 20 15  1  0  0  0
 21 22  1  0  0  0
 21 23  2  0  0  0
 21 24  2  0  0  0
  7  8  2  0  0  0
  8 27  1  0  0  0
  8  9  1  0  0  0
 27 28  1  0  0  0
 28 29  1  0  0  0
 29 30  1  0  0  0
 30 31  1  0  0  0
 31 32  1  0  0  0
 32 33  1  0  0  0
 33 28  1  0  0  0
  9 10  2  0  0  0
 10 11  1  0  0  0
 10  5  1  0  0  0
 11  2  1  0  0  0
 12 13  1  0  0  0
 22 25  1  0  0  0
 22 26  1  0  0  0
M  END
>  <minimizedAffinity>
3.96363

>  <minimizedRMSD>
2.72467

$$$$
CSSS00159593520 MCULE-4043100532 MolPort-021-756-398 PubChem-56893555


 30 33  0  0  0  0  0  0  0  0999 V2000
   17.6024  -10.8666   12.3723 C   0  0  0  0  0  0  0  0  0  0  0  0
   18.4265  -11.8106   12.5224 O   0  0  0  0  0  0  0  0  0  0  0  0
   16.3097  -11.1241   11.7991 N   0  0  0  0  0  0  0  0  0  0  0  0
   15.9783  -12.4460   11.2776 C   0  0  0  0  0  0  0  0  0  0  0  0
   15.8564  -12.3699    9.7598 C   0  0  0  0  0  0  0  0  0  0  0  0
   14.8641  -11.2742    9.3571 C   0  0  0  0  0  0  0  0  0  0  0  0
   15.2265   -9.9101    9.9715 C   0  0  0  0  0  0  0  0  0  0  0  0
   15.3902  -10.0335   11.4877 C   0  0  0  0  0  0  0  0  0  0  0  0
   16.4398   -9.2774    9.3498 C   0  0  0  0  0  0  0  0  0  0  0  0
   16.6028   -9.1193    8.0070 N   0  0  0  0  0  0  0  0  0  0  0  0
   17.8006   -8.5275    7.9253 C   0  0  0  0  0  0  0  0  0  0  0  0
   18.4741   -8.1259    6.7732 C   0  0  0  0  0  0  0  0  0  0  0  0
   19.7293   -7.5124    6.9392 C   0  0  0  0  0  0  0  0  0  0  0  0
   20.2670   -7.3194    8.2314 C   0  0  0  0  0  0  0  0  0  0  0  0
   19.5562   -7.7389    9.3732 C   0  0  0  0  0  0  0  0  0  0  0  0
   18.3189   -8.3447    9.1702 C   0  0  0  0  0  0  0  0  0  0  0  0
   17.4735   -8.8113   10.0994 N   0  0  0  0  0  0  0  0  0  0  0  0
   17.5754   -8.8154   11.0786 H   0  0  0  0  0  0  0  0  0  0  0  0
   17.9971   -9.4801   12.7845 C   0  0  0  0  0  0  0  0  0  0  0  0
   19.4409  -10.4415   15.1822 C   0  0  0  0  0  0  0  0  0  0  0  0
   18.1935   -9.6299   15.3051 C   0  0  0  0  0  0  0  0  0  0  0  0
   17.7306   -9.3284   16.5464 N   0  0  0  0  0  0  0  0  0  0  0  0
   16.6121   -8.5777   16.7175 C   0  0  0  0  0  0  0  0  0  0  0  0
   16.1681   -8.2555   18.0292 N   0  0  0  0  0  0  0  0  0  0  0  0
   15.9327   -8.1137   15.6374 N   0  0  0  0  0  0  0  0  0  0  0  0
   16.3459   -8.3923   14.3736 C   0  0  0  0  0  0  0  0  0  0  0  0
   15.5668   -7.8405   13.2285 C   0  0  0  0  0  0  0  0  0  0  0  0
   17.5080   -9.1601   14.1700 C   0  0  0  0  0  0  0  0  0  0  0  0
   16.6609   -8.5921   18.8123 H   0  0  0  0  0  0  0  0  0  0  0  0
   15.3679   -7.6959   18.1545 H   0  0  0  0  0  0  0  0  0  0  0  0
 20 21  1  0  0  0
 21 22  2  0  0  0
 22 23  1  0  0  0
 23 24  1  0  0  0
 23 25  2  0  0  0
 25 26  1  0  0  0
 26 27  1  0  0  0
 26 28  2  0  0  0
 28 19  1  0  0  0
 28 21  1  0  0  0
 19  1  1  0  0  0
  1  2  2  0  0  0
  1  3  1  0  0  0
  3  4  1  0  0  0
  4  5  1  0  0  0
  5  6  1  0  0  0
  6  7  1  0  0  0
  7  8  1  0  0  0
  7  9  1  0  0  0
  8  3  1  0  0  0
  9 10  2  0  0  0
 10 11  1  0  0  0
 11 12  2  0  0  0
 12 13  1  0  0  0
 13 14  2  0  0  0
 14 15  1  0  0  0
 15 16  2  0  0  0
 16 17  1  0  0  0
 16 11  1  0  0  0
 17  9  1  0  0  0
 24 29  1  0  0  0
 24 30  1  0  0  0
 17 18  1  0  0  0
M  END
>  <minimizedAffinity>
3.97085

>  <minimizedRMSD>
1.87858

$$$$
CSSS01494416884 MCULE-5989758890 MolPort-047-546-896 PubChem-154855951 Z4522000421


 28 31  0  0  0  0  0  0  0  0999 V2000
   16.2030   -9.5534   11.6172 C   0  0  0  0  0  0  0  0  0  0  0  0
   15.8655  -10.2583   10.3097 C   0  0  0  0  0  0  0  0  0  0  0  0
   16.6972   -9.5943    9.2284 C   0  0  0  0  0  0  0  0  0  0  0  0
   17.2494   -8.4001    9.8354 N   0  0  0  0  0  0  0  0  0  0  0  0
   16.8859   -8.2526   11.2289 C   0  0  0  0  0  0  0  0  0  0  0  0
   17.9269   -7.3716    9.0995 C   0  0  0  0  0  0  0  0  0  0  0  0
   17.9131   -6.1883    9.5354 O   0  0  0  0  0  0  0  0  0  0  0  0
   18.6261   -7.6573    7.8305 C   0  0  0  0  0  0  0  0  0  0  0  0
   19.9024   -7.1088    7.5806 C   0  0  0  0  0  0  0  0  0  0  0  0
   20.5912   -7.3943    6.3788 C   0  0  0  0  0  0  0  0  0  0  0  0
   20.0227   -8.2439    5.4110 C   0  0  0  0  0  0  0  0  0  0  0  0
   18.7704   -8.7770    5.6958 C   0  0  0  0  0  0  0  0  0  0  0  0
   18.0432   -9.6390    4.9728 N   0  0  0  0  0  0  0  0  0  0  0  0
   16.9784   -9.8590    5.7040 O   0  0  0  0  0  0  0  0  0  0  0  0
   16.9619   -9.2103    6.8426 N   0  0  0  0  0  0  0  0  0  0  0  0
   18.1029   -8.5043    6.8458 C   0  0  0  0  0  0  0  0  0  0  0  0
   17.3166  -10.2336   13.7900 C   0  0  0  0  0  0  0  0  0  0  0  0
   16.6437   -9.3796   14.4310 O   0  0  0  0  0  0  0  0  0  0  0  0
   17.1262  -10.3819   12.3792 N   0  0  0  0  0  0  0  0  0  0  0  0
   17.6414  -11.0734   11.9040 H   0  0  0  0  0  0  0  0  0  0  0  0
   19.4937  -11.3918   13.5792 C   0  0  0  0  0  0  0  0  0  0  0  0
   18.3216  -11.0993   14.4982 C   0  0  0  0  0  0  0  0  0  0  0  0
   17.6674  -12.4193   14.9389 C   0  0  0  0  0  0  0  0  0  0  0  0
   17.7780  -12.5082   16.4605 C   0  0  0  0  0  0  0  0  0  0  0  0
   18.4871  -11.2673   16.8156 C   0  0  0  0  0  0  0  0  0  0  0  0
   18.7861  -10.9494   17.9954 O   0  0  0  0  0  0  0  0  0  0  0  0
   18.8067  -10.4553   15.7079 N   0  0  0  0  0  0  0  0  0  0  0  0
   19.2807   -9.5934   15.7473 H   0  0  0  0  0  0  0  0  0  0  0  0
 22 21  1  0  0  0
 22 23  1  0  0  0
 23 24  1  0  0  0
 24 25  1  0  0  0
 25 26  2  0  0  0
 25 27  1  0  0  0
 22 17  1  0  0  0
 17 18  2  0  0  0
 17 19  1  0  0  0
 19  1  1  0  0  0
  1  2  1  0  0  0
  2  3  1  0  0  0
  3  4  1  0  0  0
  4  5  1  0  0  0
  4  6  1  0  0  0
  6  7  2  0  0  0
  6  8  1  0  0  0
  8  9  2  0  0  0
  9 10  1  0  0  0
 10 11  2  0  0  0
 11 12  1  0  0  0
 12 13  2  0  0  0
 13 14  1  0  0  0
 14 15  1  0  0  0
 15 16  2  0  0  0
 27 22  1  0  0  0
  5  1  1  0  0  0
 16  8  1  0  0  0
 16 12  1  0  0  0
 27 28  1  0  0  0
 19 20  1  0  0  0
M  END
>  <minimizedAffinity>
3.97439

>  <minimizedRMSD>
3.44847

$$$$
CSC027962487 3360372 CSSS00027962487 MCULE-6182827613 MolPort-005-852-621 PubChem-2477889 Z25182610 ZINC000003360372


 35 38  0  0  0  0  0  0  0  0999 V2000
   18.3600   -9.7438   12.6288 O   0  0  0  0  0  0  0  0  0  0  0  0
   18.6823   -9.3203   11.3388 C   0  0  0  0  0  0  0  0  0  0  0  0
   19.8634   -8.9690   11.0670 O   0  0  0  0  0  0  0  0  0  0  0  0
   17.6309   -9.2853   10.2875 C   0  0  0  0  0  0  0  0  0  0  0  0
   17.9259   -8.8209    8.9834 C   0  0  0  0  0  0  0  0  0  0  0  0
   16.9008   -8.7918    8.0109 C   0  0  0  0  0  0  0  0  0  0  0  0
   17.1674   -8.3301    6.7184 C   0  0  0  0  0  0  0  0  0  0  0  0
   18.4472   -7.8848    6.3813 C   0  0  0  0  0  0  0  0  0  0  0  0
   19.4651   -7.8973    7.3366 C   0  0  0  0  0  0  0  0  0  0  0  0
   19.2056   -8.3596    8.6289 C   0  0  0  0  0  0  0  0  0  0  0  0
   20.8254   -7.4183    6.9791 C   0  0  0  0  0  0  0  0  0  0  0  0
   15.6504   -9.2076    8.3250 N   0  0  0  0  0  0  0  0  0  0  0  0
   15.3247   -9.6499    9.5653 C   0  0  0  0  0  0  0  0  0  0  0  0
   16.3122   -9.7168   10.5764 C   0  0  0  0  0  0  0  0  0  0  0  0
   15.9407  -10.1862   11.9662 C   0  0  0  0  0  0  0  0  0  0  0  0
   14.6675  -11.0223   11.9932 C   0  0  0  0  0  0  0  0  0  0  0  0
   13.5674  -10.2759   11.2606 C   0  0  0  0  0  0  0  0  0  0  0  0
   13.9296  -10.1692    9.7843 C   0  0  0  0  0  0  0  0  0  0  0  0
   17.9934   -8.8324   13.6530 C   0  0  0  0  0  0  0  0  0  0  0  0
   18.4082  -10.8116   15.1964 C   0  0  0  0  0  0  0  0  0  0  0  0
   17.7909   -9.5807   14.9307 C   0  0  0  0  0  0  0  0  0  0  0  0
   16.9095   -9.1595   15.9552 C   0  0  0  0  0  0  0  0  0  0  0  0
   16.8728  -10.0699   17.0131 C   0  0  0  0  0  0  0  0  0  0  0  0
   16.0884   -9.9468   18.1953 N   0  0  0  0  0  0  0  0  0  0  0  0
   17.8823  -11.3683   16.6943 S   0  0  0  0  0  0  0  0  0  0  0  0
   15.5135   -9.1581   18.3248 H   0  0  0  0  0  0  0  0  0  0  0  0
   16.1209  -10.6505   18.8831 H   0  0  0  0  0  0  0  0  0  0  0  0
   19.3526  -11.5487   14.3370 C   0  0  0  0  0  0  0  0  0  0  0  0
   20.5459  -11.1589   14.2148 O   0  0  0  0  0  0  0  0  0  0  0  0
   17.9229  -13.5479   14.1999 C   0  0  0  0  0  0  0  0  0  0  0  0
   18.9127  -12.6865   13.6581 O   0  0  0  0  0  0  0  0  0  0  0  0
   16.1084   -7.9101   15.9205 C   0  0  0  0  0  0  0  0  0  0  0  0
   15.2970   -7.6552   16.8526 O   0  0  0  0  0  0  0  0  0  0  0  0
   16.2467   -7.0125   14.8596 O   0  0  0  0  0  0  0  0  0  0  0  0
   15.5205   -7.1596   13.6487 C   0  0  0  0  0  0  0  0  0  0  0  0
 30 31  1  0  0  0
 31 28  1  0  0  0
 28 20  1  0  0  0
 20 21  2  0  0  0
 21 19  1  0  0  0
 19  1  1  0  0  0
  1  2  1  0  0  0
  2  4  1  0  0  0
  4  5  1  0  0  0
  5  6  1  0  0  0
  6  7  2  0  0  0
  7  8  1  0  0  0
  8  9  2  0  0  0
  9 10  1  0  0  0
  9 11  1  0  0  0
  6 12  1  0  0  0
 12 13  2  0  0  0
 13 14  1  0  0  0
 14 15  1  0  0  0
 15 16  1  0  0  0
 16 17  1  0  0  0
 17 18  1  0  0  0
  2  3  2  0  0  0
 21 22  1  0  0  0
 22 32  1  0  0  0
 32 34  1  0  0  0
 34 35  1  0  0  0
 32 33  2  0  0  0
 22 23  2  0  0  0
 23 24  1  0  0  0
 23 25  1  0  0  0
 28 29  2  0  0  0
 25 20  1  0  0  0
 14  4  2  0  0  0
 10  5  2  0  0  0
 18 13  1  0  0  0
 24 26  1  0  0  0
 24 27  1  0  0  0
M  END
>  <minimizedAffinity>
3.99252

>  <minimizedRMSD>
1.60328

$$$$
CSSS20522000644


 36 40  0  0  0  0  0  0  0  0999 V2000
   18.0942   -9.4122   11.4155 C   0  0  0  0  0  0  0  0  0  0  0  0
   18.4962   -8.9601   10.1534 C   0  0  0  0  0  0  0  0  0  0  0  0
   19.7109   -8.5285    9.6416 C   0  0  0  0  0  0  0  0  0  0  0  0
   19.5066   -8.1865    8.3411 N   0  0  0  0  0  0  0  0  0  0  0  0
   18.2317   -8.3963    8.0370 N   0  0  0  0  0  0  0  0  0  0  0  0
   17.6100   -8.8581    9.1268 C   0  0  0  0  0  0  0  0  0  0  0  0
   16.2982   -9.1744    9.2519 N   0  0  0  0  0  0  0  0  0  0  0  0
   15.8354   -9.6229   10.4601 C   0  0  0  0  0  0  0  0  0  0  0  0
   16.7315   -9.7465   11.5532 C   0  0  0  0  0  0  0  0  0  0  0  0
   17.8736  -10.3308   15.9132 C   0  0  0  0  0  0  0  0  0  0  0  0
   19.1536  -10.0521   15.2002 C   0  0  0  0  0  0  0  0  0  0  0  0
   18.5567   -9.8473   13.8702 N   0  0  0  0  0  0  0  0  0  0  0  0
   17.2822  -10.1212   14.5543 C   0  0  0  0  0  0  0  0  0  0  0  0
   19.0297   -9.5360   12.5576 C   0  0  0  0  0  0  0  0  0  0  0  0
   20.2659   -9.3678   12.3827 O   0  0  0  0  0  0  0  0  0  0  0  0
   17.7881  -11.7785   16.4588 C   0  0  0  0  0  0  0  0  0  0  0  0
   18.1264  -12.6808   15.4629 F   0  0  0  0  0  0  0  0  0  0  0  0
   16.4958  -12.0619   16.8668 F   0  0  0  0  0  0  0  0  0  0  0  0
   18.7471  -11.9909   17.6279 C   0  0  0  0  0  0  0  0  0  0  0  0
   18.2028  -11.5019   18.8170 O   0  0  0  0  0  0  0  0  0  0  0  0
   18.0393  -10.5497   18.7303 H   0  0  0  0  0  0  0  0  0  0  0  0
   16.2840   -8.8444   16.6299 C   0  0  0  0  0  0  0  0  0  0  0  0
   17.5953   -9.2997   16.8390 O   0  0  0  0  0  0  0  0  0  0  0  0
   14.4073   -9.9704   10.6176 C   0  0  0  0  0  0  0  0  0  0  0  0
   13.9869  -10.8515   11.6276 C   0  0  0  0  0  0  0  0  0  0  0  0
   12.6343  -11.1738   11.7700 C   0  0  0  0  0  0  0  0  0  0  0  0
   11.6890  -10.6182   10.9042 C   0  0  0  0  0  0  0  0  0  0  0  0
   12.0960   -9.7406    9.8962 C   0  0  0  0  0  0  0  0  0  0  0  0
   13.4486   -9.4183    9.7537 C   0  0  0  0  0  0  0  0  0  0  0  0
   17.6323   -8.0927    6.7459 C   0  0  0  0  0  0  0  0  0  0  0  0
   18.6941   -7.9255    5.7134 C   0  0  0  0  0  0  0  0  0  0  0  0
   19.8436   -7.1833    5.9976 C   0  0  0  0  0  0  0  0  0  0  0  0
   20.8223   -7.0575    5.0610 N   0  0  0  0  0  0  0  0  0  0  0  0
   20.7175   -7.6459    3.8386 C   0  0  0  0  0  0  0  0  0  0  0  0
   19.5871   -8.4024    3.5194 C   0  0  0  0  0  0  0  0  0  0  0  0
   18.5716   -8.5435    4.4669 C   0  0  0  0  0  0  0  0  0  0  0  0
 22 23  1  0  0  0
 23 10  1  0  0  0
 10 11  1  0  0  0
 11 12  1  0  0  0
 12 13  1  0  0  0
 12 14  1  0  0  0
 14 15  2  0  0  0
 14  1  1  0  0  0
  1  2  2  0  0  0
  2  3  1  0  0  0
  3  4  2  0  0  0
  4  5  1  0  0  0
  5 30  1  0  0  0
 30 31  1  0  0  0
 31 32  2  0  0  0
 32 33  1  0  0  0
 33 34  2  0  0  0
 34 35  1  0  0  0
 35 36  2  0  0  0
  5  6  1  0  0  0
  6  7  2  0  0  0
  7  8  1  0  0  0
  8  9  2  0  0  0
  8 24  1  0  0  0
 24 25  2  0  0  0
 25 26  1  0  0  0
 26 27  2  0  0  0
 27 28  1  0  0  0
 28 29  2  0  0  0
 10 16  1  0  0  0
 16 17  1  0  0  0
 16 18  1  0  0  0
 16 19  1  0  0  0
 19 20  1  0  0  0
 13 10  1  0  0  0
  9  1  1  0  0  0
 29 24  1  0  0  0
  6  2  1  0  0  0
 36 31  1  0  0  0
 20 21  1  0  0  0
M  END
>  <minimizedAffinity>
4.00251

>  <minimizedRMSD>
2.70451

$$$$
CSC025843067 3443799 CHEMBL1375904 CSSS00025843067 MCULE-2049607520 MolPort-004-063-497 PubChem-2563882 Z15437074 ZINC000003443799


 27 30  0  0  0  0  0  0  0  0999 V2000
   17.6579   -9.6548   11.6901 C   0  0  0  0  0  0  0  0  0  0  0  0
   18.3609   -9.0574   10.6188 C   0  0  0  0  0  0  0  0  0  0  0  0
   17.6898   -8.8557    9.3879 C   0  0  0  0  0  0  0  0  0  0  0  0
   18.3583   -8.2672    8.3105 C   0  0  0  0  0  0  0  0  0  0  0  0
   19.6922   -7.8745    8.4419 C   0  0  0  0  0  0  0  0  0  0  0  0
   20.3630   -8.0686    9.6512 C   0  0  0  0  0  0  0  0  0  0  0  0
   19.7016   -8.6562   10.7327 C   0  0  0  0  0  0  0  0  0  0  0  0
   16.3929   -9.2327    9.2467 N   0  0  0  0  0  0  0  0  0  0  0  0
   15.6966   -9.8087   10.2625 C   0  0  0  0  0  0  0  0  0  0  0  0
   16.3223  -10.0254   11.4942 C   0  0  0  0  0  0  0  0  0  0  0  0
   18.6884   -9.8443   15.0522 C   0  0  0  0  0  0  0  0  0  0  0  0
   17.9006   -9.3344   14.1385 O   0  0  0  0  0  0  0  0  0  0  0  0
   18.2656   -9.9097   13.0166 C   0  0  0  0  0  0  0  0  0  0  0  0
   19.2787  -10.7752   13.2273 N   0  0  0  0  0  0  0  0  0  0  0  0
   19.5475  -10.7329   14.5230 N   0  0  0  0  0  0  0  0  0  0  0  0
   18.6329   -9.4138   16.7848 S   0  0  0  0  0  0  0  0  0  0  0  0
   16.8557   -9.7717   16.8900 C   0  0  0  0  0  0  0  0  0  0  0  0
   15.8054   -8.0253   18.3726 N   0  0  0  0  0  0  0  0  0  0  0  0
   16.0965   -8.5052   17.0654 C   0  0  0  0  0  0  0  0  0  0  0  0
   15.7395   -7.8407   16.0584 O   0  0  0  0  0  0  0  0  0  0  0  0
   16.0844   -8.5446   19.1611 H   0  0  0  0  0  0  0  0  0  0  0  0
   15.3250   -7.1739   18.4887 H   0  0  0  0  0  0  0  0  0  0  0  0
   14.2933  -10.1992   10.0597 C   0  0  0  0  0  0  0  0  0  0  0  0
   13.6217  -10.7002    8.6063 S   0  0  0  0  0  0  0  0  0  0  0  0
   12.0585  -10.9514    9.1739 C   0  0  0  0  0  0  0  0  0  0  0  0
   12.0585  -10.6371   10.5309 C   0  0  0  0  0  0  0  0  0  0  0  0
   13.3004  -10.2176   11.0296 C   0  0  0  0  0  0  0  0  0  0  0  0
 18 19  1  0  0  0
 19 17  1  0  0  0
 17 16  1  0  0  0
 16 11  1  0  0  0
 11 12  1  0  0  0
 12 13  1  0  0  0
 13  1  1  0  0  0
  1  2  1  0  0  0
  2  3  1  0  0  0
  3  4  2  0  0  0
  4  5  1  0  0  0
  5  6  2  0  0  0
  6  7  1  0  0  0
  3  8  1  0  0  0
  8  9  2  0  0  0
  9 23  1  0  0  0
 23 24  1  0  0  0
 24 25  1  0  0  0
 25 26  2  0  0  0
 26 27  1  0  0  0
  9 10  1  0  0  0
 13 14  2  0  0  0
 14 15  1  0  0  0
 19 20  2  0  0  0
 15 11  2  0  0  0
 10  1  2  0  0  0
  7  2  2  0  0  0
 27 23  2  0  0  0
 18 21  1  0  0  0
 18 22  1  0  0  0
M  END
>  <minimizedAffinity>
4.01014

>  <minimizedRMSD>
2.89082

$$$$
CSC026944017 CSSS00026944017 MCULE-9931342096 MolPort-005-679-169 PubChem-24236123 Z90866874


 35 39  0  0  0  0  0  0  0  0999 V2000
   15.7161   -9.0986   13.5746 C   0  0  0  0  0  0  0  0  0  0  0  0
   16.1519   -7.9229   13.4475 O   0  0  0  0  0  0  0  0  0  0  0  0
   15.4980   -9.9143   12.4025 N   0  0  0  0  0  0  0  0  0  0  0  0
   14.7420  -11.1621   12.4867 C   0  0  0  0  0  0  0  0  0  0  0  0
   13.2837  -10.9521   12.0918 C   0  0  0  0  0  0  0  0  0  0  0  0
   13.1235  -10.0163   10.8975 C   0  0  0  0  0  0  0  0  0  0  0  0
   14.0864  -10.3238    9.8472 N   0  0  0  0  0  0  0  0  0  0  0  0
   13.5710  -10.8862    8.6094 C   0  0  0  0  0  0  0  0  0  0  0  0
   15.4351   -9.8195    9.9041 C   0  0  0  0  0  0  0  0  0  0  0  0
   16.0895   -9.5580   11.1373 C   0  0  0  0  0  0  0  0  0  0  0  0
   17.3410   -9.0192   11.1175 N   0  0  0  0  0  0  0  0  0  0  0  0
   17.9784   -8.7367    9.9548 C   0  0  0  0  0  0  0  0  0  0  0  0
   19.2620   -8.1844    9.9636 C   0  0  0  0  0  0  0  0  0  0  0  0
   19.9088   -7.9099    8.7538 C   0  0  0  0  0  0  0  0  0  0  0  0
   19.2737   -8.1884    7.5378 C   0  0  0  0  0  0  0  0  0  0  0  0
   17.9890   -8.7421    7.5265 C   0  0  0  0  0  0  0  0  0  0  0  0
   17.3407   -9.0173    8.7335 C   0  0  0  0  0  0  0  0  0  0  0  0
   16.0921   -9.5464    8.7414 N   0  0  0  0  0  0  0  0  0  0  0  0
   14.5965  -10.8468   14.9667 C   0  0  0  0  0  0  0  0  0  0  0  0
   15.4577   -9.5985   14.9672 C   0  0  0  0  0  0  0  0  0  0  0  0
   17.0051   -9.8824   15.8892 S   0  0  0  0  0  0  0  0  0  0  0  0
   17.0963   -8.1742   16.5157 C   0  0  0  0  0  0  0  0  0  0  0  0
   15.9802   -7.9010   17.4640 C   0  0  0  0  0  0  0  0  0  0  0  0
   14.7395   -7.6162   16.9780 N   0  0  0  0  0  0  0  0  0  0  0  0
   13.7350   -7.3730   17.8522 C   0  0  0  0  0  0  0  0  0  0  0  0
   13.9213   -7.4001   19.2211 C   0  0  0  0  0  0  0  0  0  0  0  0
   12.7443   -7.1199   19.9371 C   0  0  0  0  0  0  0  0  0  0  0  0
   12.6478   -7.0803   21.4267 C   0  0  0  0  0  0  0  0  0  0  0  0
   11.6574   -6.8790   19.0918 C   0  0  0  0  0  0  0  0  0  0  0  0
   10.2706   -6.5539   19.5262 C   0  0  0  0  0  0  0  0  0  0  0  0
   12.1416   -7.0097   17.4761 S   0  0  0  0  0  0  0  0  0  0  0  0
   15.2020   -7.6897   19.7062 C   0  0  0  0  0  0  0  0  0  0  0  0
   15.4421   -7.7289   20.9417 O   0  0  0  0  0  0  0  0  0  0  0  0
   16.2024   -7.9328   18.8127 N   0  0  0  0  0  0  0  0  0  0  0  0
   17.1061   -8.1359   19.1464 H   0  0  0  0  0  0  0  0  0  0  0  0
 20 19  1  0  0  0
 20 21  1  0  0  0
 20  1  1  0  0  0
 21 22  1  0  0  0
 22 23  1  0  0  0
 23 24  2  0  0  0
 24 25  1  0  0  0
 25 26  2  0  0  0
 26 27  1  0  0  0
 26 32  1  0  0  0
 27 28  1  0  0  0
 27 29  2  0  0  0
 29 30  1  0  0  0
 29 31  1  0  0  0
 31 25  1  0  0  0
 32 33  2  0  0  0
 32 34  1  0  0  0
 34 23  1  0  0  0
  1  2  2  0  0  0
  1  3  1  0  0  0
  3  4  1  0  0  0
  4  5  1  0  0  0
  5  6  1  0  0  0
  6  7  1  0  0  0
  7  8  1  0  0  0
  7  9  1  0  0  0
  9 10  2  0  0  0
 10 11  1  0  0  0
 10  3  1  0  0  0
 11 12  2  0  0  0
 12 13  1  0  0  0
 13 14  2  0  0  0
 14 15  1  0  0  0
 15 16  2  0  0  0
 16 17  1  0  0  0
 17 18  2  0  0  0
 17 12  1  0  0  0
 18  9  1  0  0  0
 34 35  1  0  0  0
M  END
>  <minimizedAffinity>
4.03438

>  <minimizedRMSD>
1.73305

$$$$
CSSS00132564592 MolPort-042-664-892


 33 37  0  0  0  0  0  0  0  0999 V2000
   15.9822  -10.3859   10.9248 C   0  0  0  0  0  0  0  0  0  0  0  0
   16.7934   -9.7305    9.8499 C   0  0  0  0  0  0  0  0  0  0  0  0
   16.6312  -10.0312    8.5351 N   0  0  0  0  0  0  0  0  0  0  0  0
   17.5156   -9.2174    7.9425 C   0  0  0  0  0  0  0  0  0  0  0  0
   17.7825   -9.0995    6.5808 C   0  0  0  0  0  0  0  0  0  0  0  0
   18.7610   -8.1654    6.1924 C   0  0  0  0  0  0  0  0  0  0  0  0
   19.4344   -7.3868    7.1604 C   0  0  0  0  0  0  0  0  0  0  0  0
   19.1372   -7.5328    8.5283 C   0  0  0  0  0  0  0  0  0  0  0  0
   18.1645   -8.4669    8.8751 C   0  0  0  0  0  0  0  0  0  0  0  0
   17.7221   -8.7694   10.1031 N   0  0  0  0  0  0  0  0  0  0  0  0
   17.9991   -8.3918   10.9691 H   0  0  0  0  0  0  0  0  0  0  0  0
   14.5245  -10.0957   10.7499 C   0  0  0  0  0  0  0  0  0  0  0  0
   13.5840  -10.9401   11.3502 C   0  0  0  0  0  0  0  0  0  0  0  0
   12.2166  -10.6967   11.1897 C   0  0  0  0  0  0  0  0  0  0  0  0
   11.7846   -9.6089   10.4252 C   0  0  0  0  0  0  0  0  0  0  0  0
   12.7195   -8.7644    9.8197 C   0  0  0  0  0  0  0  0  0  0  0  0
   14.0868   -9.0069    9.9796 C   0  0  0  0  0  0  0  0  0  0  0  0
   17.6692  -10.4088   12.8221 C   0  0  0  0  0  0  0  0  0  0  0  0
   18.3906  -11.2254   12.1876 O   0  0  0  0  0  0  0  0  0  0  0  0
   16.4338   -9.9680   12.2471 N   0  0  0  0  0  0  0  0  0  0  0  0
   15.8644   -9.3560   12.7673 H   0  0  0  0  0  0  0  0  0  0  0  0
   19.3049   -8.1485   17.7644 O   0  0  0  0  0  0  0  0  0  0  0  0
   18.8945   -8.7519   16.5805 C   0  0  0  0  0  0  0  0  0  0  0  0
   18.4936  -10.0935   16.5627 C   0  0  0  0  0  0  0  0  0  0  0  0
   18.4995  -10.8535   17.7403 C   0  0  0  0  0  0  0  0  0  0  0  0
   18.1002  -12.1907   17.7187 C   0  0  0  0  0  0  0  0  0  0  0  0
   17.6924  -12.7776   16.5204 C   0  0  0  0  0  0  0  0  0  0  0  0
   17.6830  -12.0283   15.3419 C   0  0  0  0  0  0  0  0  0  0  0  0
   18.0803  -10.6808   15.3398 C   0  0  0  0  0  0  0  0  0  0  0  0
   18.0802   -9.8989   14.1570 C   0  0  0  0  0  0  0  0  0  0  0  0
   18.4945   -8.5632   14.2482 C   0  0  0  0  0  0  0  0  0  0  0  0
   18.8850   -8.0276   15.4331 N   0  0  0  0  0  0  0  0  0  0  0  0
   19.3150   -8.6403   18.5619 H   0  0  0  0  0  0  0  0  0  0  0  0
 22 23  1  0  0  0
 23 24  2  0  0  0
 24 25  1  0  0  0
 25 26  2  0  0  0
 26 27  1  0  0  0
 27 28  2  0  0  0
 28 29  1  0  0  0
 29 30  2  0  0  0
 30 31  1  0  0  0
 31 32  2  0  0  0
 30 18  1  0  0  0
 18 19  2  0  0  0
 18 20  1  0  0  0
 20  1  1  0  0  0
  1  2  1  0  0  0
  2  3  2  0  0  0
  3  4  1  0  0  0
  4  5  2  0  0  0
  5  6  1  0  0  0
  6  7  2  0  0  0
  7  8  1  0  0  0
  8  9  2  0  0  0
  9 10  1  0  0  0
  1 12  1  0  0  0
 12 13  2  0  0  0
 13 14  1  0  0  0
 14 15  2  0  0  0
 15 16  1  0  0  0
 16 17  2  0  0  0
 32 23  1  0  0  0
 10  2  1  0  0  0
 17 12  1  0  0  0
 29 24  1  0  0  0
  9  4  1  0  0  0
 22 33  1  0  0  0
 20 21  1  0  0  0
 10 11  1  0  0  0
M  END
>  <minimizedAffinity>
4.10613

>  <minimizedRMSD>
2.18301

$$$$
CSC027353236 CSSS00027353236 MCULE-4758892578 MolPort-009-162-001 PubChem-31258207 Z238681584


 25 28  0  0  0  0  0  0  0  0999 V2000
   18.7870   -8.8463    9.4413 N   0  0  0  0  0  0  0  0  0  0  0  0
   18.9821   -7.9757   10.6001 C   0  0  0  0  0  0  0  0  0  0  0  0
   17.7255   -7.9872   11.4620 C   0  0  0  0  0  0  0  0  0  0  0  0
   17.3380   -9.3697   11.7302 N   0  0  0  0  0  0  0  0  0  0  0  0
   17.1308  -10.2471   10.5805 C   0  0  0  0  0  0  0  0  0  0  0  0
   18.3725  -10.2273    9.6921 C   0  0  0  0  0  0  0  0  0  0  0  0
   18.1473   -8.2720    3.3943 C   0  0  0  0  0  0  0  0  0  0  0  0
   18.0480   -8.5694    4.8123 N   0  0  0  0  0  0  0  0  0  0  0  0
   18.9009   -8.2047    5.7745 C   0  0  0  0  0  0  0  0  0  0  0  0
   18.4639   -8.6676    6.9731 C   0  0  0  0  0  0  0  0  0  0  0  0
   19.1953   -8.3976    8.1348 C   0  0  0  0  0  0  0  0  0  0  0  0
   20.3372   -7.6558    7.9880 N   0  0  0  0  0  0  0  0  0  0  0  0
   20.7553   -7.2009    6.7640 C   0  0  0  0  0  0  0  0  0  0  0  0
   20.0330   -7.4745    5.6380 N   0  0  0  0  0  0  0  0  0  0  0  0
   17.2820   -9.3427    6.7077 C   0  0  0  0  0  0  0  0  0  0  0  0
   17.0609   -9.2610    5.3679 N   0  0  0  0  0  0  0  0  0  0  0  0
   16.9235   -9.7642   13.0488 C   0  0  0  0  0  0  0  0  0  0  0  0
   17.6583  -10.6856   13.8214 C   0  0  0  0  0  0  0  0  0  0  0  0
   19.1943  -11.3496   13.2639 Cl  0  0  0  0  0  0  0  0  0  0  0  0
   17.1825  -11.0312   15.0931 C   0  0  0  0  0  0  0  0  0  0  0  0
   17.8103  -11.8518   15.8133 O   0  0  0  0  0  0  0  0  0  0  0  0
   16.0367  -10.4710   15.5586 N   0  0  0  0  0  0  0  0  0  0  0  0
   15.3480   -9.5888   14.8345 N   0  0  0  0  0  0  0  0  0  0  0  0
   15.7583   -9.2168   13.5957 C   0  0  0  0  0  0  0  0  0  0  0  0
   15.7068  -10.7222   16.4515 H   0  0  0  0  0  0  0  0  0  0  0  0
  7  8  1  0  0  0
  8  9  1  0  0  0
  9 10  2  0  0  0
 10 11  1  0  0  0
 11  1  1  0  0  0
  1  2  1  0  0  0
  2  3  1  0  0  0
  3  4  1  0  0  0
  4 17  1  0  0  0
 17 18  2  0  0  0
 18 19  1  0  0  0
 18 20  1  0  0  0
 20 21  2  0  0  0
 20 22  1  0  0  0
 22 23  1  0  0  0
 23 24  2  0  0  0
  4  5  1  0  0  0
  5  6  1  0  0  0
 11 12  2  0  0  0
 12 13  1  0  0  0
 13 14  2  0  0  0
 10 15  1  0  0  0
 15 16  2  0  0  0
 16  8  1  0  0  0
 14  9  1  0  0  0
  6  1  1  0  0  0
 24 17  1  0  0  0
 22 25  1  0  0  0
M  END
>  <minimizedAffinity>
4.23763

>  <minimizedRMSD>
2.72226

$$$$
72479927 CSSS00160046190 MCULE-9540789928 MolPort-021-774-984 ZINC000072479927


 29 32  0  0  0  0  0  0  0  0999 V2000
   18.9533   -9.0356   10.7445 N   0  0  0  0  0  0  0  0  0  0  0  0
   20.1559   -8.5915   10.4385 N   0  0  0  0  0  0  0  0  0  0  0  0
   20.0446   -7.9467    9.2507 C   0  0  0  0  0  0  0  0  0  0  0  0
   18.7216   -7.9864    8.7927 C   0  0  0  0  0  0  0  0  0  0  0  0
   18.0893   -8.6919    9.7905 C   0  0  0  0  0  0  0  0  0  0  0  0
   16.7785   -9.0268    9.8655 N   0  0  0  0  0  0  0  0  0  0  0  0
   16.3257   -9.7355   10.9455 C   0  0  0  0  0  0  0  0  0  0  0  0
   17.2364  -10.1019   11.9652 C   0  0  0  0  0  0  0  0  0  0  0  0
   18.5864   -9.7330   11.8470 C   0  0  0  0  0  0  0  0  0  0  0  0
   14.8919  -10.1161   11.0511 C   0  0  0  0  0  0  0  0  0  0  0  0
   14.4089  -10.6617   12.2539 C   0  0  0  0  0  0  0  0  0  0  0  0
   13.0687  -11.0298   12.3893 C   0  0  0  0  0  0  0  0  0  0  0  0
   12.1877  -10.8578   11.3216 C   0  0  0  0  0  0  0  0  0  0  0  0
   12.6476  -10.3182   10.1198 C   0  0  0  0  0  0  0  0  0  0  0  0
   13.9887   -9.9475    9.9766 C   0  0  0  0  0  0  0  0  0  0  0  0
   14.3867   -9.4251    8.7900 F   0  0  0  0  0  0  0  0  0  0  0  0
   19.5506  -10.0715   12.8479 N   0  0  0  0  0  0  0  0  0  0  0  0
   20.4937   -9.8345   12.6941 H   0  0  0  0  0  0  0  0  0  0  0  0
   19.1952  -10.7509   14.0824 C   0  0  0  0  0  0  0  0  0  0  0  0
   19.2517   -9.7675   15.2328 C   0  0  0  0  0  0  0  0  0  0  0  0
   18.6818  -10.5665   16.7641 S   0  0  0  0  0  0  0  0  0  0  0  0
   16.9362  -10.5927   16.2444 C   0  0  0  0  0  0  0  0  0  0  0  0
   16.2310   -9.3596   16.7029 C   0  0  0  0  0  0  0  0  0  0  0  0
   15.8958   -9.1090   17.9790 N   0  0  0  0  0  0  0  0  0  0  0  0
   15.2817   -7.9052   17.9313 C   0  0  0  0  0  0  0  0  0  0  0  0
   15.2171   -7.3934   16.6813 N   0  0  0  0  0  0  0  0  0  0  0  0
   15.8165   -8.3180   15.9145 C   0  0  0  0  0  0  0  0  0  0  0  0
   15.9960   -8.1901   14.4415 C   0  0  0  0  0  0  0  0  0  0  0  0
   16.0597   -9.6732   18.7690 H   0  0  0  0  0  0  0  0  0  0  0  0
  1  2  1  0  0  0
  2  3  2  0  0  0
  3  4  1  0  0  0
  4  5  2  0  0  0
  5  6  1  0  0  0
  6  7  2  0  0  0
  7 10  1  0  0  0
 10 11  2  0  0  0
 11 12  1  0  0  0
 12 13  2  0  0  0
 13 14  1  0  0  0
 14 15  2  0  0  0
 15 16  1  0  0  0
  7  8  1  0  0  0
  8  9  2  0  0  0
  9 17  1  0  0  0
 17 19  1  0  0  0
 19 20  1  0  0  0
 20 21  1  0  0  0
 21 22  1  0  0  0
 22 23  1  0  0  0
 23 24  1  0  0  0
 24 25  1  0  0  0
 25 26  2  0  0  0
 26 27  1  0  0  0
 27 28  1  0  0  0
  5  1  1  0  0  0
 15 10  1  0  0  0
 27 23  2  0  0  0
  9  1  1  0  0  0
 17 18  1  0  0  0
 24 29  1  0  0  0
M  END
>  <minimizedAffinity>
4.23883

>  <minimizedRMSD>
2.70279

$$$$
CSC027740937 CSSS00027740937 MCULE-2408540748 MolPort-004-284-963 PubChem-4884441 Z20241626


 30 33  0  0  0  0  0  0  0  0999 V2000
   16.9754  -12.4159   19.4252 C   0  0  0  0  0  0  0  0  0  0  0  0
   17.3036  -11.3889   18.3639 C   0  0  0  0  0  0  0  0  0  0  0  0
   18.0202  -12.0702   17.1927 C   0  0  0  0  0  0  0  0  0  0  0  0
   18.0315  -11.1931   15.9769 C   0  0  0  0  0  0  0  0  0  0  0  0
   17.2382  -10.0618   15.8089 C   0  0  0  0  0  0  0  0  0  0  0  0
   17.4127   -9.4329   14.5550 C   0  0  0  0  0  0  0  0  0  0  0  0
   18.3343  -10.1201   13.7527 C   0  0  0  0  0  0  0  0  0  0  0  0
   18.9169  -11.4699   14.5818 S   0  0  0  0  0  0  0  0  0  0  0  0
   16.3629   -9.5632   16.9241 C   0  0  0  0  0  0  0  0  0  0  0  0
   16.0250  -10.6878   17.9057 C   0  0  0  0  0  0  0  0  0  0  0  0
   16.7129   -8.1969   14.1223 C   0  0  0  0  0  0  0  0  0  0  0  0
   16.7809   -7.0057   14.8995 N   0  0  0  0  0  0  0  0  0  0  0  0
   16.0382   -8.1876   13.0585 O   0  0  0  0  0  0  0  0  0  0  0  0
   17.3027   -6.9917   15.7343 H   0  0  0  0  0  0  0  0  0  0  0  0
   16.3061   -6.1961   14.6022 H   0  0  0  0  0  0  0  0  0  0  0  0
   18.6891   -9.7419   12.4152 N   0  0  0  0  0  0  0  0  0  0  0  0
   17.9193   -9.9781   11.2313 C   0  0  0  0  0  0  0  0  0  0  0  0
   16.8484  -10.6401   11.2676 O   0  0  0  0  0  0  0  0  0  0  0  0
   19.5471   -9.2733   12.2999 H   0  0  0  0  0  0  0  0  0  0  0  0
   18.3908   -9.4237    9.9332 C   0  0  0  0  0  0  0  0  0  0  0  0
   17.1704   -8.2475    9.2737 S   0  0  0  0  0  0  0  0  0  0  0  0
   17.5747   -8.6367    7.5718 C   0  0  0  0  0  0  0  0  0  0  0  0
   18.6335   -8.1583    6.9036 N   0  0  0  0  0  0  0  0  0  0  0  0
   18.5276   -8.7166    5.6922 C   0  0  0  0  0  0  0  0  0  0  0  0
   19.4654   -8.4601    4.6964 C   0  0  0  0  0  0  0  0  0  0  0  0
   20.5224   -7.5930    5.0231 C   0  0  0  0  0  0  0  0  0  0  0  0
   20.6101   -7.0175    6.3073 C   0  0  0  0  0  0  0  0  0  0  0  0
   19.6317   -7.3173    7.2671 C   0  0  0  0  0  0  0  0  0  0  0  0
   17.4460   -9.5116    5.5993 N   0  0  0  0  0  0  0  0  0  0  0  0
   16.8450   -9.4597    6.7858 N   0  0  0  0  0  0  0  0  0  0  0  0
  1  2  1  0  0  0
  2  3  1  0  0  0
  3  4  1  0  0  0
  4  5  2  0  0  0
  5  6  1  0  0  0
  6  7  2  0  0  0
  7  8  1  0  0  0
  7 16  1  0  0  0
 16 17  1  0  0  0
 17 20  1  0  0  0
 20 21  1  0  0  0
 21 22  1  0  0  0
 22 23  1  0  0  0
 23 24  1  0  0  0
 24 25  1  0  0  0
 25 26  2  0  0  0
 26 27  1  0  0  0
 27 28  2  0  0  0
 24 29  2  0  0  0
 29 30  1  0  0  0
 17 18  2  0  0  0
  6 11  1  0  0  0
 11 12  1  0  0  0
 11 13  2  0  0  0
  5  9  1  0  0  0
  9 10  1  0  0  0
 10  2  1  0  0  0
  8  4  1  0  0  0
 30 22  2  0  0  0
 28 23  1  0  0  0
 16 19  1  0  0  0
 12 14  1  0  0  0
 12 15  1  0  0  0
M  END
>  <minimizedAffinity>
4.24349

>  <minimizedRMSD>
2.41742

$$$$
14540453 CSSS00159766735 MCULE-2202764186 MolPort-004-983-856 PubChem-26144447 ZINC000014540453 ZINC14540453


 36 41  0  0  0  0  0  0  0  0999 V2000
   16.8588  -10.7076   16.4132 N   0  0  0  0  0  0  0  0  0  0  0  0
   16.1034   -9.8341   17.0666 N   0  0  0  0  0  0  0  0  0  0  0  0
   15.5355   -9.0187   16.1504 C   0  0  0  0  0  0  0  0  0  0  0  0
   15.9460   -9.4061   14.8851 C   0  0  0  0  0  0  0  0  0  0  0  0
   16.7931  -10.4612   15.0947 C   0  0  0  0  0  0  0  0  0  0  0  0
   17.4744  -11.2158   13.9947 C   0  0  0  0  0  0  0  0  0  0  0  0
   17.5437  -10.3363   12.7389 C   0  0  0  0  0  0  0  0  0  0  0  0
   16.2539   -9.6721   12.5000 N   0  0  0  0  0  0  0  0  0  0  0  0
   15.6892   -8.8028   13.5406 C   0  0  0  0  0  0  0  0  0  0  0  0
   15.5584   -9.8496   11.2571 C   0  0  0  0  0  0  0  0  0  0  0  0
   14.4251   -9.3250   11.0856 O   0  0  0  0  0  0  0  0  0  0  0  0
   14.6504   -7.8968   16.4916 C   0  0  0  0  0  0  0  0  0  0  0  0
   14.4439   -6.9736   15.6544 O   0  0  0  0  0  0  0  0  0  0  0  0
   14.0226   -7.8589   17.7756 N   0  0  0  0  0  0  0  0  0  0  0  0
   14.1834   -8.5974   18.4065 H   0  0  0  0  0  0  0  0  0  0  0  0
   13.1548   -6.7653   18.1792 C   0  0  0  0  0  0  0  0  0  0  0  0
   12.4974   -7.1142   19.4978 C   0  0  0  0  0  0  0  0  0  0  0  0
   11.7193   -7.2487   18.2059 C   0  0  0  0  0  0  0  0  0  0  0  0
   17.6360  -11.7581   17.0534 C   0  0  0  0  0  0  0  0  0  0  0  0
   18.9271  -11.1921   17.6280 C   0  0  0  0  0  0  0  0  0  0  0  0
   18.7969   -8.1158   18.0571 C   0  0  0  0  0  0  0  0  0  0  0  0
   19.4213   -8.7754   16.8771 C   0  0  0  0  0  0  0  0  0  0  0  0
   19.4945  -10.1533   16.7158 C   0  0  0  0  0  0  0  0  0  0  0  0
   20.2417  -10.4549   15.2433 S   0  0  0  0  0  0  0  0  0  0  0  0
   20.4642   -8.8257   14.8682 C   0  0  0  0  0  0  0  0  0  0  0  0
   19.9607   -8.0513   15.8589 N   0  0  0  0  0  0  0  0  0  0  0  0
   16.1621  -10.6475   10.1448 C   0  0  0  0  0  0  0  0  0  0  0  0
   16.7084   -9.7587    9.1291 N   0  0  0  0  0  0  0  0  0  0  0  0
   16.0833   -9.4490    7.9978 N   0  0  0  0  0  0  0  0  0  0  0  0
   16.8460   -8.5680    7.2981 C   0  0  0  0  0  0  0  0  0  0  0  0
   17.9832   -8.3329    8.0475 C   0  0  0  0  0  0  0  0  0  0  0  0
   19.0862   -7.5139    7.8137 C   0  0  0  0  0  0  0  0  0  0  0  0
   20.0913   -7.4877    8.8000 C   0  0  0  0  0  0  0  0  0  0  0  0
   19.9675   -8.2659    9.9749 C   0  0  0  0  0  0  0  0  0  0  0  0
   18.8383   -9.0823   10.1793 C   0  0  0  0  0  0  0  0  0  0  0  0
   17.8654   -9.0846    9.1805 C   0  0  0  0  0  0  0  0  0  0  0  0
 21 22  1  0  0  0
 22 23  2  0  0  0
 23 20  1  0  0  0
 23 24  1  0  0  0
 20 19  1  0  0  0
 19  1  1  0  0  0
  1  2  1  0  0  0
  2  3  2  0  0  0
  3 12  1  0  0  0
  3  4  1  0  0  0
 12 13  2  0  0  0
 12 14  1  0  0  0
 14 16  1  0  0  0
 16 17  1  0  0  0
 17 18  1  0  0  0
 18 16  1  0  0  0
  4  5  2  0  0  0
  5  6  1  0  0  0
  5  1  1  0  0  0
  6  7  1  0  0  0
  7  8  1  0  0  0
  8  9  1  0  0  0
  8 10  1  0  0  0
  9  4  1  0  0  0
 10 11  2  0  0  0
 10 27  1  0  0  0
 27 28  1  0  0  0
 28 29  1  0  0  0
 29 30  2  0  0  0
 30 31  1  0  0  0
 31 32  2  0  0  0
 32 33  1  0  0  0
 33 34  2  0  0  0
 34 35  1  0  0  0
 35 36  2  0  0  0
 36 28  1  0  0  0
 36 31  1  0  0  0
 24 25  1  0  0  0
 25 26  2  0  0  0
 26 22  1  0  0  0
 14 15  1  0  0  0
M  END
>  <minimizedAffinity>
4.36886

>  <minimizedRMSD>
1.42486

$$$$
12151236 CSSS00160579184 MCULE-5809716727 MolPort-005-105-601 PubChem-42431500


 38 41  0  0  0  0  0  0  0  0999 V2000
   17.5023  -11.1029   14.1317 N   0  0  0  0  0  0  0  0  0  0  0  0
   17.1839  -10.0950   14.9849 C   0  0  0  0  0  0  0  0  0  0  0  0
   16.4087   -9.0099   14.5622 C   0  0  0  0  0  0  0  0  0  0  0  0
   15.9610   -8.9830   13.2217 C   0  0  0  0  0  0  0  0  0  0  0  0
   15.2668   -8.0146   12.8063 O   0  0  0  0  0  0  0  0  0  0  0  0
   16.2999  -10.0403   12.3459 C   0  0  0  0  0  0  0  0  0  0  0  0
   17.0782  -11.0927   12.8410 C   0  0  0  0  0  0  0  0  0  0  0  0
   15.8748  -10.0798   10.9253 C   0  0  0  0  0  0  0  0  0  0  0  0
   14.7163   -9.7095   10.5896 O   0  0  0  0  0  0  0  0  0  0  0  0
   16.7867  -10.5453    9.9234 N   0  0  0  0  0  0  0  0  0  0  0  0
   17.6682  -10.8792   10.2076 H   0  0  0  0  0  0  0  0  0  0  0  0
   16.4668  -10.5461    8.5032 C   0  0  0  0  0  0  0  0  0  0  0  0
   17.2635   -9.5044    7.7970 C   0  0  0  0  0  0  0  0  0  0  0  0
   17.1466   -8.1806    8.0781 N   0  0  0  0  0  0  0  0  0  0  0  0
   18.0492   -7.6319    7.2533 C   0  0  0  0  0  0  0  0  0  0  0  0
   18.6694   -8.5986    6.5236 C   0  0  0  0  0  0  0  0  0  0  0  0
   18.1907   -9.8072    6.8509 N   0  0  0  0  0  0  0  0  0  0  0  0
   19.6549   -8.3002    5.5864 C   0  0  0  0  0  0  0  0  0  0  0  0
   20.0027   -6.9410    5.4092 C   0  0  0  0  0  0  0  0  0  0  0  0
   19.3515   -5.9434    6.1708 C   0  0  0  0  0  0  0  0  0  0  0  0
   18.3585   -6.2824    7.1085 C   0  0  0  0  0  0  0  0  0  0  0  0
   18.4459  -10.6894    6.4963 H   0  0  0  0  0  0  0  0  0  0  0  0
   20.9849   -6.5533    4.4943 O   0  0  0  0  0  0  0  0  0  0  0  0
   22.2950   -7.1047    4.4943 C   0  0  0  0  0  0  0  0  0  0  0  0
   16.0988   -7.9366   15.5390 C   0  0  0  0  0  0  0  0  0  0  0  0
   16.4906   -6.7535   15.3424 O   0  0  0  0  0  0  0  0  0  0  0  0
   15.3483   -8.2449   16.7171 N   0  0  0  0  0  0  0  0  0  0  0  0
   15.0508   -9.1719   16.8632 H   0  0  0  0  0  0  0  0  0  0  0  0
   15.0101   -7.2328   17.7068 C   0  0  0  0  0  0  0  0  0  0  0  0
   14.0727   -7.8025   18.7181 C   0  0  0  0  0  0  0  0  0  0  0  0
   12.7877   -7.4559   18.7216 C   0  0  0  0  0  0  0  0  0  0  0  0
   18.2902  -12.2233   14.6189 C   0  0  0  0  0  0  0  0  0  0  0  0
   16.9563  -11.4295   19.2791 C   0  0  0  0  0  0  0  0  0  0  0  0
   17.7773  -11.8475   18.1122 C   0  0  0  0  0  0  0  0  0  0  0  0
   19.0466  -12.3876   18.1873 C   0  0  0  0  0  0  0  0  0  0  0  0
   19.4227  -12.6174   16.8724 C   0  0  0  0  0  0  0  0  0  0  0  0
   18.3466  -12.2019   16.1097 C   0  0  0  0  0  0  0  0  0  0  0  0
   17.3839  -11.7443   16.8686 O   0  0  0  0  0  0  0  0  0  0  0  0
 33 34  1  0  0  0
 34 35  2  0  0  0
 35 36  1  0  0  0
 36 37  2  0  0  0
 37 38  1  0  0  0
 37 32  1  0  0  0
 38 34  1  0  0  0
 32  1  1  0  0  0
  1  2  1  0  0  0
  2  3  2  0  0  0
  3  4  1  0  0  0
  3 25  1  0  0  0
  4  5  2  0  0  0
  4  6  1  0  0  0
  6  7  2  0  0  0
  6  8  1  0  0  0
  7  1  1  0  0  0
  8  9  2  0  0  0
  8 10  1  0  0  0
 10 12  1  0  0  0
 12 13  1  0  0  0
 13 14  2  0  0  0
 14 15  1  0  0  0
 15 16  2  0  0  0
 16 17  1  0  0  0
 16 18  1  0  0  0
 17 13  1  0  0  0
 18 19  2  0  0  0
 19 20  1  0  0  0
 19 23  1  0  0  0
 20 21  2  0  0  0
 21 15  1  0  0  0
 23 24  1  0  0  0
 25 26  2  0  0  0
 25 27  1  0  0  0
 27 29  1  0  0  0
 29 30  1  0  0  0
 30 31  2  0  0  0
 10 11  1  0  0  0
 17 22  1  0  0  0
 27 28  1  0  0  0
M  END
>  <minimizedAffinity>
4.38050

>  <minimizedRMSD>
2.38533

$$$$
CSSS00159924262 MCULE-2655769997 MolPort-042-568-229 PubChem-119066867


 30 33  0  0  0  0  0  0  0  0999 V2000
   16.8409  -10.0758   12.7792 N   0  0  0  0  0  0  0  0  0  0  0  0
   16.2954   -8.9682   13.5021 C   0  0  0  0  0  0  0  0  0  0  0  0
   15.8638   -7.9562   12.8854 O   0  0  0  0  0  0  0  0  0  0  0  0
   17.1987  -10.8408   13.2852 H   0  0  0  0  0  0  0  0  0  0  0  0
   16.2443   -9.0099   14.9672 C   0  0  0  0  0  0  0  0  0  0  0  0
   16.8790   -9.9328   15.7100 N   0  0  0  0  0  0  0  0  0  0  0  0
   16.6122   -9.6790   16.9783 N   0  0  0  0  0  0  0  0  0  0  0  0
   17.2564  -10.4371   18.0429 C   0  0  0  0  0  0  0  0  0  0  0  0
   16.3326  -10.6672   19.2139 C   0  0  0  0  0  0  0  0  0  0  0  0
   16.3727   -9.4171   20.0539 C   0  0  0  0  0  0  0  0  0  0  0  0
   15.3801   -8.4631   19.5939 N   0  0  0  0  0  0  0  0  0  0  0  0
   15.2439   -7.9411   18.2673 C   0  0  0  0  0  0  0  0  0  0  0  0
   14.5362   -6.9101   18.1151 O   0  0  0  0  0  0  0  0  0  0  0  0
   15.8255   -8.5756   17.0552 C   0  0  0  0  0  0  0  0  0  0  0  0
   15.5573   -8.1194   15.7727 C   0  0  0  0  0  0  0  0  0  0  0  0
   16.8143  -11.7358   19.9677 O   0  0  0  0  0  0  0  0  0  0  0  0
   14.7336   -8.1416   20.2632 H   0  0  0  0  0  0  0  0  0  0  0  0
   17.7170  -11.5411   20.2647 H   0  0  0  0  0  0  0  0  0  0  0  0
   16.8877  -10.1160   11.3253 C   0  0  0  0  0  0  0  0  0  0  0  0
   15.4967   -9.9089   10.7525 C   0  0  0  0  0  0  0  0  0  0  0  0
   15.3618  -10.7429    9.1452 S   0  0  0  0  0  0  0  0  0  0  0  0
   19.7567   -7.5593    6.1394 C   0  0  0  0  0  0  0  0  0  0  0  0
   20.0227   -7.0440    7.4288 C   0  0  0  0  0  0  0  0  0  0  0  0
   19.2686   -7.4682    8.5393 C   0  0  0  0  0  0  0  0  0  0  0  0
   18.2660   -8.4046    8.3050 C   0  0  0  0  0  0  0  0  0  0  0  0
   18.0076   -8.9032    7.0635 C   0  0  0  0  0  0  0  0  0  0  0  0
   18.7328   -8.5058    5.9433 C   0  0  0  0  0  0  0  0  0  0  0  0
   16.9934   -9.7822    7.1181 N   0  0  0  0  0  0  0  0  0  0  0  0
   16.6828   -9.7642    8.4410 C   0  0  0  0  0  0  0  0  0  0  0  0
   17.4384   -8.9466    9.1552 O   0  0  0  0  0  0  0  0  0  0  0  0
 22 23  2  0  0  0
 23 24  1  0  0  0
 24 25  2  0  0  0
 25 26  1  0  0  0
 26 27  2  0  0  0
 26 28  1  0  0  0
 28 29  2  0  0  0
 29 30  1  0  0  0
 29 21  1  0  0  0
 21 20  1  0  0  0
 20 19  1  0  0  0
 19  1  1  0  0  0
  1  2  1  0  0  0
  2  3  2  0  0  0
  2  5  1  0  0  0
  5  6  2  0  0  0
  6  7  1  0  0  0
  7  8  1  0  0  0
  8  9  1  0  0  0
  9 10  1  0  0  0
 10 11  1  0  0  0
 11 12  1  0  0  0
 12 13  2  0  0  0
 12 14  1  0  0  0
 14 15  2  0  0  0
  9 16  1  0  0  0
 27 22  1  0  0  0
 30 25  1  0  0  0
 15  5  1  0  0  0
 14  7  1  0  0  0
  1  4  1  0  0  0
 11 17  1  0  0  0
 16 18  1  0  0  0
M  END
>  <minimizedAffinity>
4.69848

>  <minimizedRMSD>
1.89040

$$$$
CSC028115219 CSSS00028115219 LN00823383 MCULE-7850102890 MolPort-002-458-413 PubChem-3254633 Z57805446


 34 38  0  0  0  0  0  0  0  0999 V2000
   17.3503  -13.2737   12.0843 C   0  0  0  0  0  0  0  0  0  0  0  0
   17.9907  -12.5524   13.2199 C   0  0  0  0  0  0  0  0  0  0  0  0
   19.0493  -13.0149   13.7203 O   0  0  0  0  0  0  0  0  0  0  0  0
   17.4161  -11.3505   13.7469 N   0  0  0  0  0  0  0  0  0  0  0  0
   17.9099  -10.7158   14.8843 N   0  0  0  0  0  0  0  0  0  0  0  0
   17.1292   -9.7481   15.2222 C   0  0  0  0  0  0  0  0  0  0  0  0
   15.9448   -9.6110   14.3151 C   0  0  0  0  0  0  0  0  0  0  0  0
   16.1850  -10.7212   13.2870 C   0  0  0  0  0  0  0  0  0  0  0  0
   16.3554  -10.1358   11.9115 C   0  0  0  0  0  0  0  0  0  0  0  0
   15.2637  -10.0518   11.0270 C   0  0  0  0  0  0  0  0  0  0  0  0
   13.6687  -10.6241   11.4917 Cl  0  0  0  0  0  0  0  0  0  0  0  0
   15.4295   -9.5211    9.7848 N   0  0  0  0  0  0  0  0  0  0  0  0
   16.6323   -9.0581    9.3562 C   0  0  0  0  0  0  0  0  0  0  0  0
   16.7594   -8.5173    8.0642 C   0  0  0  0  0  0  0  0  0  0  0  0
   18.0174   -8.0580    7.6809 C   0  0  0  0  0  0  0  0  0  0  0  0
   18.3930   -7.4919    6.4790 O   0  0  0  0  0  0  0  0  0  0  0  0
   19.7909   -7.1784    6.5523 C   0  0  0  0  0  0  0  0  0  0  0  0
   20.1976   -7.5960    7.8632 O   0  0  0  0  0  0  0  0  0  0  0  0
   19.0945   -8.1201    8.5070 C   0  0  0  0  0  0  0  0  0  0  0  0
   19.0143   -8.6474    9.7937 C   0  0  0  0  0  0  0  0  0  0  0  0
   17.7618   -9.1223   10.2199 C   0  0  0  0  0  0  0  0  0  0  0  0
   17.6074   -9.6629   11.4933 C   0  0  0  0  0  0  0  0  0  0  0  0
   17.3895   -8.8824   16.3844 C   0  0  0  0  0  0  0  0  0  0  0  0
   18.6665   -8.3462   16.6028 C   0  0  0  0  0  0  0  0  0  0  0  0
   18.9070   -7.5241   17.7070 C   0  0  0  0  0  0  0  0  0  0  0  0
   17.8724   -7.2321   18.5998 C   0  0  0  0  0  0  0  0  0  0  0  0
   16.5941   -7.7593   18.3939 C   0  0  0  0  0  0  0  0  0  0  0  0
   16.3583   -8.5838   17.2846 C   0  0  0  0  0  0  0  0  0  0  0  0
   15.5522   -7.4452   19.3216 N   0  0  0  0  0  0  0  0  0  0  0  0
   15.7860   -7.3669   20.2747 H   0  0  0  0  0  0  0  0  0  0  0  0
   13.9004   -7.1946   18.8602 S   0  0  0  0  0  0  0  0  0  0  0  0
   13.6825   -7.6021   17.1435 C   0  0  0  0  0  0  0  0  0  0  0  0
   13.5180   -5.7615   19.1010 O   0  0  0  0  0  0  0  0  0  0  0  0
   13.0189   -8.0844   19.6892 O   0  0  0  0  0  0  0  0  0  0  0  0
  1  2  1  0  0  0
  2  3  2  0  0  0
  2  4  1  0  0  0
  4  5  1  0  0  0
  5  6  2  0  0  0
  6  7  1  0  0  0
  6 23  1  0  0  0
  7  8  1  0  0  0
  8  9  1  0  0  0
  8  4  1  0  0  0
  9 10  2  0  0  0
 10 11  1  0  0  0
 10 12  1  0  0  0
 12 13  2  0  0  0
 13 14  1  0  0  0
 14 15  2  0  0  0
 15 16  1  0  0  0
 16 17  1  0  0  0
 17 18  1  0  0  0
 18 19  1  0  0  0
 19 20  2  0  0  0
 19 15  1  0  0  0
 20 21  1  0  0  0
 21 22  2  0  0  0
 21 13  1  0  0  0
 22  9  1  0  0  0
 23 24  2  0  0  0
 24 25  1  0  0  0
 25 26  2  0  0  0
 26 27  1  0  0  0
 27 29  1  0  0  0
 27 28  2  0  0  0
 29 31  1  0  0  0
 31 32  1  0  0  0
 31 33  2  0  0  0
 31 34  2  0  0  0
 28 23  1  0  0  0
 29 30  1  0  0  0
M  END
>  <minimizedAffinity>
4.70243

>  <minimizedRMSD>
2.31538

$$$$
CSC026415288 84500174 CSSS00026415288 MCULE-4713493936 MolPort-027-698-006 PubChem-71885699 Z827213902 ZINC000084500174 ZINC84500174


 29 32  0  0  0  0  0  0  0  0999 V2000
   15.6709   -9.3137   11.8302 C   0  0  0  0  0  0  0  0  0  0  0  0
   15.9831   -7.9978   12.1881 C   0  0  0  0  0  0  0  0  0  0  0  0
   16.8096   -7.2261   11.3656 C   0  0  0  0  0  0  0  0  0  0  0  0
   17.3289   -7.7712   10.1874 C   0  0  0  0  0  0  0  0  0  0  0  0
   17.0184   -9.0872    9.8281 C   0  0  0  0  0  0  0  0  0  0  0  0
   16.1966   -9.8607   10.6549 C   0  0  0  0  0  0  0  0  0  0  0  0
   14.8203  -10.1459   12.7226 C   0  0  0  0  0  0  0  0  0  0  0  0
   16.2406   -9.9260   14.7983 C   0  0  0  0  0  0  0  0  0  0  0  0
   16.0706   -8.6763   14.7932 O   0  0  0  0  0  0  0  0  0  0  0  0
   15.6376  -10.7248   13.7768 N   0  0  0  0  0  0  0  0  0  0  0  0
   15.7806  -11.6988   13.7877 H   0  0  0  0  0  0  0  0  0  0  0  0
   16.5156   -8.8754   17.5251 O   0  0  0  0  0  0  0  0  0  0  0  0
   17.1709  -10.0451   17.1579 C   0  0  0  0  0  0  0  0  0  0  0  0
   17.9559  -10.7005   18.1122 C   0  0  0  0  0  0  0  0  0  0  0  0
   18.6309  -11.8777   17.7850 C   0  0  0  0  0  0  0  0  0  0  0  0
   18.5243  -12.4071   16.4986 C   0  0  0  0  0  0  0  0  0  0  0  0
   17.7426  -11.7587   15.5400 C   0  0  0  0  0  0  0  0  0  0  0  0
   17.0568  -10.5739   15.8514 C   0  0  0  0  0  0  0  0  0  0  0  0
   16.6047   -8.5421   18.3963 H   0  0  0  0  0  0  0  0  0  0  0  0
   17.6033   -9.6799    8.5917 C   0  0  0  0  0  0  0  0  0  0  0  0
   18.6974   -8.8511    8.1054 N   0  0  0  0  0  0  0  0  0  0  0  0
   19.6435   -8.2370    8.8561 C   0  0  0  0  0  0  0  0  0  0  0  0
   20.4937   -7.4869    8.1033 N   0  0  0  0  0  0  0  0  0  0  0  0
   20.0332   -7.6509    6.8491 C   0  0  0  0  0  0  0  0  0  0  0  0
   20.5343   -7.0881    5.6780 C   0  0  0  0  0  0  0  0  0  0  0  0
   19.8713   -7.3990    4.4754 C   0  0  0  0  0  0  0  0  0  0  0  0
   18.7416   -8.2490    4.4754 C   0  0  0  0  0  0  0  0  0  0  0  0
   18.2608   -8.8002    5.6776 C   0  0  0  0  0  0  0  0  0  0  0  0
   18.9458   -8.4708    6.8464 C   0  0  0  0  0  0  0  0  0  0  0  0
 12 13  1  0  0  0
 13 14  2  0  0  0
 14 15  1  0  0  0
 15 16  2  0  0  0
 16 17  1  0  0  0
 17 18  2  0  0  0
 18  8  1  0  0  0
 18 13  1  0  0  0
  8  9  2  0  0  0
  8 10  1  0  0  0
 10  7  1  0  0  0
  7  1  1  0  0  0
  1  2  2  0  0  0
  2  3  1  0  0  0
  3  4  2  0  0  0
  4  5  1  0  0  0
  5 20  1  0  0  0
  5  6  2  0  0  0
 20 21  1  0  0  0
 21 22  1  0  0  0
 22 23  2  0  0  0
 23 24  1  0  0  0
 24 25  2  0  0  0
 25 26  1  0  0  0
 26 27  2  0  0  0
 27 28  1  0  0  0
 28 29  2  0  0  0
 29 21  1  0  0  0
 29 24  1  0  0  0
  6  1  1  0  0  0
 12 19  1  0  0  0
 10 11  1  0  0  0
M  END
>  <minimizedAffinity>
4.70272

>  <minimizedRMSD>
3.01625

$$$$
CSC027950464 2680115 CSSS00027950464 LN01110506 MCULE-6429539340 MolPort-000-224-829 PubChem-2132894 Z20226081 ZINC000002680115


 32 36  0  0  0  0  0  0  0  0999 V2000
   19.2497   -9.0421   12.3639 N   0  0  0  0  0  0  0  0  0  0  0  0
   19.6846   -9.3219   11.0286 C   0  0  0  0  0  0  0  0  0  0  0  0
   19.6858  -10.4957   10.5732 O   0  0  0  0  0  0  0  0  0  0  0  0
   19.3104   -8.1063   12.6634 H   0  0  0  0  0  0  0  0  0  0  0  0
   18.7342   -9.9908   13.3081 C   0  0  0  0  0  0  0  0  0  0  0  0
   19.3129  -11.5772   13.5406 S   0  0  0  0  0  0  0  0  0  0  0  0
   18.1889  -11.9177   14.7347 C   0  0  0  0  0  0  0  0  0  0  0  0
   17.3842  -10.8647   14.9605 C   0  0  0  0  0  0  0  0  0  0  0  0
   16.3800  -11.1528   16.0048 C   0  0  0  0  0  0  0  0  0  0  0  0
   16.7032  -12.6096   16.4088 C   0  0  0  0  0  0  0  0  0  0  0  0
   17.8953  -13.0979   15.5593 C   0  0  0  0  0  0  0  0  0  0  0  0
   17.6532   -9.7394   14.1707 C   0  0  0  0  0  0  0  0  0  0  0  0
   16.8991   -8.4690   14.2375 C   0  0  0  0  0  0  0  0  0  0  0  0
   17.0339   -7.6058   15.3620 N   0  0  0  0  0  0  0  0  0  0  0  0
   16.1279   -8.1344   13.3002 O   0  0  0  0  0  0  0  0  0  0  0  0
   17.6329   -7.8529   16.1032 H   0  0  0  0  0  0  0  0  0  0  0  0
   16.5282   -6.7619   15.3982 H   0  0  0  0  0  0  0  0  0  0  0  0
   20.1321   -8.2020   10.1556 C   0  0  0  0  0  0  0  0  0  0  0  0
   18.7454   -7.0767    9.8006 S   0  0  0  0  0  0  0  0  0  0  0  0
   17.7442   -8.3670    9.0546 C   0  0  0  0  0  0  0  0  0  0  0  0
   16.8389   -9.0206    9.8378 N   0  0  0  0  0  0  0  0  0  0  0  0
   16.0463  -10.0165    9.3455 C   0  0  0  0  0  0  0  0  0  0  0  0
   16.1388  -10.3876    8.0396 N   0  0  0  0  0  0  0  0  0  0  0  0
   17.0266   -9.7511    7.2404 C   0  0  0  0  0  0  0  0  0  0  0  0
   17.2920  -10.0554    5.6107 S   0  0  0  0  0  0  0  0  0  0  0  0
   18.4736   -8.8598    5.4606 C   0  0  0  0  0  0  0  0  0  0  0  0
   19.2513   -8.5592    4.2184 C   0  0  0  0  0  0  0  0  0  0  0  0
   19.8820   -7.1692    4.3122 C   0  0  0  0  0  0  0  0  0  0  0  0
   20.6333   -7.0162    5.6354 C   0  0  0  0  0  0  0  0  0  0  0  0
   19.6768   -7.1033    6.8317 C   0  0  0  0  0  0  0  0  0  0  0  0
   18.6899   -8.2307    6.6896 C   0  0  0  0  0  0  0  0  0  0  0  0
   17.8483   -8.7341    7.7013 C   0  0  0  0  0  0  0  0  0  0  0  0
  5  1  1  0  0  0
  1  2  1  0  0  0
  2 18  1  0  0  0
 18 19  1  0  0  0
 19 20  1  0  0  0
 20 21  2  0  0  0
 21 22  1  0  0  0
 22 23  2  0  0  0
 23 24  1  0  0  0
 24 25  1  0  0  0
 25 26  1  0  0  0
 26 27  1  0  0  0
 27 28  1  0  0  0
 28 29  1  0  0  0
 29 30  1  0  0  0
 30 31  1  0  0  0
 31 32  1  0  0  0
  2  3  2  0  0  0
  5  6  1  0  0  0
  6  7  1  0  0  0
  7  8  2  0  0  0
  8  9  1  0  0  0
  9 10  1  0  0  0
 10 11  1  0  0  0
  8 12  1  0  0  0
 12 13  1  0  0  0
 13 14  1  0  0  0
 13 15  2  0  0  0
 12  5  2  0  0  0
 32 20  1  0  0  0
 11  7  1  0  0  0
 32 24  2  0  0  0
 31 26  2  0  0  0
  1  4  1  0  0  0
 14 16  1  0  0  0
 14 17  1  0  0  0
M  END
>  <minimizedAffinity>
4.80766

>  <minimizedRMSD>
2.38583

$$$$
CSSS03536435097 Z4991849366


 28 32  0  0  0  0  0  0  0  0999 V2000
   16.8523   -9.8983   10.5582 N   0  0  0  0  0  0  0  0  0  0  0  0
   16.2065   -8.8904   11.4049 C   0  0  0  0  0  0  0  0  0  0  0  0
   15.6623   -9.5169   12.6859 C   0  0  0  0  0  0  0  0  0  0  0  0
   16.6673  -10.4095   13.2661 N   0  0  0  0  0  0  0  0  0  0  0  0
   17.2850  -11.4355   12.4133 C   0  0  0  0  0  0  0  0  0  0  0  0
   16.8435  -11.3052   10.9549 C   0  0  0  0  0  0  0  0  0  0  0  0
   20.3993   -7.1466    6.4000 C   0  0  0  0  0  0  0  0  0  0  0  0
   19.6975   -7.7011    7.5887 C   0  0  0  0  0  0  0  0  0  0  0  0
   20.1455   -7.6004    8.8631 N   0  0  0  0  0  0  0  0  0  0  0  0
   19.2874   -8.2429    9.6516 N   0  0  0  0  0  0  0  0  0  0  0  0
   19.5057   -8.4279   11.0760 C   0  0  0  0  0  0  0  0  0  0  0  0
   18.2959   -8.7557    8.8922 C   0  0  0  0  0  0  0  0  0  0  0  0
   17.1970   -9.5608    9.2118 C   0  0  0  0  0  0  0  0  0  0  0  0
   16.4259  -10.0089    8.1748 N   0  0  0  0  0  0  0  0  0  0  0  0
   16.7024   -9.6779    6.8729 C   0  0  0  0  0  0  0  0  0  0  0  0
   15.6792  -10.2813    5.5878 Cl  0  0  0  0  0  0  0  0  0  0  0  0
   17.7727   -8.8842    6.5712 N   0  0  0  0  0  0  0  0  0  0  0  0
   18.5383   -8.4384    7.5943 C   0  0  0  0  0  0  0  0  0  0  0  0
   17.0895  -10.2785   14.6420 C   0  0  0  0  0  0  0  0  0  0  0  0
   18.1241  -11.0951   15.1541 C   0  0  0  0  0  0  0  0  0  0  0  0
   18.5516  -10.9811   16.4937 C   0  0  0  0  0  0  0  0  0  0  0  0
   17.9569  -10.0459   17.3559 C   0  0  0  0  0  0  0  0  0  0  0  0
   16.9422   -9.2498   16.8360 C   0  0  0  0  0  0  0  0  0  0  0  0
   16.2511   -8.2968   17.4755 N   0  0  0  0  0  0  0  0  0  0  0  0
   15.3911   -7.7877   16.6003 N   0  0  0  0  0  0  0  0  0  0  0  0
   15.5256   -8.4075   15.4022 C   0  0  0  0  0  0  0  0  0  0  0  0
   16.5208   -9.3543   15.5391 C   0  0  0  0  0  0  0  0  0  0  0  0
   16.3599   -8.0253   18.4156 H   0  0  0  0  0  0  0  0  0  0  0  0
  7  8  1  0  0  0
  8  9  2  0  0  0
  9 10  1  0  0  0
 10 11  1  0  0  0
 10 12  1  0  0  0
 12 13  2  0  0  0
 13 14  1  0  0  0
 14 15  2  0  0  0
 15 16  1  0  0  0
 15 17  1  0  0  0
 17 18  2  0  0  0
 13  1  1  0  0  0
  1  2  1  0  0  0
  2  3  1  0  0  0
  3  4  1  0  0  0
  4  5  1  0  0  0
  5  6  1  0  0  0
  4 19  1  0  0  0
 19 20  2  0  0  0
 20 21  1  0  0  0
 21 22  2  0  0  0
 22 23  1  0  0  0
 23 24  1  0  0  0
 24 25  1  0  0  0
 25 26  2  0  0  0
 26 27  1  0  0  0
 18  8  1  0  0  0
  6  1  1  0  0  0
 27 19  1  0  0  0
 18 12  1  0  0  0
 27 23  2  0  0  0
 24 28  1  0  0  0
M  END
>  <minimizedAffinity>
4.96633

>  <minimizedRMSD>
0.66833

$$$$
CSC027720201 9952507 CSSS00027720201 MCULE-5960940240 MolPort-005-808-500 PubChem-16325533 Z16599845 ZINC000009952507


 34 36  0  0  0  0  0  0  0  0999 V2000
   17.4042  -10.4706   16.9568 C   0  0  0  0  0  0  0  0  0  0  0  0
   17.5418   -9.6481   15.8300 C   0  0  0  0  0  0  0  0  0  0  0  0
   16.6513   -8.5467   15.8240 C   0  0  0  0  0  0  0  0  0  0  0  0
   15.8450   -8.5270   16.9635 C   0  0  0  0  0  0  0  0  0  0  0  0
   14.8439   -7.5592   17.2628 N   0  0  0  0  0  0  0  0  0  0  0  0
   16.2027   -9.8344   17.9481 S   0  0  0  0  0  0  0  0  0  0  0  0
   14.6805   -6.8121   16.6428 H   0  0  0  0  0  0  0  0  0  0  0  0
   14.3153   -7.6373   18.0896 H   0  0  0  0  0  0  0  0  0  0  0  0
   18.1558  -11.6991   17.2706 C   0  0  0  0  0  0  0  0  0  0  0  0
   18.3330  -12.5844   16.3898 O   0  0  0  0  0  0  0  0  0  0  0  0
   18.6714  -11.8742   18.5562 O   0  0  0  0  0  0  0  0  0  0  0  0
   20.4072  -12.0801   20.1939 C   0  0  0  0  0  0  0  0  0  0  0  0
   19.9725  -12.3961   18.7786 C   0  0  0  0  0  0  0  0  0  0  0  0
   16.5661   -7.5336   14.7419 C   0  0  0  0  0  0  0  0  0  0  0  0
   16.6669   -6.3063   15.0166 O   0  0  0  0  0  0  0  0  0  0  0  0
   16.3672   -7.9321   13.4185 O   0  0  0  0  0  0  0  0  0  0  0  0
   15.1199   -8.4272   12.9569 C   0  0  0  0  0  0  0  0  0  0  0  0
   14.9152   -9.8344   13.4770 C   0  0  0  0  0  0  0  0  0  0  0  0
   18.5083   -9.9402   14.7275 C   0  0  0  0  0  0  0  0  0  0  0  0
   17.8516  -10.6666   13.6994 O   0  0  0  0  0  0  0  0  0  0  0  0
   18.4345  -10.8639   12.4464 C   0  0  0  0  0  0  0  0  0  0  0  0
   19.4959  -11.5386   12.3466 O   0  0  0  0  0  0  0  0  0  0  0  0
   17.7879  -10.2633   11.2558 C   0  0  0  0  0  0  0  0  0  0  0  0
   18.4259   -9.3506   10.3870 C   0  0  0  0  0  0  0  0  0  0  0  0
   17.7017   -8.8421    9.2847 C   0  0  0  0  0  0  0  0  0  0  0  0
   18.3125   -7.9332    8.4066 C   0  0  0  0  0  0  0  0  0  0  0  0
   19.6314   -7.5269    8.6150 C   0  0  0  0  0  0  0  0  0  0  0  0
   20.3509   -8.0250    9.7015 C   0  0  0  0  0  0  0  0  0  0  0  0
   19.7521   -8.9299   10.5805 C   0  0  0  0  0  0  0  0  0  0  0  0
   16.3785   -9.2547    9.0852 C   0  0  0  0  0  0  0  0  0  0  0  0
   15.7139   -8.8118    8.1061 O   0  0  0  0  0  0  0  0  0  0  0  0
   15.8134  -10.1383    9.9575 N   0  0  0  0  0  0  0  0  0  0  0  0
   14.4405  -10.5844    9.7756 C   0  0  0  0  0  0  0  0  0  0  0  0
   16.4997  -10.6153   10.9968 N   0  0  0  0  0  0  0  0  0  0  0  0
 12 13  1  0  0  0
 13 11  1  0  0  0
 11  9  1  0  0  0
  9  1  1  0  0  0
  1  2  2  0  0  0
  2 19  1  0  0  0
 19 20  1  0  0  0
 20 21  1  0  0  0
 21 23  1  0  0  0
 23 24  1  0  0  0
 24 25  1  0  0  0
 25 26  2  0  0  0
 26 27  1  0  0  0
 27 28  2  0  0  0
 28 29  1  0  0  0
 25 30  1  0  0  0
 30 31  2  0  0  0
 30 32  1  0  0  0
 32 33  1  0  0  0
 32 34  1  0  0  0
 21 22  2  0  0  0
  2  3  1  0  0  0
  3 14  1  0  0  0
 14 16  1  0  0  0
 16 17  1  0  0  0
 17 18  1  0  0  0
 14 15  2  0  0  0
  3  4  2  0  0  0
  4  5  1  0  0  0
  4  6  1  0  0  0
  9 10  2  0  0  0
  6  1  1  0  0  0
 34 23  2  0  0  0
 29 24  2  0  0  0
  5  7  1  0  0  0
  5  8  1  0  0  0
M  END
>  <minimizedAffinity>
5.02985

>  <minimizedRMSD>
2.17286

$$$$
CSSS09880993735 MCULE-7334877609 MolPort-051-539-583 PubChem-165428813


 37 40  0  0  0  0  0  0  0  0999 V2000
   13.2219   -6.8343   18.2504 C   0  0  0  0  0  0  0  0  0  0  0  0
   13.2515   -7.7751   19.2871 C   0  0  0  0  0  0  0  0  0  0  0  0
   14.2675   -8.7296   19.3402 C   0  0  0  0  0  0  0  0  0  0  0  0
   15.2750   -8.7670   18.3641 C   0  0  0  0  0  0  0  0  0  0  0  0
   15.2571   -7.8081   17.3226 C   0  0  0  0  0  0  0  0  0  0  0  0
   16.2706   -7.7901   16.3553 O   0  0  0  0  0  0  0  0  0  0  0  0
   16.2885   -6.8765   15.2631 C   0  0  0  0  0  0  0  0  0  0  0  0
   15.5774   -7.4759   14.0636 C   0  0  0  0  0  0  0  0  0  0  0  0
   16.4198   -8.4940   13.4576 N   0  0  0  0  0  0  0  0  0  0  0  0
   15.9962   -9.8517   13.3177 C   0  0  0  0  0  0  0  0  0  0  0  0
   14.8381  -10.1994   13.6717 O   0  0  0  0  0  0  0  0  0  0  0  0
   16.9350  -10.8767   12.7646 C   0  0  0  0  0  0  0  0  0  0  0  0
   18.1724  -10.9990   13.6408 C   0  0  0  0  0  0  0  0  0  0  0  0
   17.8151  -11.6547   14.9607 C   0  0  0  0  0  0  0  0  0  0  0  0
   18.8283  -11.2586   16.0161 C   0  0  0  0  0  0  0  0  0  0  0  0
   18.1464  -11.1822   17.3692 C   0  0  0  0  0  0  0  0  0  0  0  0
   17.1894  -10.0862   17.3668 N   0  0  0  0  0  0  0  0  0  0  0  0
   16.3092   -9.8249   18.4610 C   0  0  0  0  0  0  0  0  0  0  0  0
   16.3893  -10.5283   19.5056 O   0  0  0  0  0  0  0  0  0  0  0  0
   14.2237   -6.8567   17.2793 C   0  0  0  0  0  0  0  0  0  0  0  0
   17.3134   -8.2393   13.1322 H   0  0  0  0  0  0  0  0  0  0  0  0
   17.1467   -9.4997   16.5773 H   0  0  0  0  0  0  0  0  0  0  0  0
   17.3293  -10.4997   11.4179 N   0  0  0  0  0  0  0  0  0  0  0  0
   16.3714  -10.2521   10.3872 C   0  0  0  0  0  0  0  0  0  0  0  0
   15.1412  -10.3980   10.6195 O   0  0  0  0  0  0  0  0  0  0  0  0
   18.2874  -10.4121   11.2089 H   0  0  0  0  0  0  0  0  0  0  0  0
   16.8155   -9.8262    9.0511 C   0  0  0  0  0  0  0  0  0  0  0  0
   16.3027  -10.2624    7.8338 C   0  0  0  0  0  0  0  0  0  0  0  0
   16.9618   -9.6327    6.8248 N   0  0  0  0  0  0  0  0  0  0  0  0
   17.8489   -8.8383    7.4546 C   0  0  0  0  0  0  0  0  0  0  0  0
   18.7598   -7.9768    6.8549 C   0  0  0  0  0  0  0  0  0  0  0  0
   19.5867   -7.2308    7.7087 C   0  0  0  0  0  0  0  0  0  0  0  0
   19.4685   -7.3723    9.1047 C   0  0  0  0  0  0  0  0  0  0  0  0
   18.5497   -8.2382    9.6202 N   0  0  0  0  0  0  0  0  0  0  0  0
   17.7816   -8.9361    8.7853 N   0  0  0  0  0  0  0  0  0  0  0  0
   11.2590   -5.6607   19.1933 C   0  0  0  0  0  0  0  0  0  0  0  0
   12.2152   -5.8688   18.1628 O   0  0  0  0  0  0  0  0  0  0  0  0
 36 37  1  0  0  0
 37  1  1  0  0  0
  1  2  2  0  0  0
  2  3  1  0  0  0
  3  4  2  0  0  0
  4  5  1  0  0  0
  5  6  1  0  0  0
  6  7  1  0  0  0
  7  8  1  0  0  0
  8  9  1  0  0  0
  9 10  1  0  0  0
 10 11  2  0  0  0
 10 12  1  0  0  0
 12 13  1  0  0  0
 13 14  1  0  0  0
 14 15  1  0  0  0
 15 16  1  0  0  0
 16 17  1  0  0  0
 17 18  1  0  0  0
 18 19  2  0  0  0
 12 23  1  0  0  0
 23 24  1  0  0  0
 24 25  2  0  0  0
 24 27  1  0  0  0
 27 28  2  0  0  0
 28 29  1  0  0  0
 29 30  2  0  0  0
 30 31  1  0  0  0
 31 32  2  0  0  0
 32 33  1  0  0  0
 33 34  2  0  0  0
 34 35  1  0  0  0
  5 20  2  0  0  0
 20  1  1  0  0  0
 18  4  1  0  0  0
 35 27  1  0  0  0
 35 30  1  0  0  0
  9 21  1  0  0  0
 17 22  1  0  0  0
 23 26  1  0  0  0
M  END
>  <minimizedAffinity>
5.07416

>  <minimizedRMSD>
1.57757

$$$$
CSSS14929154618


 37 42  0  0  0  0  0  0  0  0999 V2000
   18.9301   -9.2404    3.1413 N   0  0  0  0  0  0  0  0  0  0  0  0
   17.9684   -9.6772    3.9455 N   0  0  0  0  0  0  0  0  0  0  0  0
   17.9202   -8.8873    5.0512 C   0  0  0  0  0  0  0  0  0  0  0  0
   18.9081   -7.9250    4.9165 C   0  0  0  0  0  0  0  0  0  0  0  0
   19.5023   -8.1738    3.7191 C   0  0  0  0  0  0  0  0  0  0  0  0
   20.4878   -7.3930    3.2121 N   0  0  0  0  0  0  0  0  0  0  0  0
   20.9136   -6.3064    3.9292 C   0  0  0  0  0  0  0  0  0  0  0  0
   20.3160   -6.0142    5.1830 C   0  0  0  0  0  0  0  0  0  0  0  0
   19.2992   -6.8388    5.7045 C   0  0  0  0  0  0  0  0  0  0  0  0
   18.6674   -6.5139    7.0004 C   0  0  0  0  0  0  0  0  0  0  0  0
   18.1579   -5.3709    7.1601 O   0  0  0  0  0  0  0  0  0  0  0  0
   18.6336   -7.4617    8.0789 N   0  0  0  0  0  0  0  0  0  0  0  0
   17.6890   -7.2656    9.1770 C   0  0  0  0  0  0  0  0  0  0  0  0
   17.2276   -8.6173    9.7107 C   0  0  0  0  0  0  0  0  0  0  0  0
   18.3880   -9.4677    9.9699 N   0  0  0  0  0  0  0  0  0  0  0  0
   19.3203   -9.6767    8.8628 C   0  0  0  0  0  0  0  0  0  0  0  0
   19.7860   -8.3303    8.3177 C   0  0  0  0  0  0  0  0  0  0  0  0
   18.5150  -10.2336   11.1864 C   0  0  0  0  0  0  0  0  0  0  0  0
   17.6469  -10.0765   12.2822 C   0  0  0  0  0  0  0  0  0  0  0  0
   16.6068   -9.2384   12.4122 N   0  0  0  0  0  0  0  0  0  0  0  0
   16.1419   -9.5003   13.6613 C   0  0  0  0  0  0  0  0  0  0  0  0
   16.8472  -10.4595   14.3148 N   0  0  0  0  0  0  0  0  0  0  0  0
   17.7884  -10.8035   13.4256 C   0  0  0  0  0  0  0  0  0  0  0  0
   18.7982  -11.7464   13.5898 C   0  0  0  0  0  0  0  0  0  0  0  0
   19.6903  -11.9323   12.5209 C   0  0  0  0  0  0  0  0  0  0  0  0
   19.5518  -11.1829   11.3337 C   0  0  0  0  0  0  0  0  0  0  0  0
   16.7021  -10.8153   15.2212 H   0  0  0  0  0  0  0  0  0  0  0  0
   21.9850   -5.4437    3.3880 C   0  0  0  0  0  0  0  0  0  0  0  0
   21.9592   -4.0530    3.5837 C   0  0  0  0  0  0  0  0  0  0  0  0
   22.9765   -3.2450    3.0678 C   0  0  0  0  0  0  0  0  0  0  0  0
   24.0295   -3.8196    2.3517 C   0  0  0  0  0  0  0  0  0  0  0  0
   25.1109   -2.9606    1.8031 C   0  0  0  0  0  0  0  0  0  0  0  0
   24.0655   -5.2016    2.1511 C   0  0  0  0  0  0  0  0  0  0  0  0
   23.0479   -6.0096    2.6668 C   0  0  0  0  0  0  0  0  0  0  0  0
   20.3649  -10.8540    1.9838 C   0  0  0  0  0  0  0  0  0  0  0  0
   19.2406   -9.8433    1.8487 C   0  0  0  0  0  0  0  0  0  0  0  0
   18.0102  -10.5037    1.2537 C   0  0  0  0  0  0  0  0  0  0  0  0
 35 36  1  0  0  0
 36 37  1  0  0  0
 36  1  1  0  0  0
  1  2  1  0  0  0
  2  3  2  0  0  0
  3  4  1  0  0  0
  4  5  2  0  0  0
  5  6  1  0  0  0
  6  7  2  0  0  0
  7  8  1  0  0  0
  8  9  2  0  0  0
  9 10  1  0  0  0
 10 11  2  0  0  0
 10 12  1  0  0  0
 12 13  1  0  0  0
 13 14  1  0  0  0
 14 15  1  0  0  0
 15 16  1  0  0  0
 16 17  1  0  0  0
 15 18  1  0  0  0
 18 19  2  0  0  0
 19 20  1  0  0  0
 20 21  2  0  0  0
 21 22  1  0  0  0
 22 23  1  0  0  0
 23 24  2  0  0  0
 24 25  1  0  0  0
 25 26  2  0  0  0
  7 28  1  0  0  0
 28 29  2  0  0  0
 29 30  1  0  0  0
 30 31  2  0  0  0
 31 32  1  0  0  0
 31 33  1  0  0  0
 33 34  2  0  0  0
  5  1  1  0  0  0
 17 12  1  0  0  0
 26 18  1  0  0  0
 34 28  1  0  0  0
  9  4  1  0  0  0
 23 19  1  0  0  0
 22 27  1  0  0  0
M  END
>  <minimizedAffinity>
5.21767

>  <minimizedRMSD>
4.01951

$$$$
244975223 CSSS03436958793 MCULE-8416994114 MolPort-039-032-649 ZINC000244975223


 28 31  0  0  0  0  0  0  0  0999 V2000
   16.2898   -8.1854   11.8196 C   0  0  0  0  0  0  0  0  0  0  0  0
   15.8988   -9.1384   10.7440 C   0  0  0  0  0  0  0  0  0  0  0  0
   14.9181  -10.0642   10.8565 N   0  0  0  0  0  0  0  0  0  0  0  0
   14.8910  -10.7596    9.7184 N   0  0  0  0  0  0  0  0  0  0  0  0
   15.8623  -10.2437    8.9420 C   0  0  0  0  0  0  0  0  0  0  0  0
   16.2339  -10.6432    7.6662 C   0  0  0  0  0  0  0  0  0  0  0  0
   17.3006   -9.9453    7.0755 C   0  0  0  0  0  0  0  0  0  0  0  0
   17.9445   -8.8948    7.7733 C   0  0  0  0  0  0  0  0  0  0  0  0
   17.5140   -8.5668    9.0283 N   0  0  0  0  0  0  0  0  0  0  0  0
   16.4985   -9.2463    9.5535 N   0  0  0  0  0  0  0  0  0  0  0  0
   19.0368   -8.1816    7.1785 N   0  0  0  0  0  0  0  0  0  0  0  0
   20.1268   -7.5999    7.9355 C   0  0  0  0  0  0  0  0  0  0  0  0
   21.1001   -7.0629    6.9039 C   0  0  0  0  0  0  0  0  0  0  0  0
   20.3632   -7.0677    5.5715 C   0  0  0  0  0  0  0  0  0  0  0  0
   19.1552   -7.9670    5.7512 C   0  0  0  0  0  0  0  0  0  0  0  0
   16.2775   -8.5244   14.3196 C   0  0  0  0  0  0  0  0  0  0  0  0
   15.5493   -7.5053   14.4714 O   0  0  0  0  0  0  0  0  0  0  0  0
   16.6784   -8.9266   13.0078 N   0  0  0  0  0  0  0  0  0  0  0  0
   17.2359   -9.7316   12.9060 H   0  0  0  0  0  0  0  0  0  0  0  0
   17.9223  -11.4472   18.8600 O   0  0  0  0  0  0  0  0  0  0  0  0
   17.5306  -10.7414   17.7292 C   0  0  0  0  0  0  0  0  0  0  0  0
   18.0460  -11.0735   16.4703 C   0  0  0  0  0  0  0  0  0  0  0  0
   19.1970  -12.3825   16.2741 Cl  0  0  0  0  0  0  0  0  0  0  0  0
   17.6337  -10.3461   15.3531 C   0  0  0  0  0  0  0  0  0  0  0  0
   16.7164   -9.2986   15.4930 C   0  0  0  0  0  0  0  0  0  0  0  0
   16.2272   -9.0012   16.7712 C   0  0  0  0  0  0  0  0  0  0  0  0
   16.6399   -9.7205   17.8492 N   0  0  0  0  0  0  0  0  0  0  0  0
   18.5356  -12.1515   18.7836 H   0  0  0  0  0  0  0  0  0  0  0  0
 20 21  1  0  0  0
 21 22  2  0  0  0
 22 23  1  0  0  0
 22 24  1  0  0  0
 24 25  2  0  0  0
 25 26  1  0  0  0
 26 27  2  0  0  0
 25 16  1  0  0  0
 16 17  2  0  0  0
 16 18  1  0  0  0
 18  1  1  0  0  0
  1  2  1  0  0  0
  2  3  2  0  0  0
  3  4  1  0  0  0
  4  5  2  0  0  0
  5  6  1  0  0  0
  6  7  2  0  0  0
  7  8  1  0  0  0
  8  9  2  0  0  0
  9 10  1  0  0  0
  8 11  1  0  0  0
 11 12  1  0  0  0
 12 13  1  0  0  0
 13 14  1  0  0  0
 14 15  1  0  0  0
 27 21  1  0  0  0
 10  2  1  0  0  0
 15 11  1  0  0  0
 10  5  1  0  0  0
 20 28  1  0  0  0
 18 19  1  0  0  0
M  END
>  <minimizedAffinity>
5.33567

>  <minimizedRMSD>
3.01859

$$$$
CSSS00160080621 MCULE-4946709767 MolPort-028-588-672 PubChem-72898490


 29 32  0  0  0  0  0  0  0  0999 V2000
   15.6186   -9.0738   10.2402 C   0  0  0  0  0  0  0  0  0  0  0  0
   14.2204   -8.8520    9.6910 C   0  0  0  0  0  0  0  0  0  0  0  0
   13.6198  -10.2349    9.4706 C   0  0  0  0  0  0  0  0  0  0  0  0
   14.4755  -11.2075   10.2607 C   0  0  0  0  0  0  0  0  0  0  0  0
   15.6628  -10.4692   10.6407 N   0  0  0  0  0  0  0  0  0  0  0  0
   16.7275  -11.0551   11.4033 C   0  0  0  0  0  0  0  0  0  0  0  0
   16.7151  -12.2902   11.6549 O   0  0  0  0  0  0  0  0  0  0  0  0
   18.2675   -7.5642   10.6593 C   0  0  0  0  0  0  0  0  0  0  0  0
   17.7935   -8.1258    9.4036 N   0  0  0  0  0  0  0  0  0  0  0  0
   16.6389   -8.7986    9.1758 C   0  0  0  0  0  0  0  0  0  0  0  0
   16.4970   -9.2021    7.8833 N   0  0  0  0  0  0  0  0  0  0  0  0
   17.6256   -8.7512    7.3034 C   0  0  0  0  0  0  0  0  0  0  0  0
   18.0094   -8.8914    5.9723 C   0  0  0  0  0  0  0  0  0  0  0  0
   19.2452   -8.3348    5.5919 C   0  0  0  0  0  0  0  0  0  0  0  0
   20.0535   -7.6635    6.5371 C   0  0  0  0  0  0  0  0  0  0  0  0
   19.6376   -7.5399    7.8758 C   0  0  0  0  0  0  0  0  0  0  0  0
   18.4082   -8.1027    8.2149 C   0  0  0  0  0  0  0  0  0  0  0  0
   17.8657  -10.2177   11.8993 C   0  0  0  0  0  0  0  0  0  0  0  0
   17.9503  -10.2537   13.3998 C   0  0  0  0  0  0  0  0  0  0  0  0
   18.8559  -11.1101   14.0504 C   0  0  0  0  0  0  0  0  0  0  0  0
   19.7823  -11.9913   13.2822 C   0  0  0  0  0  0  0  0  0  0  0  0
   18.9011  -11.1404   15.4075 N   0  0  0  0  0  0  0  0  0  0  0  0
   18.0857  -10.3553   16.1556 C   0  0  0  0  0  0  0  0  0  0  0  0
   18.1553  -10.4076   17.5751 N   0  0  0  0  0  0  0  0  0  0  0  0
   17.2050   -9.5188   15.5506 N   0  0  0  0  0  0  0  0  0  0  0  0
   17.1160   -9.4497   14.1971 C   0  0  0  0  0  0  0  0  0  0  0  0
   16.1318   -8.5069   13.5919 C   0  0  0  0  0  0  0  0  0  0  0  0
   18.7941  -11.0144   18.0145 H   0  0  0  0  0  0  0  0  0  0  0  0
   17.5648   -9.8371   18.1183 H   0  0  0  0  0  0  0  0  0  0  0  0
  8  9  1  0  0  0
  9 10  1  0  0  0
 10 11  2  0  0  0
 11 12  1  0  0  0
 12 13  2  0  0  0
 13 14  1  0  0  0
 14 15  2  0  0  0
 15 16  1  0  0  0
 16 17  2  0  0  0
 17  9  1  0  0  0
 17 12  1  0  0  0
  1 10  1  0  0  0
  1  2  1  0  0  0
  2  3  1  0  0  0
  3  4  1  0  0  0
  4  5  1  0  0  0
  5  6  1  0  0  0
  5  1  1  0  0  0
  6  7  2  0  0  0
  6 18  1  0  0  0
 18 19  1  0  0  0
 19 20  2  0  0  0
 20 21  1  0  0  0
 20 22  1  0  0  0
 22 23  2  0  0  0
 23 24  1  0  0  0
 23 25  1  0  0  0
 25 26  2  0  0  0
 26 27  1  0  0  0
 26 19  1  0  0  0
 24 28  1  0  0  0
 24 29  1  0  0  0
M  END
>  <minimizedAffinity>
5.38448

>  <minimizedRMSD>
1.97140

$$$$
14535355 CSSS09880943333 MCULE-4497657621 MolPort-004-981-083 PubChem-26138550 ZINC000014535355 ZINC14535355


 38 43  0  0  0  0  0  0  0  0999 V2000
   16.5072   -8.5201   11.5842 C   0  0  0  0  0  0  0  0  0  0  0  0
   15.7714   -7.4965   11.5318 O   0  0  0  0  0  0  0  0  0  0  0  0
   17.1379   -8.8699   12.8288 N   0  0  0  0  0  0  0  0  0  0  0  0
   18.3992   -9.6259   12.8373 C   0  0  0  0  0  0  0  0  0  0  0  0
   18.3778  -10.7421   13.8948 C   0  0  0  0  0  0  0  0  0  0  0  0
   17.7070  -10.2659   15.1471 C   0  0  0  0  0  0  0  0  0  0  0  0
   16.9300   -9.1411   15.2190 C   0  0  0  0  0  0  0  0  0  0  0  0
   16.4561   -9.1123   16.5194 C   0  0  0  0  0  0  0  0  0  0  0  0
   16.9227  -10.1950   17.1825 N   0  0  0  0  0  0  0  0  0  0  0  0
   17.6809  -10.8849   16.3410 N   0  0  0  0  0  0  0  0  0  0  0  0
   16.6953   -8.2189   14.0679 C   0  0  0  0  0  0  0  0  0  0  0  0
   19.1063   -5.8393    7.8674 C   0  0  0  0  0  0  0  0  0  0  0  0
   18.5077   -7.1973    7.9403 C   0  0  0  0  0  0  0  0  0  0  0  0
   18.5764   -8.0504    6.8364 C   0  0  0  0  0  0  0  0  0  0  0  0
   18.0179   -9.3290    6.9032 C   0  0  0  0  0  0  0  0  0  0  0  0
   17.3861   -9.7592    8.0737 C   0  0  0  0  0  0  0  0  0  0  0  0
   17.3046   -8.8987    9.1963 C   0  0  0  0  0  0  0  0  0  0  0  0
   17.8780   -7.6196    9.1139 C   0  0  0  0  0  0  0  0  0  0  0  0
   16.6687   -9.3633   10.3711 C   0  0  0  0  0  0  0  0  0  0  0  0
   16.1357  -10.6586   10.3783 C   0  0  0  0  0  0  0  0  0  0  0  0
   16.2405  -11.4705    9.2495 C   0  0  0  0  0  0  0  0  0  0  0  0
   16.8564  -11.0087    8.1310 N   0  0  0  0  0  0  0  0  0  0  0  0
   15.6737  -12.8438    9.2707 C   0  0  0  0  0  0  0  0  0  0  0  0
   15.5633   -8.1098   17.1163 C   0  0  0  0  0  0  0  0  0  0  0  0
   14.9336   -7.3030   16.3798 O   0  0  0  0  0  0  0  0  0  0  0  0
   15.4154   -8.0533   18.5377 N   0  0  0  0  0  0  0  0  0  0  0  0
   15.9510   -8.6658   19.0920 H   0  0  0  0  0  0  0  0  0  0  0  0
   14.5063   -7.1281   19.2001 C   0  0  0  0  0  0  0  0  0  0  0  0
   13.0916   -7.4883   18.8980 C   0  0  0  0  0  0  0  0  0  0  0  0
   12.3608   -6.7349   17.9752 C   0  0  0  0  0  0  0  0  0  0  0  0
   11.0433   -7.0976   17.6893 C   0  0  0  0  0  0  0  0  0  0  0  0
   10.4735   -8.2036   18.3227 C   0  0  0  0  0  0  0  0  0  0  0  0
   11.2365   -8.9338   19.2368 C   0  0  0  0  0  0  0  0  0  0  0  0
   12.5193   -8.5657   19.5021 N   0  0  0  0  0  0  0  0  0  0  0  0
   18.3096  -12.1545   16.6706 C   0  0  0  0  0  0  0  0  0  0  0  0
   17.6959  -13.2661   15.8406 C   0  0  0  0  0  0  0  0  0  0  0  0
   18.8042  -14.1055   15.2416 C   0  0  0  0  0  0  0  0  0  0  0  0
   18.0881  -13.0800   14.3895 C   0  0  0  0  0  0  0  0  0  0  0  0
 12 13  1  0  0  0
 13 14  2  0  0  0
 14 15  1  0  0  0
 15 16  2  0  0  0
 16 17  1  0  0  0
 17 18  2  0  0  0
 17 19  1  0  0  0
 18 13  1  0  0  0
 19 20  2  0  0  0
 19  1  1  0  0  0
 20 21  1  0  0  0
 21 22  2  0  0  0
 21 23  1  0  0  0
 22 16  1  0  0  0
  1  2  2  0  0  0
  1  3  1  0  0  0
  3  4  1  0  0  0
  4  5  1  0  0  0
  5  6  1  0  0  0
  6  7  2  0  0  0
  7  8  1  0  0  0
  7 11  1  0  0  0
  8  9  2  0  0  0
  8 24  1  0  0  0
  9 10  1  0  0  0
 10 35  1  0  0  0
 10  6  1  0  0  0
 35 36  1  0  0  0
 36 37  1  0  0  0
 37 38  1  0  0  0
 38 36  1  0  0  0
 24 25  2  0  0  0
 24 26  1  0  0  0
 26 28  1  0  0  0
 28 29  1  0  0  0
 29 30  2  0  0  0
 30 31  1  0  0  0
 31 32  2  0  0  0
 32 33  1  0  0  0
 33 34  2  0  0  0
 34 29  1  0  0  0
 11  3  1  0  0  0
 26 27  1  0  0  0
M  END
>  <minimizedAffinity>
5.40489

>  <minimizedRMSD>
1.35664

$$$$
253472037 CSSS03436982517 MCULE-9394241817 MolPort-039-074-446 ZINC000253472037


 28 31  0  0  0  0  0  0  0  0999 V2000
   16.4649   -8.2637   12.1332 C   0  0  0  0  0  0  0  0  0  0  0  0
   15.9475   -9.2048   11.1014 C   0  0  0  0  0  0  0  0  0  0  0  0
   14.9545  -10.1010   11.3072 N   0  0  0  0  0  0  0  0  0  0  0  0
   14.8019  -10.7963   10.1792 N   0  0  0  0  0  0  0  0  0  0  0  0
   15.7118  -10.3101    9.3143 C   0  0  0  0  0  0  0  0  0  0  0  0
   15.9533  -10.7226    8.0117 C   0  0  0  0  0  0  0  0  0  0  0  0
   16.9816  -10.0577    7.3228 C   0  0  0  0  0  0  0  0  0  0  0  0
   17.7160   -9.0269    7.9545 C   0  0  0  0  0  0  0  0  0  0  0  0
   17.4134   -8.6833    9.2417 N   0  0  0  0  0  0  0  0  0  0  0  0
   16.4306   -9.3312    9.8608 N   0  0  0  0  0  0  0  0  0  0  0  0
   18.7968   -8.3299    7.2421 C   0  0  0  0  0  0  0  0  0  0  0  0
   19.8115   -7.5957    7.8380 C   0  0  0  0  0  0  0  0  0  0  0  0
   20.7029   -7.0420    6.9076 C   0  0  0  0  0  0  0  0  0  0  0  0
   20.4030   -7.3312    5.5784 C   0  0  0  0  0  0  0  0  0  0  0  0
   19.0166   -8.2836    5.5784 S   0  0  0  0  0  0  0  0  0  0  0  0
   16.3313   -8.5737   14.6336 C   0  0  0  0  0  0  0  0  0  0  0  0
   15.6189   -7.5380   14.7413 O   0  0  0  0  0  0  0  0  0  0  0  0
   16.7827   -8.9993   13.3457 N   0  0  0  0  0  0  0  0  0  0  0  0
   17.3265   -9.8172   13.2779 H   0  0  0  0  0  0  0  0  0  0  0  0
   17.6996  -11.4833   19.2732 O   0  0  0  0  0  0  0  0  0  0  0  0
   17.3778  -10.7797   18.1191 C   0  0  0  0  0  0  0  0  0  0  0  0
   17.9997  -11.0872   16.9026 C   0  0  0  0  0  0  0  0  0  0  0  0
   19.1996  -12.3617   16.7903 Cl  0  0  0  0  0  0  0  0  0  0  0  0
   17.6552  -10.3633   15.7606 C   0  0  0  0  0  0  0  0  0  0  0  0
   16.7001   -9.3433   15.8339 C   0  0  0  0  0  0  0  0  0  0  0  0
   16.1041   -9.0696   17.0713 C   0  0  0  0  0  0  0  0  0  0  0  0
   16.4513   -9.7855   18.1743 N   0  0  0  0  0  0  0  0  0  0  0  0
   18.3371  -12.1692   19.2413 H   0  0  0  0  0  0  0  0  0  0  0  0
 20 21  1  0  0  0
 21 22  2  0  0  0
 22 23  1  0  0  0
 22 24  1  0  0  0
 24 25  2  0  0  0
 25 26  1  0  0  0
 26 27  2  0  0  0
 25 16  1  0  0  0
 16 17  2  0  0  0
 16 18  1  0  0  0
 18  1  1  0  0  0
  1  2  1  0  0  0
  2  3  2  0  0  0
  3  4  1  0  0  0
  4  5  2  0  0  0
  5  6  1  0  0  0
  6  7  2  0  0  0
  7  8  1  0  0  0
  8  9  2  0  0  0
  9 10  1  0  0  0
  8 11  1  0  0  0
 11 12  2  0  0  0
 12 13  1  0  0  0
 13 14  2  0  0  0
 14 15  1  0  0  0
 27 21  1  0  0  0
 10  2  1  0  0  0
 15 11  1  0  0  0
 10  5  1  0  0  0
 20 28  1  0  0  0
 18 19  1  0  0  0
M  END
>  <minimizedAffinity>
5.58288

>  <minimizedRMSD>
3.22333

$$$$
77506009 CSSS00159606319 MCULE-7158034041 MolPort-023-269-978 PubChem-70776085 ZINC000077506009 ZINC77506009


 29 32  0  0  0  0  0  0  0  0999 V2000
   16.7651   -8.5383   11.8144 C   0  0  0  0  0  0  0  0  0  0  0  0
   16.1510   -7.4367   11.8526 O   0  0  0  0  0  0  0  0  0  0  0  0
   17.2915   -9.0931   13.0328 N   0  0  0  0  0  0  0  0  0  0  0  0
   18.4479  -10.0020   12.9978 C   0  0  0  0  0  0  0  0  0  0  0  0
   18.2528  -11.2020   13.9410 C   0  0  0  0  0  0  0  0  0  0  0  0
   17.5946  -10.7682   15.2116 C   0  0  0  0  0  0  0  0  0  0  0  0
   16.9653   -9.5663   15.3775 C   0  0  0  0  0  0  0  0  0  0  0  0
   16.8847   -8.5153   14.3199 C   0  0  0  0  0  0  0  0  0  0  0  0
   16.5053   -9.5937   16.6772 C   0  0  0  0  0  0  0  0  0  0  0  0
   16.8481  -10.7780   17.2310 N   0  0  0  0  0  0  0  0  0  0  0  0
   17.4970  -11.4565   16.3238 O   0  0  0  0  0  0  0  0  0  0  0  0
   19.3401   -5.5212    8.3644 C   0  0  0  0  0  0  0  0  0  0  0  0
   18.7223   -6.8709    8.3000 C   0  0  0  0  0  0  0  0  0  0  0  0
   18.1056   -7.4093    9.4303 C   0  0  0  0  0  0  0  0  0  0  0  0
   17.5142   -8.6814    9.3853 C   0  0  0  0  0  0  0  0  0  0  0  0
   16.8917   -9.2552   10.5186 C   0  0  0  0  0  0  0  0  0  0  0  0
   16.3383  -10.5362   10.4051 C   0  0  0  0  0  0  0  0  0  0  0  0
   16.4095  -11.2295    9.1987 C   0  0  0  0  0  0  0  0  0  0  0  0
   15.8213  -12.5896    9.0908 C   0  0  0  0  0  0  0  0  0  0  0  0
   17.0117  -10.6645    8.1215 N   0  0  0  0  0  0  0  0  0  0  0  0
   17.5630   -9.4212    8.1761 C   0  0  0  0  0  0  0  0  0  0  0  0
   18.1851   -8.8701    7.0412 C   0  0  0  0  0  0  0  0  0  0  0  0
   18.2503   -9.6187    5.7534 C   0  0  0  0  0  0  0  0  0  0  0  0
   18.7603   -7.5990    7.1102 C   0  0  0  0  0  0  0  0  0  0  0  0
   15.7608   -8.5412   17.3823 C   0  0  0  0  0  0  0  0  0  0  0  0
   15.9946   -8.3105   18.7673 N   0  0  0  0  0  0  0  0  0  0  0  0
   14.9140   -7.8380   16.7710 O   0  0  0  0  0  0  0  0  0  0  0  0
   16.6551   -8.8560   19.2526 H   0  0  0  0  0  0  0  0  0  0  0  0
   15.4959   -7.6055   19.2400 H   0  0  0  0  0  0  0  0  0  0  0  0
 12 13  1  0  0  0
 13 14  2  0  0  0
 14 15  1  0  0  0
 15 16  2  0  0  0
 16 17  1  0  0  0
 16  1  1  0  0  0
 17 18  2  0  0  0
 18 19  1  0  0  0
 18 20  1  0  0  0
 20 21  2  0  0  0
 21 22  1  0  0  0
 21 15  1  0  0  0
 22 23  1  0  0  0
 22 24  2  0  0  0
 24 13  1  0  0  0
  1  2  2  0  0  0
  1  3  1  0  0  0
  3  4  1  0  0  0
  4  5  1  0  0  0
  5  6  1  0  0  0
  6  7  2  0  0  0
  7  8  1  0  0  0
  7  9  1  0  0  0
  8  3  1  0  0  0
  9 10  2  0  0  0
  9 25  1  0  0  0
 10 11  1  0  0  0
 11  6  1  0  0  0
 25 26  1  0  0  0
 25 27  2  0  0  0
 26 28  1  0  0  0
 26 29  1  0  0  0
M  END
>  <minimizedAffinity>
5.62468

>  <minimizedRMSD>
0.70244

$$$$
CSSS00537667649 MolPort-047-829-115 PubChem-166264841 Z3297993159


 30 33  0  0  0  0  0  0  0  0999 V2000
   15.9216   -9.0518   10.1886 C   0  0  0  0  0  0  0  0  0  0  0  0
   14.4815   -8.8240    9.7650 C   0  0  0  0  0  0  0  0  0  0  0  0
   13.8280  -10.1988    9.7011 C   0  0  0  0  0  0  0  0  0  0  0  0
   14.7351  -11.1433   10.4678 C   0  0  0  0  0  0  0  0  0  0  0  0
   15.9734  -10.4197   10.6738 N   0  0  0  0  0  0  0  0  0  0  0  0
   17.0897  -10.9815   11.3795 C   0  0  0  0  0  0  0  0  0  0  0  0
   17.0498  -12.1773   11.7743 O   0  0  0  0  0  0  0  0  0  0  0  0
   17.9858   -8.1535    9.0647 N   0  0  0  0  0  0  0  0  0  0  0  0
   16.8367   -8.8734    9.0137 C   0  0  0  0  0  0  0  0  0  0  0  0
   16.5857   -9.4073    7.7872 N   0  0  0  0  0  0  0  0  0  0  0  0
   17.6385   -8.9940    7.0581 C   0  0  0  0  0  0  0  0  0  0  0  0
   17.8936   -9.2579    5.7149 C   0  0  0  0  0  0  0  0  0  0  0  0
   19.0672   -8.7150    5.1591 C   0  0  0  0  0  0  0  0  0  0  0  0
   19.9419   -7.9342    5.9476 C   0  0  0  0  0  0  0  0  0  0  0  0
   19.6549   -7.6857    7.3022 C   0  0  0  0  0  0  0  0  0  0  0  0
   18.4837   -8.2396    7.8195 C   0  0  0  0  0  0  0  0  0  0  0  0
   19.9821   -7.8358   10.4548 C   0  0  0  0  0  0  0  0  0  0  0  0
   18.5311   -7.4533   10.2271 C   0  0  0  0  0  0  0  0  0  0  0  0
   18.4046   -5.9506   10.0581 C   0  0  0  0  0  0  0  0  0  0  0  0
   18.2984  -10.1566   11.6874 C   0  0  0  0  0  0  0  0  0  0  0  0
   18.3177   -9.7726   13.1278 C   0  0  0  0  0  0  0  0  0  0  0  0
   19.3889  -10.1582   13.9410 C   0  0  0  0  0  0  0  0  0  0  0  0
   19.3992   -9.8127   15.2955 C   0  0  0  0  0  0  0  0  0  0  0  0
   18.3378   -9.0840   15.8416 C   0  0  0  0  0  0  0  0  0  0  0  0
   18.3570   -8.7444   17.1885 O   0  0  0  0  0  0  0  0  0  0  0  0
   17.2616   -8.7017   15.0294 C   0  0  0  0  0  0  0  0  0  0  0  0
   16.2007   -7.9798   15.5614 O   0  0  0  0  0  0  0  0  0  0  0  0
   17.2530   -9.0486   13.6755 C   0  0  0  0  0  0  0  0  0  0  0  0
   19.0792   -9.0028   17.7266 H   0  0  0  0  0  0  0  0  0  0  0  0
   16.2020   -7.7449   16.4684 H   0  0  0  0  0  0  0  0  0  0  0  0
 17 18  1  0  0  0
 18 19  1  0  0  0
 18  8  1  0  0  0
  8  9  1  0  0  0
  9 10  2  0  0  0
 10 11  1  0  0  0
 11 12  2  0  0  0
 12 13  1  0  0  0
 13 14  2  0  0  0
 14 15  1  0  0  0
 15 16  2  0  0  0
  9  1  1  0  0  0
  1  2  1  0  0  0
  2  3  1  0  0  0
  3  4  1  0  0  0
  4  5  1  0  0  0
  5  6  1  0  0  0
  6  7  2  0  0  0
  6 20  1  0  0  0
 20 21  1  0  0  0
 21 22  2  0  0  0
 22 23  1  0  0  0
 23 24  2  0  0  0
 24 25  1  0  0  0
 24 26  1  0  0  0
 26 27  1  0  0  0
 26 28  2  0  0  0
 16  8  1  0  0  0
  5  1  1  0  0  0
 28 21  1  0  0  0
 16 11  1  0  0  0
 25 29  1  0  0  0
 27 30  1  0  0  0
M  END
>  <minimizedAffinity>
5.68433

>  <minimizedRMSD>
1.60631

$$$$
253472999 CSSS03436981952 MCULE-2916666829 MolPort-039-074-487 ZINC000253472999


 28 31  0  0  0  0  0  0  0  0999 V2000
   16.3104   -8.1980   11.8189 C   0  0  0  0  0  0  0  0  0  0  0  0
   15.8998   -9.1521   10.7513 C   0  0  0  0  0  0  0  0  0  0  0  0
   14.9100  -10.0664   10.8765 N   0  0  0  0  0  0  0  0  0  0  0  0
   14.8565  -10.7579    9.7370 N   0  0  0  0  0  0  0  0  0  0  0  0
   15.8202  -10.2499    8.9460 C   0  0  0  0  0  0  0  0  0  0  0  0
   16.1654  -10.6484    7.6626 C   0  0  0  0  0  0  0  0  0  0  0  0
   17.2286   -9.9590    7.0558 C   0  0  0  0  0  0  0  0  0  0  0  0
   17.8953   -8.9172    7.7454 C   0  0  0  0  0  0  0  0  0  0  0  0
   17.4895   -8.5896    9.0087 N   0  0  0  0  0  0  0  0  0  0  0  0
   16.4767   -9.2613    9.5495 N   0  0  0  0  0  0  0  0  0  0  0  0
   19.0162   -8.1916    7.1197 C   0  0  0  0  0  0  0  0  0  0  0  0
   19.1388   -8.0238    5.7427 C   0  0  0  0  0  0  0  0  0  0  0  0
   20.5513   -7.1492    5.5093 S   0  0  0  0  0  0  0  0  0  0  0  0
   21.0207   -6.9731    7.1113 C   0  0  0  0  0  0  0  0  0  0  0  0
   20.0521   -7.6136    7.8733 C   0  0  0  0  0  0  0  0  0  0  0  0
   16.2741   -8.5389   14.3188 C   0  0  0  0  0  0  0  0  0  0  0  0
   15.5304   -7.5299   14.4632 O   0  0  0  0  0  0  0  0  0  0  0  0
   16.6917   -8.9369   13.0110 N   0  0  0  0  0  0  0  0  0  0  0  0
   17.2560   -9.7379   12.9146 H   0  0  0  0  0  0  0  0  0  0  0  0
   17.9258  -11.4314   18.8762 O   0  0  0  0  0  0  0  0  0  0  0  0
   17.5322  -10.7332   17.7413 C   0  0  0  0  0  0  0  0  0  0  0  0
   18.0450  -11.0742   16.4836 C   0  0  0  0  0  0  0  0  0  0  0  0
   19.1952  -12.3848   16.2942 Cl  0  0  0  0  0  0  0  0  0  0  0  0
   17.6307  -10.3543   15.3623 C   0  0  0  0  0  0  0  0  0  0  0  0
   16.7142   -9.3056   15.4967 C   0  0  0  0  0  0  0  0  0  0  0  0
   16.2277   -8.9990   16.7737 C   0  0  0  0  0  0  0  0  0  0  0  0
   16.6422   -9.7111   17.8559 N   0  0  0  0  0  0  0  0  0  0  0  0
   18.5387  -12.1365   18.8034 H   0  0  0  0  0  0  0  0  0  0  0  0
 20 21  1  0  0  0
 21 22  2  0  0  0
 22 23  1  0  0  0
 22 24  1  0  0  0
 24 25  2  0  0  0
 25 26  1  0  0  0
 26 27  2  0  0  0
 25 16  1  0  0  0
 16 17  2  0  0  0
 16 18  1  0  0  0
 18  1  1  0  0  0
  1  2  1  0  0  0
  2  3  2  0  0  0
  3  4  1  0  0  0
  4  5  2  0  0  0
  5  6  1  0  0  0
  6  7  2  0  0  0
  7  8  1  0  0  0
  8  9  2  0  0  0
  9 10  1  0  0  0
  8 11  1  0  0  0
 11 12  2  0  0  0
 12 13  1  0  0  0
 13 14  1  0  0  0
 14 15  2  0  0  0
 27 21  1  0  0  0
 10  2  1  0  0  0
 15 11  1  0  0  0
 10  5  1  0  0  0
 20 28  1  0  0  0
 18 19  1  0  0  0
M  END
>  <minimizedAffinity>
5.69423

>  <minimizedRMSD>
3.17509

$$$$
CSC025929664 15513115 CSSS00025929664 MCULE-1005403562 MolPort-007-305-543 PubChem-26644005 Z82199118 ZINC000015513115 ZINC15513115


 32 34  0  0  0  0  0  0  0  0999 V2000
   17.6298  -10.4228   12.0778 C   0  0  0  0  0  0  0  0  0  0  0  0
   16.4646  -10.8752   11.9084 O   0  0  0  0  0  0  0  0  0  0  0  0
   18.3465  -10.7306   13.2782 N   0  0  0  0  0  0  0  0  0  0  0  0
   19.2708  -10.4043   13.3711 H   0  0  0  0  0  0  0  0  0  0  0  0
   17.4930   -8.4037    7.8027 N   0  0  0  0  0  0  0  0  0  0  0  0
   16.3807   -9.1007    8.0128 N   0  0  0  0  0  0  0  0  0  0  0  0
   16.4425   -9.6699    9.2465 C   0  0  0  0  0  0  0  0  0  0  0  0
   17.6529   -9.3000    9.8130 C   0  0  0  0  0  0  0  0  0  0  0  0
   18.2616   -9.5813   11.0415 C   0  0  0  0  0  0  0  0  0  0  0  0
   19.5357   -9.0155   11.2571 C   0  0  0  0  0  0  0  0  0  0  0  0
   20.1396   -8.2094   10.2643 C   0  0  0  0  0  0  0  0  0  0  0  0
   19.4928   -7.9692    9.0813 N   0  0  0  0  0  0  0  0  0  0  0  0
   18.2682   -8.5167    8.8860 C   0  0  0  0  0  0  0  0  0  0  0  0
   18.6678   -8.4821    5.6650 C   0  0  0  0  0  0  0  0  0  0  0  0
   17.7971   -7.6538    6.5903 C   0  0  0  0  0  0  0  0  0  0  0  0
   16.5160   -7.2621    5.8789 C   0  0  0  0  0  0  0  0  0  0  0  0
   21.4930   -7.6308   10.5203 C   0  0  0  0  0  0  0  0  0  0  0  0
   21.7862   -7.5977   12.0080 C   0  0  0  0  0  0  0  0  0  0  0  0
   22.5618   -8.4315    9.8016 C   0  0  0  0  0  0  0  0  0  0  0  0
   17.7686  -11.5052   14.3683 C   0  0  0  0  0  0  0  0  0  0  0  0
   17.0878  -10.6042   15.3423 C   0  0  0  0  0  0  0  0  0  0  0  0
   16.2493   -9.5829   14.8830 C   0  0  0  0  0  0  0  0  0  0  0  0
   15.6245   -8.7271   15.7947 C   0  0  0  0  0  0  0  0  0  0  0  0
   15.8355   -8.8897   17.1688 C   0  0  0  0  0  0  0  0  0  0  0  0
   16.6781   -9.9086   17.6271 C   0  0  0  0  0  0  0  0  0  0  0  0
   17.3046  -10.7637   16.7156 C   0  0  0  0  0  0  0  0  0  0  0  0
   15.0582   -7.8173   18.3190 S   0  0  0  0  0  0  0  0  0  0  0  0
   16.2267   -7.2465   19.4561 N   0  0  0  0  0  0  0  0  0  0  0  0
   14.4508   -6.6531   17.5891 O   0  0  0  0  0  0  0  0  0  0  0  0
   13.9777   -8.5558   19.0582 O   0  0  0  0  0  0  0  0  0  0  0  0
   16.9641   -6.7437   18.9624 H   0  0  0  0  0  0  0  0  0  0  0  0
   16.6308   -8.0390   19.9552 H   0  0  0  0  0  0  0  0  0  0  0  0
 14 15  1  0  0  0
 15 16  1  0  0  0
 15  5  1  0  0  0
  5  6  1  0  0  0
  6  7  2  0  0  0
  7  8  1  0  0  0
  8  9  2  0  0  0
  9 10  1  0  0  0
  9  1  1  0  0  0
 10 11  2  0  0  0
 11 12  1  0  0  0
 11 17  1  0  0  0
 12 13  2  0  0  0
 13  5  1  0  0  0
 13  8  1  0  0  0
 17 18  1  0  0  0
 17 19  1  0  0  0
  1  2  2  0  0  0
  1  3  1  0  0  0
  3 20  1  0  0  0
 20 21  1  0  0  0
 21 22  2  0  0  0
 22 23  1  0  0  0
 23 24  2  0  0  0
 24 25  1  0  0  0
 24 27  1  0  0  0
 25 26  2  0  0  0
 26 21  1  0  0  0
 27 28  1  0  0  0
 27 29  2  0  0  0
 27 30  2  0  0  0
  3  4  1  0  0  0
 28 31  1  0  0  0
 28 32  1  0  0  0
M  END
>  <minimizedAffinity>
5.89806

>  <minimizedRMSD>
1.91622

$$$$
225784432 CSSS03436933626 MCULE-9063764831 MolPort-035-826-627 PubChem-91632597 ZINC000225784432


 29 32  0  0  0  0  0  0  0  0999 V2000
   17.6750  -11.3077   15.3224 C   0  0  0  0  0  0  0  0  0  0  0  0
   17.8403  -12.3631   15.9945 O   0  0  0  0  0  0  0  0  0  0  0  0
   18.1941  -11.2403   13.9827 N   0  0  0  0  0  0  0  0  0  0  0  0
   18.5764  -12.4639   13.2901 C   0  0  0  0  0  0  0  0  0  0  0  0
   18.0536  -12.4368   11.8557 C   0  0  0  0  0  0  0  0  0  0  0  0
   18.1883  -11.0882   11.2011 C   0  0  0  0  0  0  0  0  0  0  0  0
   18.4526   -9.9226   11.9432 C   0  0  0  0  0  0  0  0  0  0  0  0
   18.6886   -9.9839   13.4284 C   0  0  0  0  0  0  0  0  0  0  0  0
   18.5336   -8.6989   11.2630 C   0  0  0  0  0  0  0  0  0  0  0  0
   18.7854   -7.6422   11.9094 O   0  0  0  0  0  0  0  0  0  0  0  0
   18.3382   -8.6526    9.9085 N   0  0  0  0  0  0  0  0  0  0  0  0
   18.4128   -7.4578    9.2486 C   0  0  0  0  0  0  0  0  0  0  0  0
   18.2139   -7.3891    7.8691 C   0  0  0  0  0  0  0  0  0  0  0  0
   17.9355   -8.5544    7.1587 C   0  0  0  0  0  0  0  0  0  0  0  0
   17.8600   -9.7722    7.8317 C   0  0  0  0  0  0  0  0  0  0  0  0
   18.0650   -9.8090    9.2134 C   0  0  0  0  0  0  0  0  0  0  0  0
   17.9912  -10.9976    9.8628 N   0  0  0  0  0  0  0  0  0  0  0  0
   18.2902   -6.1993    7.2265 F   0  0  0  0  0  0  0  0  0  0  0  0
   15.4921   -8.0784   17.1364 C   0  0  0  0  0  0  0  0  0  0  0  0
   16.4455   -8.7926   17.8681 C   0  0  0  0  0  0  0  0  0  0  0  0
   17.1572   -9.8379   17.2726 C   0  0  0  0  0  0  0  0  0  0  0  0
   16.9304  -10.1813   15.9318 C   0  0  0  0  0  0  0  0  0  0  0  0
   15.9651   -9.4709   15.2038 C   0  0  0  0  0  0  0  0  0  0  0  0
   15.2541   -8.4260   15.7991 C   0  0  0  0  0  0  0  0  0  0  0  0
   13.4714   -5.8427   19.5868 C   0  0  0  0  0  0  0  0  0  0  0  0
   14.1654   -7.0524   19.0746 C   0  0  0  0  0  0  0  0  0  0  0  0
   14.1984   -8.0920   19.7843 O   0  0  0  0  0  0  0  0  0  0  0  0
   14.7833   -7.0118   17.7820 N   0  0  0  0  0  0  0  0  0  0  0  0
   14.7139   -6.1642   17.2861 H   0  0  0  0  0  0  0  0  0  0  0  0
 25 26  1  0  0  0
 26 27  2  0  0  0
 26 28  1  0  0  0
 28 19  1  0  0  0
 19 20  2  0  0  0
 20 21  1  0  0  0
 21 22  2  0  0  0
 22 23  1  0  0  0
 23 24  2  0  0  0
 22  1  1  0  0  0
  1  2  2  0  0  0
  1  3  1  0  0  0
  3  4  1  0  0  0
  4  5  1  0  0  0
  5  6  1  0  0  0
  6  7  2  0  0  0
  7  8  1  0  0  0
  7  9  1  0  0  0
  9 10  2  0  0  0
  9 11  1  0  0  0
 11 12  1  0  0  0
 12 13  2  0  0  0
 13 14  1  0  0  0
 14 15  2  0  0  0
 15 16  1  0  0  0
 16 17  2  0  0  0
 13 18  1  0  0  0
 24 19  1  0  0  0
  8  3  1  0  0  0
 17  6  1  0  0  0
 16 11  1  0  0  0
 28 29  1  0  0  0
M  END
>  <minimizedAffinity>
5.89967

>  <minimizedRMSD>
2.10388

$$$$
CHEMBL1598296 CSSS00160407726 MCULE-5627466092 MolPort-002-737-614 PubChem-135413767


 31 35  0  0  0  0  0  0  0  0999 V2000
   18.1900   -7.7169    5.9400 C   0  0  0  0  0  0  0  0  0  0  0  0
   17.0913   -8.4354    6.4485 C   0  0  0  0  0  0  0  0  0  0  0  0
   17.1465   -8.8366    7.7808 C   0  0  0  0  0  0  0  0  0  0  0  0
   18.2277   -8.5486    8.5752 C   0  0  0  0  0  0  0  0  0  0  0  0
   19.3318   -7.8392    8.1046 C   0  0  0  0  0  0  0  0  0  0  0  0
   19.3013   -7.4211    6.7617 C   0  0  0  0  0  0  0  0  0  0  0  0
   17.9954   -9.0565    9.7932 N   0  0  0  0  0  0  0  0  0  0  0  0
   18.7247   -9.0703   10.9375 C   0  0  0  0  0  0  0  0  0  0  0  0
   20.0475   -8.5290   10.9643 N   0  0  0  0  0  0  0  0  0  0  0  0
   20.7863   -8.4700   12.1797 C   0  0  0  0  0  0  0  0  0  0  0  0
   21.9973   -8.1302   12.1639 O   0  0  0  0  0  0  0  0  0  0  0  0
   20.0975   -8.7162   13.4785 C   0  0  0  0  0  0  0  0  0  0  0  0
   18.9872   -9.7726   13.3712 C   0  0  0  0  0  0  0  0  0  0  0  0
   18.1704   -9.6959   12.0792 C   0  0  0  0  0  0  0  0  0  0  0  0
   16.9129  -10.3528   11.9247 C   0  0  0  0  0  0  0  0  0  0  0  0
   16.4076  -11.0095   12.8729 O   0  0  0  0  0  0  0  0  0  0  0  0
   16.2396  -10.2952   10.7394 N   0  0  0  0  0  0  0  0  0  0  0  0
   16.7850   -9.6370    9.6915 C   0  0  0  0  0  0  0  0  0  0  0  0
   16.2118   -9.5331    8.4659 N   0  0  0  0  0  0  0  0  0  0  0  0
   20.4524   -8.1930   10.1322 H   0  0  0  0  0  0  0  0  0  0  0  0
   15.3614  -10.7305   10.6474 H   0  0  0  0  0  0  0  0  0  0  0  0
   18.1536   -9.7058   14.6177 C   0  0  0  0  0  0  0  0  0  0  0  0
   18.2944  -10.7004   15.5903 C   0  0  0  0  0  0  0  0  0  0  0  0
   17.5254  -10.6561   16.7556 C   0  0  0  0  0  0  0  0  0  0  0  0
   16.6116   -9.6173   16.9566 C   0  0  0  0  0  0  0  0  0  0  0  0
   15.8536   -9.5879   18.1205 O   0  0  0  0  0  0  0  0  0  0  0  0
   16.4621   -8.6124   15.9900 C   0  0  0  0  0  0  0  0  0  0  0  0
   17.2387   -8.6623   14.8211 C   0  0  0  0  0  0  0  0  0  0  0  0
   15.9566  -10.2614   18.7638 H   0  0  0  0  0  0  0  0  0  0  0  0
   15.5429   -7.5809   16.2088 O   0  0  0  0  0  0  0  0  0  0  0  0
   14.6581   -7.5633   17.3208 C   0  0  0  0  0  0  0  0  0  0  0  0
  1  2  2  0  0  0
  2  3  1  0  0  0
  3  4  2  0  0  0
  4  5  1  0  0  0
  5  6  2  0  0  0
  4  7  1  0  0  0
  7  8  1  0  0  0
  8  9  1  0  0  0
  9 10  1  0  0  0
 10 11  2  0  0  0
 10 12  1  0  0  0
 12 13  1  0  0  0
 13 22  1  0  0  0
 22 23  2  0  0  0
 23 24  1  0  0  0
 24 25  2  0  0  0
 25 26  1  0  0  0
 25 27  1  0  0  0
 27 30  1  0  0  0
 30 31  1  0  0  0
 27 28  2  0  0  0
 13 14  1  0  0  0
 14 15  1  0  0  0
 15 16  2  0  0  0
 15 17  1  0  0  0
 17 18  1  0  0  0
 18 19  2  0  0  0
  6  1  1  0  0  0
 18  7  1  0  0  0
 19  3  1  0  0  0
 14  8  2  0  0  0
 28 22  1  0  0  0
  9 20  1  0  0  0
 26 29  1  0  0  0
 17 21  1  0  0  0
M  END
>  <minimizedAffinity>
5.93183

>  <minimizedRMSD>
0.67900

$$$$
CSC027845604 CSSS00027845604 MCULE-7806769631 MolPort-023-134-405 PubChem-72159164 Z199920762


 32 34  0  0  0  0  0  0  0  0999 V2000
   16.3721   -9.2510   11.2117 N   0  0  0  0  0  0  0  0  0  0  0  0
   15.7278   -9.5763   12.4478 C   0  0  0  0  0  0  0  0  0  0  0  0
   14.5458  -10.0177   12.4457 O   0  0  0  0  0  0  0  0  0  0  0  0
   17.3101   -8.9530   11.2353 H   0  0  0  0  0  0  0  0  0  0  0  0
   16.4454   -9.3961   13.7211 C   0  0  0  0  0  0  0  0  0  0  0  0
   15.7656   -8.9560   14.8619 C   0  0  0  0  0  0  0  0  0  0  0  0
   16.4373   -8.7781   16.0762 C   0  0  0  0  0  0  0  0  0  0  0  0
   17.8209   -9.0460   16.1536 C   0  0  0  0  0  0  0  0  0  0  0  0
   18.5621   -8.8631   17.4419 C   0  0  0  0  0  0  0  0  0  0  0  0
   18.5060   -9.4887   15.0048 C   0  0  0  0  0  0  0  0  0  0  0  0
   19.9678   -9.7854   15.0316 C   0  0  0  0  0  0  0  0  0  0  0  0
   17.8166   -9.6596   13.8024 C   0  0  0  0  0  0  0  0  0  0  0  0
   15.5172   -8.2217   17.4743 S   0  0  0  0  0  0  0  0  0  0  0  0
   15.4632   -9.4693   18.6679 N   0  0  0  0  0  0  0  0  0  0  0  0
   16.1658   -6.9949   18.0508 O   0  0  0  0  0  0  0  0  0  0  0  0
   14.1126   -7.8825   17.0600 O   0  0  0  0  0  0  0  0  0  0  0  0
   16.4128   -9.7061   18.9554 H   0  0  0  0  0  0  0  0  0  0  0  0
   15.0106  -10.2952   18.2763 H   0  0  0  0  0  0  0  0  0  0  0  0
   15.7028   -9.3408    9.9193 C   0  0  0  0  0  0  0  0  0  0  0  0
   16.5874   -8.7999    8.8379 C   0  0  0  0  0  0  0  0  0  0  0  0
   17.8895   -8.4947    8.9687 N   0  0  0  0  0  0  0  0  0  0  0  0
   18.2358   -8.0405    7.7583 C   0  0  0  0  0  0  0  0  0  0  0  0
   19.5331   -7.6126    7.4920 C   0  0  0  0  0  0  0  0  0  0  0  0
   20.4573   -7.6788    8.5493 C   0  0  0  0  0  0  0  0  0  0  0  0
   20.0676   -8.1595    9.8162 C   0  0  0  0  0  0  0  0  0  0  0  0
   18.7433   -8.5758   10.0198 C   0  0  0  0  0  0  0  0  0  0  0  0
   17.1997   -8.0574    6.9004 N   0  0  0  0  0  0  0  0  0  0  0  0
   16.1615   -8.5352    7.5824 N   0  0  0  0  0  0  0  0  0  0  0  0
   15.3486  -10.7873    9.6187 C   0  0  0  0  0  0  0  0  0  0  0  0
   16.6021  -11.6393    9.5830 C   0  0  0  0  0  0  0  0  0  0  0  0
   18.4054  -11.6774   11.4689 C   0  0  0  0  0  0  0  0  0  0  0  0
   16.8051  -12.4789   11.1769 S   0  0  0  0  0  0  0  0  0  0  0  0
 31 32  1  0  0  0
 32 30  1  0  0  0
 30 29  1  0  0  0
 29 19  1  0  0  0
 19 20  1  0  0  0
 20 21  1  0  0  0
 21 22  1  0  0  0
 22 23  1  0  0  0
 23 24  2  0  0  0
 24 25  1  0  0  0
 25 26  2  0  0  0
 22 27  2  0  0  0
 27 28  1  0  0  0
 19  1  1  0  0  0
  1  2  1  0  0  0
  2  5  1  0  0  0
  5  6  2  0  0  0
  6  7  1  0  0  0
  7 13  1  0  0  0
 13 14  1  0  0  0
 13 15  2  0  0  0
 13 16  2  0  0  0
  7  8  2  0  0  0
  8  9  1  0  0  0
  8 10  1  0  0  0
 10 11  1  0  0  0
 10 12  2  0  0  0
  2  3  2  0  0  0
 28 20  2  0  0  0
 12  5  1  0  0  0
 26 21  1  0  0  0
  1  4  1  0  0  0
 14 17  1  0  0  0
 14 18  1  0  0  0
M  END
>  <minimizedAffinity>
6.04515

>  <minimizedRMSD>
1.78476

$$$$
CSC027344520 CSSS00027344520 MCULE-9174770935 MolPort-020-088-837 PubChem-53622896 Z1165356454


 32 35  0  0  0  0  0  0  0  0999 V2000
   17.8286   -8.7065   10.3514 N   0  0  0  0  0  0  0  0  0  0  0  0
   17.7913   -7.8089   11.5029 C   0  0  0  0  0  0  0  0  0  0  0  0
   16.5770   -8.1263   12.3726 C   0  0  0  0  0  0  0  0  0  0  0  0
   16.4992   -9.6181   12.7163 C   0  0  0  0  0  0  0  0  0  0  0  0
   16.6232  -10.5156   11.4765 C   0  0  0  0  0  0  0  0  0  0  0  0
   17.8346  -10.1422   10.6254 C   0  0  0  0  0  0  0  0  0  0  0  0
   17.3953  -10.0272   13.8974 C   0  0  0  0  0  0  0  0  0  0  0  0
   18.1654  -11.3292   13.6424 C   0  0  0  0  0  0  0  0  0  0  0  0
   19.1127  -11.6514   14.7862 C   0  0  0  0  0  0  0  0  0  0  0  0
   18.4210  -12.5542   15.7973 C   0  0  0  0  0  0  0  0  0  0  0  0
   17.4200  -11.7901   16.6536 C   0  0  0  0  0  0  0  0  0  0  0  0
   16.2542  -11.2730   15.8222 C   0  0  0  0  0  0  0  0  0  0  0  0
   16.6272  -10.0275   15.1532 N   0  0  0  0  0  0  0  0  0  0  0  0
   16.1973   -8.7797   15.7228 C   0  0  0  0  0  0  0  0  0  0  0  0
   16.5442   -7.6889   15.1915 O   0  0  0  0  0  0  0  0  0  0  0  0
   15.3835   -8.7702   16.9010 N   0  0  0  0  0  0  0  0  0  0  0  0
   15.1450   -9.6305   17.3160 H   0  0  0  0  0  0  0  0  0  0  0  0
   14.8939   -7.5431   17.5108 C   0  0  0  0  0  0  0  0  0  0  0  0
   15.2523   -7.5367   18.9815 C   0  0  0  0  0  0  0  0  0  0  0  0
   13.3864   -7.4588   17.3659 C   0  0  0  0  0  0  0  0  0  0  0  0
   18.4069   -8.5914    6.6405 C   0  0  0  0  0  0  0  0  0  0  0  0
   18.5492   -7.2468    6.4481 N   0  0  0  0  0  0  0  0  0  0  0  0
   18.4493   -6.4217    7.5174 C   0  0  0  0  0  0  0  0  0  0  0  0
   18.5401   -5.0830    7.4829 N   0  0  0  0  0  0  0  0  0  0  0  0
   18.3468   -4.7639    8.7909 C   0  0  0  0  0  0  0  0  0  0  0  0
   18.1493   -5.8595    9.5661 N   0  0  0  0  0  0  0  0  0  0  0  0
   18.2225   -6.8884    8.7451 N   0  0  0  0  0  0  0  0  0  0  0  0
   18.0787   -8.2162    9.0183 C   0  0  0  0  0  0  0  0  0  0  0  0
   18.1708   -9.1043    7.9303 C   0  0  0  0  0  0  0  0  0  0  0  0
   18.5230   -9.5338    5.4884 C   0  0  0  0  0  0  0  0  0  0  0  0
   20.0101   -8.7589    3.6380 C   0  0  0  0  0  0  0  0  0  0  0  0
   18.5881   -8.7861    4.1655 C   0  0  0  0  0  0  0  0  0  0  0  0
 31 32  1  0  0  0
 32 30  1  0  0  0
 30 21  1  0  0  0
 21 22  2  0  0  0
 22 23  1  0  0  0
 23 24  2  0  0  0
 24 25  1  0  0  0
 25 26  2  0  0  0
 26 27  1  0  0  0
 27 28  1  0  0  0
 27 23  1  0  0  0
 28 29  2  0  0  0
 28  1  1  0  0  0
 29 21  1  0  0  0
  1  2  1  0  0  0
  2  3  1  0  0  0
  3  4  1  0  0  0
  4  5  1  0  0  0
  5  6  1  0  0  0
  6  1  1  0  0  0
  7  4  1  0  0  0
  7  8  1  0  0  0
  8  9  1  0  0  0
  9 10  1  0  0  0
 10 11  1  0  0  0
 11 12  1  0  0  0
 12 13  1  0  0  0
 13 14  1  0  0  0
 13  7  1  0  0  0
 14 15  2  0  0  0
 14 16  1  0  0  0
 16 18  1  0  0  0
 18 19  1  0  0  0
 18 20  1  0  0  0
 16 17  1  0  0  0
M  END
>  <minimizedAffinity>
6.15819

>  <minimizedRMSD>
2.61055

$$$$
11841291 CSSS00159439468 MCULE-8848408707 MolPort-004-997-996 PubChem-42213181 ZINC000011841291 ZINC11841291


 36 40  0  0  0  0  0  0  0  0999 V2000
   16.8862   -8.7732   11.4589 C   0  0  0  0  0  0  0  0  0  0  0  0
   17.4035   -7.6266   11.3604 O   0  0  0  0  0  0  0  0  0  0  0  0
   16.3075   -9.1807   12.7141 N   0  0  0  0  0  0  0  0  0  0  0  0
   16.1599   -8.2077   13.7922 C   0  0  0  0  0  0  0  0  0  0  0  0
   17.4074   -8.1980   14.6671 C   0  0  0  0  0  0  0  0  0  0  0  0
   17.4595   -9.3963   15.4980 N   0  0  0  0  0  0  0  0  0  0  0  0
   17.5370   -9.4710   16.8377 C   0  0  0  0  0  0  0  0  0  0  0  0
   17.5805  -10.7509   17.2570 N   0  0  0  0  0  0  0  0  0  0  0  0
   17.5307  -11.5147   16.1735 N   0  0  0  0  0  0  0  0  0  0  0  0
   17.4582  -10.6869   15.1137 C   0  0  0  0  0  0  0  0  0  0  0  0
   17.3650  -11.1590   13.6990 C   0  0  0  0  0  0  0  0  0  0  0  0
   16.1186  -10.5941   13.0307 C   0  0  0  0  0  0  0  0  0  0  0  0
   18.5014   -7.6531    7.5715 C   0  0  0  0  0  0  0  0  0  0  0  0
   17.9969   -8.0153    8.8237 C   0  0  0  0  0  0  0  0  0  0  0  0
   17.3785   -9.2614    9.0129 C   0  0  0  0  0  0  0  0  0  0  0  0
   16.8635   -9.6604   10.2676 C   0  0  0  0  0  0  0  0  0  0  0  0
   16.2763  -10.9269   10.3811 C   0  0  0  0  0  0  0  0  0  0  0  0
   16.2117  -11.7746    9.2757 C   0  0  0  0  0  0  0  0  0  0  0  0
   15.5893  -13.1172    9.4081 C   0  0  0  0  0  0  0  0  0  0  0  0
   16.7139  -11.3757    8.0788 N   0  0  0  0  0  0  0  0  0  0  0  0
   17.2898  -10.1560    7.9186 C   0  0  0  0  0  0  0  0  0  0  0  0
   17.8021   -9.7918    6.6704 C   0  0  0  0  0  0  0  0  0  0  0  0
   18.4070   -8.5450    6.4970 C   0  0  0  0  0  0  0  0  0  0  0  0
   19.7758   -6.2110    6.0169 C   0  0  0  0  0  0  0  0  0  0  0  0
   19.1653   -6.3292    7.4014 C   0  0  0  0  0  0  0  0  0  0  0  0
   17.5590   -8.2932   17.7564 C   0  0  0  0  0  0  0  0  0  0  0  0
   16.2877   -8.1764   18.4568 N   0  0  0  0  0  0  0  0  0  0  0  0
   15.0890   -7.7188   17.8219 C   0  0  0  0  0  0  0  0  0  0  0  0
   15.1162   -7.3463   16.6170 O   0  0  0  0  0  0  0  0  0  0  0  0
   16.2509   -8.4231   19.4092 H   0  0  0  0  0  0  0  0  0  0  0  0
   13.8242   -7.6790   18.5764 C   0  0  0  0  0  0  0  0  0  0  0  0
   12.6028   -7.5116   17.9066 C   0  0  0  0  0  0  0  0  0  0  0  0
   11.4029   -7.4754   18.6231 C   0  0  0  0  0  0  0  0  0  0  0  0
   11.4155   -7.6067   20.0143 C   0  0  0  0  0  0  0  0  0  0  0  0
   12.6277   -7.7741   20.6892 C   0  0  0  0  0  0  0  0  0  0  0  0
   13.8276   -7.8104   19.9727 C   0  0  0  0  0  0  0  0  0  0  0  0
 24 25  1  0  0  0
 25 13  1  0  0  0
 13 14  2  0  0  0
 14 15  1  0  0  0
 15 16  2  0  0  0
 16 17  1  0  0  0
 16  1  1  0  0  0
 17 18  2  0  0  0
 18 19  1  0  0  0
 18 20  1  0  0  0
 20 21  2  0  0  0
 21 22  1  0  0  0
 21 15  1  0  0  0
 22 23  2  0  0  0
 23 13  1  0  0  0
  1  2  2  0  0  0
  1  3  1  0  0  0
  3  4  1  0  0  0
  4  5  1  0  0  0
  5  6  1  0  0  0
  6  7  1  0  0  0
  7 26  1  0  0  0
  7  8  2  0  0  0
 26 27  1  0  0  0
 27 28  1  0  0  0
 28 29  2  0  0  0
 28 31  1  0  0  0
 31 32  2  0  0  0
 32 33  1  0  0  0
 33 34  2  0  0  0
 34 35  1  0  0  0
 35 36  2  0  0  0
 36 31  1  0  0  0
  8  9  1  0  0  0
  9 10  2  0  0  0
 10 11  1  0  0  0
 10  6  1  0  0  0
 11 12  1  0  0  0
 12  3  1  0  0  0
 27 30  1  0  0  0
M  END
>  <minimizedAffinity>
6.44807

>  <minimizedRMSD>
1.23810

$$$$
14746935 CSSS00159530463 MCULE-2605463634 MolPort-004-988-658 PubChem-26226650 ZINC000014746935 ZINC14746935


 36 40  0  0  0  0  0  0  0  0999 V2000
   17.4819  -11.2331   16.2607 N   0  0  0  0  0  0  0  0  0  0  0  0
   16.7762  -10.5571   17.1570 N   0  0  0  0  0  0  0  0  0  0  0  0
   16.4163   -9.3807   16.5948 C   0  0  0  0  0  0  0  0  0  0  0  0
   16.9020   -9.3321   15.2994 C   0  0  0  0  0  0  0  0  0  0  0  0
   17.5838  -10.5088   15.1309 C   0  0  0  0  0  0  0  0  0  0  0  0
   18.1900  -10.9366   13.8297 C   0  0  0  0  0  0  0  0  0  0  0  0
   18.4301   -9.7039   12.9461 C   0  0  0  0  0  0  0  0  0  0  0  0
   17.2571   -8.8179   12.9638 N   0  0  0  0  0  0  0  0  0  0  0  0
   16.7993   -8.2726   14.2482 C   0  0  0  0  0  0  0  0  0  0  0  0
   16.6418   -8.3737   11.7419 C   0  0  0  0  0  0  0  0  0  0  0  0
   15.9326   -7.3308   11.7527 O   0  0  0  0  0  0  0  0  0  0  0  0
   16.7902   -9.1363   10.4758 C   0  0  0  0  0  0  0  0  0  0  0  0
   17.5945   -8.6852    9.4039 C   0  0  0  0  0  0  0  0  0  0  0  0
   18.3561   -7.5078    9.4861 C   0  0  0  0  0  0  0  0  0  0  0  0
   19.1462   -7.0971    8.4089 C   0  0  0  0  0  0  0  0  0  0  0  0
   19.1857   -7.8589    7.2380 C   0  0  0  0  0  0  0  0  0  0  0  0
   19.9497   -7.4560    6.1943 F   0  0  0  0  0  0  0  0  0  0  0  0
   18.4423   -9.0379    7.1442 C   0  0  0  0  0  0  0  0  0  0  0  0
   17.6513   -9.4572    8.2173 C   0  0  0  0  0  0  0  0  0  0  0  0
   16.9397  -10.6101    8.1170 N   0  0  0  0  0  0  0  0  0  0  0  0
   16.1598  -11.0564    9.1351 C   0  0  0  0  0  0  0  0  0  0  0  0
   15.3965  -12.3228    8.9847 C   0  0  0  0  0  0  0  0  0  0  0  0
   16.0712  -10.3285   10.3209 C   0  0  0  0  0  0  0  0  0  0  0  0
   15.6181   -8.3568   17.2825 C   0  0  0  0  0  0  0  0  0  0  0  0
   14.9031   -7.5574   16.6188 O   0  0  0  0  0  0  0  0  0  0  0  0
   15.6508   -8.2776   18.7099 N   0  0  0  0  0  0  0  0  0  0  0  0
   16.1965   -8.9288   19.2073 H   0  0  0  0  0  0  0  0  0  0  0  0
   14.9092   -7.2721   19.4561 C   0  0  0  0  0  0  0  0  0  0  0  0
   13.4791   -7.7328   19.6479 C   0  0  0  0  0  0  0  0  0  0  0  0
   13.1024   -7.3062   21.0465 C   0  0  0  0  0  0  0  0  0  0  0  0
   14.3884   -7.3703   21.8377 C   0  0  0  0  0  0  0  0  0  0  0  0
   15.5034   -7.1004   20.8455 C   0  0  0  0  0  0  0  0  0  0  0  0
   18.0034  -12.5742   16.4905 C   0  0  0  0  0  0  0  0  0  0  0  0
   19.0503  -11.8454   18.6289 C   0  0  0  0  0  0  0  0  0  0  0  0
   19.2928  -12.5230   17.2945 C   0  0  0  0  0  0  0  0  0  0  0  0
   19.7902  -13.9324   17.5346 C   0  0  0  0  0  0  0  0  0  0  0  0
 34 35  1  0  0  0
 35 36  1  0  0  0
 35 33  1  0  0  0
 33  1  1  0  0  0
  1  2  1  0  0  0
  2  3  2  0  0  0
  3 24  1  0  0  0
  3  4  1  0  0  0
 24 25  2  0  0  0
 24 26  1  0  0  0
 26 28  1  0  0  0
 28 29  1  0  0  0
 29 30  1  0  0  0
 30 31  1  0  0  0
 31 32  1  0  0  0
 32 28  1  0  0  0
  4  5  2  0  0  0
  5  6  1  0  0  0
  5  1  1  0  0  0
  6  7  1  0  0  0
  7  8  1  0  0  0
  8  9  1  0  0  0
  8 10  1  0  0  0
  9  4  1  0  0  0
 10 11  2  0  0  0
 10 12  1  0  0  0
 12 13  1  0  0  0
 13 14  2  0  0  0
 14 15  1  0  0  0
 15 16  2  0  0  0
 16 17  1  0  0  0
 16 18  1  0  0  0
 18 19  2  0  0  0
 19 20  1  0  0  0
 19 13  1  0  0  0
 20 21  2  0  0  0
 21 22  1  0  0  0
 21 23  1  0  0  0
 23 12  2  0  0  0
 26 27  1  0  0  0
M  END
>  <minimizedAffinity>
6.46496

>  <minimizedRMSD>
1.15252

$$$$
CSC028248136 25935042 CSSS00028248136 MCULE-1611836105 MolPort-009-636-076 PubChem-33201881 Z368813352 ZINC000025935042


 31 34  0  0  0  0  0  0  0  0999 V2000
   15.4637   -8.0404   13.7735 N   0  0  0  0  0  0  0  0  0  0  0  0
   15.3552   -7.1415   12.6146 C   0  0  0  0  0  0  0  0  0  0  0  0
   16.6016   -7.1838   11.7271 C   0  0  0  0  0  0  0  0  0  0  0  0
   16.8871   -8.5675   11.3726 N   0  0  0  0  0  0  0  0  0  0  0  0
   17.0093   -9.5122   12.4740 C   0  0  0  0  0  0  0  0  0  0  0  0
   15.7616   -9.4212   13.3574 C   0  0  0  0  0  0  0  0  0  0  0  0
   17.0121   -9.0166   10.0098 C   0  0  0  0  0  0  0  0  0  0  0  0
   17.8896   -8.4312    9.0909 C   0  0  0  0  0  0  0  0  0  0  0  0
   18.7998   -7.3868    9.1503 C   0  0  0  0  0  0  0  0  0  0  0  0
   19.3714   -7.2771    7.9207 N   0  0  0  0  0  0  0  0  0  0  0  0
   18.8523   -8.2020    7.1231 N   0  0  0  0  0  0  0  0  0  0  0  0
   19.2215   -8.3887    5.7310 C   0  0  0  0  0  0  0  0  0  0  0  0
   17.9553   -8.9052    7.8208 C   0  0  0  0  0  0  0  0  0  0  0  0
   17.1992   -9.9398    7.3832 N   0  0  0  0  0  0  0  0  0  0  0  0
   16.3382  -10.5207    8.2699 C   0  0  0  0  0  0  0  0  0  0  0  0
   16.2512  -10.0622    9.5591 N   0  0  0  0  0  0  0  0  0  0  0  0
   16.4904   -7.5477   14.6896 C   0  0  0  0  0  0  0  0  0  0  0  0
   16.3563   -8.2130   16.0208 C   0  0  0  0  0  0  0  0  0  0  0  0
   15.9276   -7.5386   16.9947 O   0  0  0  0  0  0  0  0  0  0  0  0
   17.7116  -11.6119   16.2457 C   0  0  0  0  0  0  0  0  0  0  0  0
   16.4542  -11.6921   16.8249 C   0  0  0  0  0  0  0  0  0  0  0  0
   15.8279  -12.9134   17.4047 C   0  0  0  0  0  0  0  0  0  0  0  0
   15.8331  -10.4971   16.8111 N   0  0  0  0  0  0  0  0  0  0  0  0
   16.6877   -9.6380   16.2179 C   0  0  0  0  0  0  0  0  0  0  0  0
   17.8602  -10.2916   15.8570 C   0  0  0  0  0  0  0  0  0  0  0  0
   19.0676   -9.6897   15.2180 C   0  0  0  0  0  0  0  0  0  0  0  0
   14.9368  -10.2919   17.1629 H   0  0  0  0  0  0  0  0  0  0  0  0
   18.6939  -12.7048   16.0830 C   0  0  0  0  0  0  0  0  0  0  0  0
   19.3924  -13.0771   17.0651 O   0  0  0  0  0  0  0  0  0  0  0  0
   18.4795  -12.6826   13.6301 C   0  0  0  0  0  0  0  0  0  0  0  0
   18.8466  -13.3252   14.8415 O   0  0  0  0  0  0  0  0  0  0  0  0
 30 31  1  0  0  0
 31 28  1  0  0  0
 28 29  2  0  0  0
 28 20  1  0  0  0
 20 21  2  0  0  0
 21 22  1  0  0  0
 21 23  1  0  0  0
 23 24  1  0  0  0
 24 18  1  0  0  0
 24 25  2  0  0  0
 18 19  2  0  0  0
 18 17  1  0  0  0
 17  1  1  0  0  0
  1  2  1  0  0  0
  2  3  1  0  0  0
  3  4  1  0  0  0
  4  5  1  0  0  0
  4  7  1  0  0  0
  5  6  1  0  0  0
  6  1  1  0  0  0
  7  8  2  0  0  0
  8  9  1  0  0  0
  9 10  2  0  0  0
 10 11  1  0  0  0
 11 12  1  0  0  0
 11 13  1  0  0  0
 13 14  2  0  0  0
 13  8  1  0  0  0
 14 15  1  0  0  0
 15 16  2  0  0  0
 16  7  1  0  0  0
 25 26  1  0  0  0
 25 20  1  0  0  0
 23 27  1  0  0  0
M  END
>  <minimizedAffinity>
6.47503

>  <minimizedRMSD>
1.86064

$$$$
CSC026600617 59849834 CSSS00026600617 MCULE-3497181987 MolPort-010-382-980 PubChem-52710836 Z748403292 ZINC000059849834


 32 35  0  0  0  0  0  0  0  0999 V2000
   16.4034   -9.2194   16.7120 N   0  0  0  0  0  0  0  0  0  0  0  0
   15.7526   -8.9768   15.4299 C   0  0  0  0  0  0  0  0  0  0  0  0
   16.7194   -8.3338   14.4374 C   0  0  0  0  0  0  0  0  0  0  0  0
   17.8983   -9.1744   14.2403 N   0  0  0  0  0  0  0  0  0  0  0  0
   18.0710   -9.9539   13.0442 C   0  0  0  0  0  0  0  0  0  0  0  0
   18.9355  -10.8712   13.0132 O   0  0  0  0  0  0  0  0  0  0  0  0
   18.8687   -9.2558   15.3277 C   0  0  0  0  0  0  0  0  0  0  0  0
   18.5367  -10.3980   16.2919 C   0  0  0  0  0  0  0  0  0  0  0  0
   17.0445  -10.5265   16.6134 C   0  0  0  0  0  0  0  0  0  0  0  0
   17.2194   -9.7430   11.8620 C   0  0  0  0  0  0  0  0  0  0  0  0
   17.7074   -9.2712   10.6388 C   0  0  0  0  0  0  0  0  0  0  0  0
   16.8728   -9.0729    9.5806 C   0  0  0  0  0  0  0  0  0  0  0  0
   17.5488   -8.6562    8.5409 O   0  0  0  0  0  0  0  0  0  0  0  0
   18.8182   -8.5752    8.8414 N   0  0  0  0  0  0  0  0  0  0  0  0
   18.9549   -8.9538   10.1350 C   0  0  0  0  0  0  0  0  0  0  0  0
   20.2681   -9.0649   10.8272 C   0  0  0  0  0  0  0  0  0  0  0  0
   15.5418   -9.3175    9.6426 N   0  0  0  0  0  0  0  0  0  0  0  0
   15.0021   -9.7923   10.8094 C   0  0  0  0  0  0  0  0  0  0  0  0
   15.8405  -10.0151   11.9325 C   0  0  0  0  0  0  0  0  0  0  0  0
   13.5519  -10.0696   10.8888 C   0  0  0  0  0  0  0  0  0  0  0  0
   13.0626  -11.1330   11.6655 C   0  0  0  0  0  0  0  0  0  0  0  0
   11.6899  -11.3877   11.7352 C   0  0  0  0  0  0  0  0  0  0  0  0
   10.7931  -10.5822   11.0291 C   0  0  0  0  0  0  0  0  0  0  0  0
   11.2686   -9.5218   10.2536 C   0  0  0  0  0  0  0  0  0  0  0  0
   12.6413   -9.2670   10.1840 C   0  0  0  0  0  0  0  0  0  0  0  0
   15.3416   -9.3442   17.6964 C   0  0  0  0  0  0  0  0  0  0  0  0
   15.5826   -7.9663   19.7950 N   0  0  0  0  0  0  0  0  0  0  0  0
   15.1764   -8.0583   18.4294 C   0  0  0  0  0  0  0  0  0  0  0  0
   14.7095   -7.0537   17.8292 O   0  0  0  0  0  0  0  0  0  0  0  0
   15.9542   -8.7635   20.2373 H   0  0  0  0  0  0  0  0  0  0  0  0
   14.2271   -6.7890   21.4228 C   0  0  0  0  0  0  0  0  0  0  0  0
   15.4643   -6.7314   20.5516 C   0  0  0  0  0  0  0  0  0  0  0  0
 31 32  1  0  0  0
 32 27  1  0  0  0
 27 28  1  0  0  0
 28 26  1  0  0  0
 26  1  1  0  0  0
  1  2  1  0  0  0
  2  3  1  0  0  0
  3  4  1  0  0  0
  4  5  1  0  0  0
  5 10  1  0  0  0
 10 11  1  0  0  0
 11 12  2  0  0  0
 12 13  1  0  0  0
 13 14  1  0  0  0
 14 15  2  0  0  0
 15 16  1  0  0  0
 12 17  1  0  0  0
 17 18  2  0  0  0
 18 20  1  0  0  0
 20 21  2  0  0  0
 21 22  1  0  0  0
 22 23  2  0  0  0
 23 24  1  0  0  0
 24 25  2  0  0  0
 18 19  1  0  0  0
  5  6  2  0  0  0
  4  7  1  0  0  0
  7  8  1  0  0  0
  8  9  1  0  0  0
 28 29  2  0  0  0
  9  1  1  0  0  0
 19 10  2  0  0  0
 15 11  1  0  0  0
 25 20  1  0  0  0
 27 30  1  0  0  0
M  END
>  <minimizedAffinity>
6.51903

>  <minimizedRMSD>
2.62042

$$$$
CSSS20521997184


 35 38  0  0  0  0  0  0  0  0999 V2000
   17.3340  -10.1782   13.8443 N   0  0  0  0  0  0  0  0  0  0  0  0
   18.3028  -10.6097   14.6712 C   0  0  0  0  0  0  0  0  0  0  0  0
   19.4270  -10.9154   13.9994 N   0  0  0  0  0  0  0  0  0  0  0  0
   19.1869  -10.6681   12.7197 N   0  0  0  0  0  0  0  0  0  0  0  0
   17.9194  -10.2128   12.6262 C   0  0  0  0  0  0  0  0  0  0  0  0
   17.2685   -9.8340   11.3421 C   0  0  0  0  0  0  0  0  0  0  0  0
   17.9659   -9.2010   10.2866 C   0  0  0  0  0  0  0  0  0  0  0  0
   19.3197   -8.8428   10.3920 C   0  0  0  0  0  0  0  0  0  0  0  0
   19.9741   -8.2109    9.3316 C   0  0  0  0  0  0  0  0  0  0  0  0
   19.2824   -7.9249    8.1528 C   0  0  0  0  0  0  0  0  0  0  0  0
   17.9338   -8.2670    8.0326 C   0  0  0  0  0  0  0  0  0  0  0  0
   17.2720   -8.8986    9.0894 C   0  0  0  0  0  0  0  0  0  0  0  0
   15.9575   -9.2138    8.9628 N   0  0  0  0  0  0  0  0  0  0  0  0
   15.2611   -9.8216    9.9612 C   0  0  0  0  0  0  0  0  0  0  0  0
   15.9147  -10.1379   11.1581 C   0  0  0  0  0  0  0  0  0  0  0  0
   13.8294  -10.1412    9.7756 C   0  0  0  0  0  0  0  0  0  0  0  0
   12.8887   -9.8457   10.7765 C   0  0  0  0  0  0  0  0  0  0  0  0
   11.5370  -10.1503   10.5921 C   0  0  0  0  0  0  0  0  0  0  0  0
   11.1124  -10.7530    9.4053 C   0  0  0  0  0  0  0  0  0  0  0  0
   12.0391  -11.0511    8.4032 C   0  0  0  0  0  0  0  0  0  0  0  0
   13.3909  -10.7465    8.5876 C   0  0  0  0  0  0  0  0  0  0  0  0
   15.9007   -8.2056   13.8585 C   0  0  0  0  0  0  0  0  0  0  0  0
   16.0189   -9.6738   14.2218 C   0  0  0  0  0  0  0  0  0  0  0  0
   18.1393  -10.7528   16.4499 S   0  0  0  0  0  0  0  0  0  0  0  0
   17.7246   -8.9923   16.6402 C   0  0  0  0  0  0  0  0  0  0  0  0
   18.7986   -8.2866   17.4473 C   0  0  0  0  0  0  0  0  0  0  0  0
   16.3945   -8.8414   17.2981 C   0  0  0  0  0  0  0  0  0  0  0  0
   15.4391   -9.5762   16.9317 O   0  0  0  0  0  0  0  0  0  0  0  0
   16.2090   -7.8767   18.3365 N   0  0  0  0  0  0  0  0  0  0  0  0
   16.9698   -7.3126   18.6055 H   0  0  0  0  0  0  0  0  0  0  0  0
   14.9312   -7.7034   19.0071 C   0  0  0  0  0  0  0  0  0  0  0  0
   15.1577   -7.4631   20.4567 C   0  0  0  0  0  0  0  0  0  0  0  0
   14.2089   -7.8709   21.3845 O   0  0  0  0  0  0  0  0  0  0  0  0
   16.2251   -6.9225   20.8458 O   0  0  0  0  0  0  0  0  0  0  0  0
   13.4137   -8.2736   21.0954 H   0  0  0  0  0  0  0  0  0  0  0  0
 22 23  1  0  0  0
 23  1  1  0  0  0
  1  2  1  0  0  0
  2 24  1  0  0  0
 24 25  1  0  0  0
 25 26  1  0  0  0
 25 27  1  0  0  0
 27 28  2  0  0  0
 27 29  1  0  0  0
 29 31  1  0  0  0
 31 32  1  0  0  0
 32 33  1  0  0  0
 32 34  2  0  0  0
  2  3  2  0  0  0
  3  4  1  0  0  0
  4  5  2  0  0  0
  5  6  1  0  0  0
  6  7  1  0  0  0
  7  8  2  0  0  0
  8  9  1  0  0  0
  9 10  2  0  0  0
 10 11  1  0  0  0
 11 12  2  0  0  0
 12 13  1  0  0  0
 13 14  2  0  0  0
 14 15  1  0  0  0
 14 16  1  0  0  0
 16 17  2  0  0  0
 17 18  1  0  0  0
 18 19  2  0  0  0
 19 20  1  0  0  0
 20 21  2  0  0  0
  5  1  1  0  0  0
 15  6  2  0  0  0
 21 16  1  0  0  0
 12  7  1  0  0  0
 29 30  1  0  0  0
 33 35  1  0  0  0
M  END
>  <minimizedAffinity>
6.64881

>  <minimizedRMSD>
1.50940

$$$$
CSSS00558068414 MolPort-047-815-967 PubChem-166210168 Z1230158707


 32 35  0  0  0  0  0  0  0  0999 V2000
   18.2975  -10.9634   15.4103 N   0  0  0  0  0  0  0  0  0  0  0  0
   18.9135   -9.8986   14.6376 C   0  0  0  0  0  0  0  0  0  0  0  0
   19.4984  -10.5579   13.3794 C   0  0  0  0  0  0  0  0  0  0  0  0
   19.2272  -12.0620   13.4695 C   0  0  0  0  0  0  0  0  0  0  0  0
   18.4881  -12.1981   14.7379 C   0  0  0  0  0  0  0  0  0  0  0  0
   18.0695  -13.3026   15.1743 O   0  0  0  0  0  0  0  0  0  0  0  0
   16.0834   -9.4041   18.0034 C   0  0  0  0  0  0  0  0  0  0  0  0
   16.2151  -10.3125   19.0579 C   0  0  0  0  0  0  0  0  0  0  0  0
   17.0294  -11.4379   18.9140 C   0  0  0  0  0  0  0  0  0  0  0  0
   17.7154  -11.6554   17.7160 C   0  0  0  0  0  0  0  0  0  0  0  0
   17.5959  -10.7502   16.6498 C   0  0  0  0  0  0  0  0  0  0  0  0
   16.7745   -9.6230   16.8072 C   0  0  0  0  0  0  0  0  0  0  0  0
   15.7777   -6.9148   19.3430 N   0  0  0  0  0  0  0  0  0  0  0  0
   15.0705   -7.9838   18.1855 S   0  0  0  0  0  0  0  0  0  0  0  0
   13.7018   -8.3938   18.6517 O   0  0  0  0  0  0  0  0  0  0  0  0
   14.9434   -7.2799   16.8639 O   0  0  0  0  0  0  0  0  0  0  0  0
   15.1879   -6.0893   19.4481 H   0  0  0  0  0  0  0  0  0  0  0  0
   16.7041   -6.6323   19.0232 H   0  0  0  0  0  0  0  0  0  0  0  0
   18.8681   -9.9860   12.1527 C   0  0  0  0  0  0  0  0  0  0  0  0
   19.4865   -9.1020   11.5030 O   0  0  0  0  0  0  0  0  0  0  0  0
   17.5745  -10.4448   11.7331 N   0  0  0  0  0  0  0  0  0  0  0  0
   17.1499  -11.1386   12.2877 H   0  0  0  0  0  0  0  0  0  0  0  0
   16.8379   -9.9949   10.5877 C   0  0  0  0  0  0  0  0  0  0  0  0
   15.4441  -10.0465   10.5858 C   0  0  0  0  0  0  0  0  0  0  0  0
   14.6305  -10.4825   11.5586 N   0  0  0  0  0  0  0  0  0  0  0  0
   13.3846  -10.3435   11.1140 N   0  0  0  0  0  0  0  0  0  0  0  0
   13.3884   -9.8208    9.8617 C   0  0  0  0  0  0  0  0  0  0  0  0
   14.7060   -9.6287    9.5185 C   0  0  0  0  0  0  0  0  0  0  0  0
   15.2904   -9.1236    8.3610 C   0  0  0  0  0  0  0  0  0  0  0  0
   16.6956   -9.0557    8.3249 C   0  0  0  0  0  0  0  0  0  0  0  0
   17.4645   -9.4876    9.4289 C   0  0  0  0  0  0  0  0  0  0  0  0
   14.9034  -10.8379   12.4352 H   0  0  0  0  0  0  0  0  0  0  0  0
 13 14  1  0  0  0
 14 15  2  0  0  0
 14 16  2  0  0  0
 14  7  1  0  0  0
  7  8  2  0  0  0
  8  9  1  0  0  0
  9 10  2  0  0  0
 10 11  1  0  0  0
 11 12  2  0  0  0
 11  1  1  0  0  0
  1  2  1  0  0  0
  2  3  1  0  0  0
  3  4  1  0  0  0
  4  5  1  0  0  0
  5  6  2  0  0  0
  3 19  1  0  0  0
 19 20  2  0  0  0
 19 21  1  0  0  0
 21 23  1  0  0  0
 23 24  2  0  0  0
 24 25  1  0  0  0
 25 26  1  0  0  0
 26 27  2  0  0  0
 27 28  1  0  0  0
 28 29  2  0  0  0
 29 30  1  0  0  0
 30 31  2  0  0  0
 12  7  1  0  0  0
  5  1  1  0  0  0
 31 23  1  0  0  0
 28 24  1  0  0  0
 13 17  1  0  0  0
 13 18  1  0  0  0
 21 22  1  0  0  0
 25 32  1  0  0  0
M  END
>  <minimizedAffinity>
6.70324

>  <minimizedRMSD>
2.63818

$$$$
CSSS03436535453 MolPort-047-730-524


 28 31  0  0  0  0  0  0  0  0999 V2000
   16.1916   -6.1778   13.0069 O   0  0  0  0  0  0  0  0  0  0  0  0
   15.6702   -7.4429   13.2740 C   0  0  0  0  0  0  0  0  0  0  0  0
   16.0250   -7.8565   14.6895 C   0  0  0  0  0  0  0  0  0  0  0  0
   16.5703   -9.1953   14.5867 N   0  0  0  0  0  0  0  0  0  0  0  0
   16.6760   -9.6579   13.2172 C   0  0  0  0  0  0  0  0  0  0  0  0
   16.3065   -8.4688   12.3483 C   0  0  0  0  0  0  0  0  0  0  0  0
   16.8293  -10.0115   15.7416 C   0  0  0  0  0  0  0  0  0  0  0  0
   16.4319   -9.6140   16.8707 O   0  0  0  0  0  0  0  0  0  0  0  0
   15.7827   -5.5278   13.5996 H   0  0  0  0  0  0  0  0  0  0  0  0
   17.5698  -11.2951   15.6393 C   0  0  0  0  0  0  0  0  0  0  0  0
   18.1762  -11.8996   16.7600 C   0  0  0  0  0  0  0  0  0  0  0  0
   18.0785  -11.3371   18.0274 O   0  0  0  0  0  0  0  0  0  0  0  0
   18.8608  -13.0633   16.6024 N   0  0  0  0  0  0  0  0  0  0  0  0
   18.9768  -13.6596   15.3882 C   0  0  0  0  0  0  0  0  0  0  0  0
   18.3821  -13.0672   14.2766 C   0  0  0  0  0  0  0  0  0  0  0  0
   17.6979  -11.9038   14.4277 N   0  0  0  0  0  0  0  0  0  0  0  0
   17.6094  -10.5352   18.1492 H   0  0  0  0  0  0  0  0  0  0  0  0
   15.3169   -8.8759   11.2665 C   0  0  0  0  0  0  0  0  0  0  0  0
   16.0268   -9.4441   10.0757 C   0  0  0  0  0  0  0  0  0  0  0  0
   15.5650  -10.6446    9.5288 C   0  0  0  0  0  0  0  0  0  0  0  0
   16.2203  -11.2038    8.4303 C   0  0  0  0  0  0  0  0  0  0  0  0
   17.3060  -10.5869    7.8931 N   0  0  0  0  0  0  0  0  0  0  0  0
   17.7857   -9.4203    8.3995 C   0  0  0  0  0  0  0  0  0  0  0  0
   18.9060   -8.8177    7.8201 C   0  0  0  0  0  0  0  0  0  0  0  0
   19.4029   -7.6184    8.3380 C   0  0  0  0  0  0  0  0  0  0  0  0
   18.7822   -7.0170    9.4365 C   0  0  0  0  0  0  0  0  0  0  0  0
   17.6614   -7.6125   10.0221 C   0  0  0  0  0  0  0  0  0  0  0  0
   17.1533   -8.8167    9.5119 C   0  0  0  0  0  0  0  0  0  0  0  0
  2  1  1  0  0  0
  2  3  1  0  0  0
  3  4  1  0  0  0
  4  5  1  0  0  0
  5  6  1  0  0  0
  6 18  1  0  0  0
 18 19  1  0  0  0
 19 20  2  0  0  0
 20 21  1  0  0  0
 21 22  2  0  0  0
 22 23  1  0  0  0
 23 24  2  0  0  0
 24 25  1  0  0  0
 25 26  2  0  0  0
 26 27  1  0  0  0
 27 28  2  0  0  0
  4  7  1  0  0  0
  7  8  2  0  0  0
  7 10  1  0  0  0
 10 11  2  0  0  0
 11 12  1  0  0  0
 11 13  1  0  0  0
 13 14  2  0  0  0
 14 15  1  0  0  0
 15 16  2  0  0  0
  6  2  1  0  0  0
 28 19  1  0  0  0
 16 10  1  0  0  0
 28 23  1  0  0  0
  1  9  1  0  0  0
 12 17  1  0  0  0
M  END
>  <minimizedAffinity>
6.78789

>  <minimizedRMSD>
2.19441

$$$$
CSC026637488 CSSS00026637488 MCULE-7579291733 MolPort-005-803-652 PubChem-16343428 Z52465511


 34 38  0  0  0  0  0  0  0  0999 V2000
   14.2869  -10.2583   14.6493 C   0  0  0  0  0  0  0  0  0  0  0  0
   13.4958  -11.2079   14.4091 O   0  0  0  0  0  0  0  0  0  0  0  0
   14.9512   -9.5567   13.5908 N   0  0  0  0  0  0  0  0  0  0  0  0
   15.5107   -8.7902   13.8529 H   0  0  0  0  0  0  0  0  0  0  0  0
   14.8858   -9.8548   12.1904 C   0  0  0  0  0  0  0  0  0  0  0  0
   13.8526  -10.6294   11.6431 C   0  0  0  0  0  0  0  0  0  0  0  0
   13.8278  -10.9065   10.2742 C   0  0  0  0  0  0  0  0  0  0  0  0
   14.8371  -10.4128    9.4439 C   0  0  0  0  0  0  0  0  0  0  0  0
   15.8768   -9.6395    9.9770 C   0  0  0  0  0  0  0  0  0  0  0  0
   15.8926   -9.3661   11.3519 C   0  0  0  0  0  0  0  0  0  0  0  0
   16.9386   -9.1206    9.0989 C   0  0  0  0  0  0  0  0  0  0  0  0
   16.8994   -9.2221    7.7456 N   0  0  0  0  0  0  0  0  0  0  0  0
   17.9982   -8.6610    7.1805 C   0  0  0  0  0  0  0  0  0  0  0  0
   18.2373   -8.6117    5.8072 C   0  0  0  0  0  0  0  0  0  0  0  0
   19.4181   -7.9998    5.3533 C   0  0  0  0  0  0  0  0  0  0  0  0
   20.3365   -7.4492    6.2685 C   0  0  0  0  0  0  0  0  0  0  0  0
   20.0857   -7.5032    7.6487 C   0  0  0  0  0  0  0  0  0  0  0  0
   18.9091   -8.1158    8.0712 C   0  0  0  0  0  0  0  0  0  0  0  0
   18.3433   -8.3290    9.6343 S   0  0  0  0  0  0  0  0  0  0  0  0
   14.5676   -9.8813   16.0639 C   0  0  0  0  0  0  0  0  0  0  0  0
   18.0661  -10.4573   13.3852 C   0  0  0  0  0  0  0  0  0  0  0  0
   18.8771   -9.4946   14.2417 C   0  0  0  0  0  0  0  0  0  0  0  0
   20.3523   -9.9230   14.2364 C   0  0  0  0  0  0  0  0  0  0  0  0
   21.1444   -9.4225   15.4495 C   0  0  0  0  0  0  0  0  0  0  0  0
   20.5658   -8.1208   15.9866 C   0  0  0  0  0  0  0  0  0  0  0  0
   19.1442   -8.3413   16.5134 C   0  0  0  0  0  0  0  0  0  0  0  0
   18.3073   -9.3216   15.6705 C   0  0  0  0  0  0  0  0  0  0  0  0
   18.2285  -10.6140   16.3580 N   0  0  0  0  0  0  0  0  0  0  0  0
   16.8594  -10.8414   16.6714 C   0  0  0  0  0  0  0  0  0  0  0  0
   16.4484  -11.8967   17.2211 O   0  0  0  0  0  0  0  0  0  0  0  0
   16.0049   -9.7815   16.2812 N   0  0  0  0  0  0  0  0  0  0  0  0
   16.8774   -8.8605   15.6440 C   0  0  0  0  0  0  0  0  0  0  0  0
   16.4793   -7.7941   15.1024 O   0  0  0  0  0  0  0  0  0  0  0  0
   18.9822  -11.2128   16.5643 H   0  0  0  0  0  0  0  0  0  0  0  0
 22 21  1  0  0  0
 22 23  1  0  0  0
 23 24  1  0  0  0
 24 25  1  0  0  0
 25 26  1  0  0  0
 27 26  1  0  0  0
 27 28  1  0  0  0
 27 22  1  0  0  0
 28 29  1  0  0  0
 29 30  2  0  0  0
 29 31  1  0  0  0
 31 20  1  0  0  0
 31 32  1  0  0  0
 20  1  1  0  0  0
  1  2  2  0  0  0
  1  3  1  0  0  0
  3  5  1  0  0  0
  5  6  2  0  0  0
  6  7  1  0  0  0
  7  8  2  0  0  0
  8  9  1  0  0  0
  9 10  2  0  0  0
  9 11  1  0  0  0
 10  5  1  0  0  0
 11 12  2  0  0  0
 12 13  1  0  0  0
 13 14  2  0  0  0
 14 15  1  0  0  0
 15 16  2  0  0  0
 16 17  1  0  0  0
 17 18  2  0  0  0
 18 19  1  0  0  0
 18 13  1  0  0  0
 19 11  1  0  0  0
 32 33  2  0  0  0
 32 27  1  0  0  0
 28 34  1  0  0  0
  3  4  1  0  0  0
M  END
>  <minimizedAffinity>
6.94821

>  <minimizedRMSD>
2.27449

$$$$
CSC046225493 6489852 CSSS00046225493 GQBISMBSTWOXGY-UHFFFAOYSA-N MCULE-1317945646 MolPort-001-551-876 PubChem-3148010 ZINC000006489852


 35 38  0  0  0  0  0  0  0  0999 V2000
   18.1770  -10.3071   11.6016 C   0  0  0  0  0  0  0  0  0  0  0  0
   19.0307   -9.4116   11.8366 O   0  0  0  0  0  0  0  0  0  0  0  0
   17.2413  -10.7258   12.6035 N   0  0  0  0  0  0  0  0  0  0  0  0
   16.6079  -11.4345   12.3473 H   0  0  0  0  0  0  0  0  0  0  0  0
   17.1326  -10.2189   13.9404 C   0  0  0  0  0  0  0  0  0  0  0  0
   17.8246  -10.8722   14.9660 C   0  0  0  0  0  0  0  0  0  0  0  0
   17.7410  -10.4097   16.2824 C   0  0  0  0  0  0  0  0  0  0  0  0
   16.9626   -9.2873   16.5830 C   0  0  0  0  0  0  0  0  0  0  0  0
   16.2697   -8.6288   15.5627 C   0  0  0  0  0  0  0  0  0  0  0  0
   16.3539   -9.0924   14.2471 C   0  0  0  0  0  0  0  0  0  0  0  0
   16.8448   -8.7076   18.2347 S   0  0  0  0  0  0  0  0  0  0  0  0
   18.1961   -8.2320   18.6868 O   0  0  0  0  0  0  0  0  0  0  0  0
   16.3832   -9.8117   19.1446 O   0  0  0  0  0  0  0  0  0  0  0  0
   15.7172   -7.3954   18.3179 N   0  0  0  0  0  0  0  0  0  0  0  0
   15.9430   -6.5496   17.8677 H   0  0  0  0  0  0  0  0  0  0  0  0
   14.4730   -7.4905   19.0130 C   0  0  0  0  0  0  0  0  0  0  0  0
   14.4610   -7.4641   20.3718 N   0  0  0  0  0  0  0  0  0  0  0  0
   13.2936   -7.5484   21.0620 C   0  0  0  0  0  0  0  0  0  0  0  0
   12.0853   -7.6635   20.3768 C   0  0  0  0  0  0  0  0  0  0  0  0
   12.1150   -7.6896   18.9837 C   0  0  0  0  0  0  0  0  0  0  0  0
   13.3018   -7.6037   18.3285 N   0  0  0  0  0  0  0  0  0  0  0  0
   18.1127  -10.9169   10.2439 C   0  0  0  0  0  0  0  0  0  0  0  0
   16.8100   -8.4921    7.9106 C   0  0  0  0  0  0  0  0  0  0  0  0
   15.6403   -9.0198    8.3225 N   0  0  0  0  0  0  0  0  0  0  0  0
   16.0271   -9.9763    9.2104 C   0  0  0  0  0  0  0  0  0  0  0  0
   17.3752  -10.0465    9.3395 N   0  0  0  0  0  0  0  0  0  0  0  0
   17.8518   -9.0995    8.5185 C   0  0  0  0  0  0  0  0  0  0  0  0
   19.1552   -8.7015    8.2474 C   0  0  0  0  0  0  0  0  0  0  0  0
   19.3417   -7.6789    7.3509 N   0  0  0  0  0  0  0  0  0  0  0  0
   20.6963   -7.2331    7.0395 C   0  0  0  0  0  0  0  0  0  0  0  0
   18.2631   -7.0697    6.7406 C   0  0  0  0  0  0  0  0  0  0  0  0
   18.4532   -6.1293    5.9184 O   0  0  0  0  0  0  0  0  0  0  0  0
   16.9817   -7.4800    7.0224 N   0  0  0  0  0  0  0  0  0  0  0  0
   15.8288   -6.8493    6.3916 C   0  0  0  0  0  0  0  0  0  0  0  0
   20.1347   -9.2663    8.8072 O   0  0  0  0  0  0  0  0  0  0  0  0
 23 24  1  0  0  0
 24 25  2  0  0  0
 25 26  1  0  0  0
 26 22  1  0  0  0
 22  1  1  0  0  0
  1  2  2  0  0  0
  1  3  1  0  0  0
  3  5  1  0  0  0
  5  6  2  0  0  0
  6  7  1  0  0  0
  7  8  2  0  0  0
  8  9  1  0  0  0
  9 10  2  0  0  0
  8 11  1  0  0  0
 11 12  2  0  0  0
 11 13  2  0  0  0
 11 14  1  0  0  0
 14 16  1  0  0  0
 16 17  2  0  0  0
 17 18  1  0  0  0
 18 19  2  0  0  0
 19 20  1  0  0  0
 20 21  2  0  0  0
 26 27  1  0  0  0
 27 28  1  0  0  0
 28 29  1  0  0  0
 29 30  1  0  0  0
 29 31  1  0  0  0
 31 32  2  0  0  0
 31 33  1  0  0  0
 33 34  1  0  0  0
 28 35  2  0  0  0
 27 23  2  0  0  0
 33 23  1  0  0  0
 10  5  1  0  0  0
 21 16  1  0  0  0
  3  4  1  0  0  0
 14 15  1  0  0  0
M  END
>  <minimizedAffinity>
6.96675

>  <minimizedRMSD>
2.03086

$$$$
CSC026292026 CSSS00026292026 MCULE-4539617397 MolPort-005-320-143 PubChem-4849439 Z27506251


 32 34  0  0  0  0  0  0  0  0999 V2000
   17.2409  -10.2569   11.4113 C   0  0  0  0  0  0  0  0  0  0  0  0
   16.0444  -10.6118   11.2273 O   0  0  0  0  0  0  0  0  0  0  0  0
   17.9285  -10.6898   12.5894 N   0  0  0  0  0  0  0  0  0  0  0  0
   18.8790  -10.4548   12.6922 H   0  0  0  0  0  0  0  0  0  0  0  0
   17.7290   -8.4535    8.2277 N   0  0  0  0  0  0  0  0  0  0  0  0
   17.2343   -9.1881    9.2253 N   0  0  0  0  0  0  0  0  0  0  0  0
   17.9073   -9.4130   10.3866 C   0  0  0  0  0  0  0  0  0  0  0  0
   19.1843   -8.8295   10.5482 C   0  0  0  0  0  0  0  0  0  0  0  0
   19.9453   -8.9923   11.7174 C   0  0  0  0  0  0  0  0  0  0  0  0
   21.2010   -8.3953   11.8452 C   0  0  0  0  0  0  0  0  0  0  0  0
   21.7151   -7.6224   10.8040 C   0  0  0  0  0  0  0  0  0  0  0  0
   20.9726   -7.4450    9.6358 C   0  0  0  0  0  0  0  0  0  0  0  0
   19.7093   -8.0414    9.4985 C   0  0  0  0  0  0  0  0  0  0  0  0
   18.9551   -7.8607    8.3329 C   0  0  0  0  0  0  0  0  0  0  0  0
   19.4034   -7.1502    7.3892 O   0  0  0  0  0  0  0  0  0  0  0  0
   16.9056   -8.2765    7.0371 C   0  0  0  0  0  0  0  0  0  0  0  0
   18.3462   -8.4051    5.0283 C   0  0  0  0  0  0  0  0  0  0  0  0
   17.3943   -9.1772    5.9165 C   0  0  0  0  0  0  0  0  0  0  0  0
   17.2851  -11.4628   13.6435 C   0  0  0  0  0  0  0  0  0  0  0  0
   18.2341  -12.5395   14.1369 C   0  0  0  0  0  0  0  0  0  0  0  0
   16.8671  -10.5714   14.7721 C   0  0  0  0  0  0  0  0  0  0  0  0
   17.2479  -10.8478   16.0942 C   0  0  0  0  0  0  0  0  0  0  0  0
   16.8565   -9.9953   17.1300 C   0  0  0  0  0  0  0  0  0  0  0  0
   16.0866   -8.8607   16.8518 C   0  0  0  0  0  0  0  0  0  0  0  0
   15.7043   -8.5853   15.5344 C   0  0  0  0  0  0  0  0  0  0  0  0
   16.0954   -9.4374   14.4975 C   0  0  0  0  0  0  0  0  0  0  0  0
   15.5854   -7.7965   18.1530 S   0  0  0  0  0  0  0  0  0  0  0  0
   15.1934   -8.7357   19.5484 N   0  0  0  0  0  0  0  0  0  0  0  0
   14.3812   -7.0059   17.7250 O   0  0  0  0  0  0  0  0  0  0  0  0
   16.6991   -6.8439   18.4863 O   0  0  0  0  0  0  0  0  0  0  0  0
   14.4375   -9.3820   19.3218 H   0  0  0  0  0  0  0  0  0  0  0  0
   14.8966   -8.1164   20.3026 H   0  0  0  0  0  0  0  0  0  0  0  0
 17 18  1  0  0  0
 18 16  1  0  0  0
 16  5  1  0  0  0
  5  6  1  0  0  0
  6  7  2  0  0  0
  7  1  1  0  0  0
  7  8  1  0  0  0
  1  2  2  0  0  0
  1  3  1  0  0  0
 19  3  1  0  0  0
 19 20  1  0  0  0
 19 21  1  0  0  0
 21 22  2  0  0  0
 22 23  1  0  0  0
 23 24  2  0  0  0
 24 25  1  0  0  0
 24 27  1  0  0  0
 25 26  2  0  0  0
 26 21  1  0  0  0
 27 28  1  0  0  0
 27 29  2  0  0  0
 27 30  2  0  0  0
  8  9  2  0  0  0
  9 10  1  0  0  0
 10 11  2  0  0  0
 11 12  1  0  0  0
 12 13  2  0  0  0
 13 14  1  0  0  0
 13  8  1  0  0  0
 14 15  2  0  0  0
 14  5  1  0  0  0
  3  4  1  0  0  0
 28 31  1  0  0  0
 28 32  1  0  0  0
M  END
>  <minimizedAffinity>
6.99642

>  <minimizedRMSD>
2.53971

$$$$
CSSS00520252008 PubChem-166243522 Z2612272881


 28 31  0  0  0  0  0  0  0  0999 V2000
   17.2456   -8.9789   14.2272 C   0  0  0  0  0  0  0  0  0  0  0  0
   18.4927   -9.2372   13.3707 C   0  0  0  0  0  0  0  0  0  0  0  0
   18.2577  -10.3643   12.3689 C   0  0  0  0  0  0  0  0  0  0  0  0
   17.0418  -10.0934   11.6073 N   0  0  0  0  0  0  0  0  0  0  0  0
   15.8050   -9.9303   12.3639 C   0  0  0  0  0  0  0  0  0  0  0  0
   15.9715   -8.8073   13.3869 C   0  0  0  0  0  0  0  0  0  0  0  0
   16.9994  -10.1885   10.1709 C   0  0  0  0  0  0  0  0  0  0  0  0
   16.4388  -11.2917    9.6029 N   0  0  0  0  0  0  0  0  0  0  0  0
   16.3708  -11.4482    8.2565 C   0  0  0  0  0  0  0  0  0  0  0  0
   16.8613  -10.4892    7.4326 N   0  0  0  0  0  0  0  0  0  0  0  0
   17.4203   -9.3556    7.9307 C   0  0  0  0  0  0  0  0  0  0  0  0
   17.5003   -9.1700    9.3296 C   0  0  0  0  0  0  0  0  0  0  0  0
   18.0397   -7.9779    9.8316 C   0  0  0  0  0  0  0  0  0  0  0  0
   18.5184   -6.9841    8.9682 C   0  0  0  0  0  0  0  0  0  0  0  0
   18.4486   -7.1873    7.5848 C   0  0  0  0  0  0  0  0  0  0  0  0
   17.9041   -8.3630    7.0632 C   0  0  0  0  0  0  0  0  0  0  0  0
   17.8304   -8.5605    5.3197 Cl  0  0  0  0  0  0  0  0  0  0  0  0
   19.0742   -5.7707    9.4924 N   0  0  0  0  0  0  0  0  0  0  0  0
   20.0430   -5.8048   10.2795 O   0  0  0  0  0  0  0  0  0  0  0  0
   18.5453   -4.5522    9.1327 O   0  0  0  0  0  0  0  0  0  0  0  0
   18.2642  -11.8335   16.3482 C   0  0  0  0  0  0  0  0  0  0  0  0
   17.3588  -11.7615   17.5797 C   0  0  0  0  0  0  0  0  0  0  0  0
   16.6797  -10.4694   17.6818 N   0  0  0  0  0  0  0  0  0  0  0  0
   16.5738   -9.5743   16.5714 C   0  0  0  0  0  0  0  0  0  0  0  0
   16.0455   -8.4417   16.7296 O   0  0  0  0  0  0  0  0  0  0  0  0
   17.0860   -9.9716   15.2922 N   0  0  0  0  0  0  0  0  0  0  0  0
   17.5069  -11.3607   15.1146 C   0  0  0  0  0  0  0  0  0  0  0  0
   16.2825  -10.2074   18.5437 H   0  0  0  0  0  0  0  0  0  0  0  0
 21 22  1  0  0  0
 22 23  1  0  0  0
 23 24  1  0  0  0
 24 25  2  0  0  0
 24 26  1  0  0  0
 26 27  1  0  0  0
 26  1  1  0  0  0
  1  2  1  0  0  0
  2  3  1  0  0  0
  3  4  1  0  0  0
  4  5  1  0  0  0
  5  6  1  0  0  0
  4  7  1  0  0  0
  7  8  2  0  0  0
  8  9  1  0  0  0
  9 10  2  0  0  0
 10 11  1  0  0  0
 11 12  2  0  0  0
 12 13  1  0  0  0
 13 14  2  0  0  0
 14 15  1  0  0  0
 15 16  2  0  0  0
 16 17  1  0  0  0
 14 18  1  0  0  0
 18 19  2  0  0  0
 18 20  1  0  0  0
 27 21  1  0  0  0
  6  1  1  0  0  0
 12  7  1  0  0  0
 16 11  1  0  0  0
 23 28  1  0  0  0
M  CHG 1  18   1
M  CHG 1  20  -1
M  END
>  <minimizedAffinity>
7.04686

>  <minimizedRMSD>
1.33411

$$$$
CSC025992913 8719419 CSSS00025992913 MCULE-8343183516 MolPort-004-570-304 PubChem-16520642 Z18173806 ZINC000008719419 ZINC08719419


 37 40  0  0  0  0  0  0  0  0999 V2000
   16.6246   -8.5589   11.1890 S   0  0  0  0  0  0  0  0  0  0  0  0
   18.6565   -8.4897    6.3367 N   0  0  0  0  0  0  0  0  0  0  0  0
   19.1415   -7.2277    6.5321 C   0  0  0  0  0  0  0  0  0  0  0  0
   19.7908   -6.6540    5.6110 O   0  0  0  0  0  0  0  0  0  0  0  0
   18.9257   -6.5801    7.7146 N   0  0  0  0  0  0  0  0  0  0  0  0
   19.4461   -5.2267    7.8964 C   0  0  0  0  0  0  0  0  0  0  0  0
   18.2346   -7.1781    8.7295 C   0  0  0  0  0  0  0  0  0  0  0  0
   18.0530   -6.5474    9.8068 O   0  0  0  0  0  0  0  0  0  0  0  0
   17.7352   -8.4891    8.5667 C   0  0  0  0  0  0  0  0  0  0  0  0
   17.0164   -9.2116    9.5573 C   0  0  0  0  0  0  0  0  0  0  0  0
   16.5878  -10.4715    9.2857 N   0  0  0  0  0  0  0  0  0  0  0  0
   16.8339  -11.0658    8.0951 C   0  0  0  0  0  0  0  0  0  0  0  0
   16.3545  -12.4494    7.8426 C   0  0  0  0  0  0  0  0  0  0  0  0
   17.5189  -10.4012    7.1355 N   0  0  0  0  0  0  0  0  0  0  0  0
   17.9726   -9.1325    7.3316 C   0  0  0  0  0  0  0  0  0  0  0  0
   18.9106   -9.1625    5.0580 C   0  0  0  0  0  0  0  0  0  0  0  0
   18.3581   -8.0828    2.8987 C   0  0  0  0  0  0  0  0  0  0  0  0
   19.3893   -8.1740    4.0031 C   0  0  0  0  0  0  0  0  0  0  0  0
   20.7103   -8.6312    3.4150 C   0  0  0  0  0  0  0  0  0  0  0  0
   18.2495   -9.0003   11.8868 C   0  0  0  0  0  0  0  0  0  0  0  0
   18.1081  -10.0484   12.9362 C   0  0  0  0  0  0  0  0  0  0  0  0
   17.8373  -11.2290   12.5916 O   0  0  0  0  0  0  0  0  0  0  0  0
   18.2861   -9.6972   14.3151 N   0  0  0  0  0  0  0  0  0  0  0  0
   18.5709   -8.7728   14.4984 H   0  0  0  0  0  0  0  0  0  0  0  0
   18.0946  -10.5461   15.4587 C   0  0  0  0  0  0  0  0  0  0  0  0
   18.7883  -11.7623   15.5658 C   0  0  0  0  0  0  0  0  0  0  0  0
   18.5982  -12.6030   16.6620 C   0  0  0  0  0  0  0  0  0  0  0  0
   17.7059  -12.2406   17.6682 C   0  0  0  0  0  0  0  0  0  0  0  0
   17.0055  -11.0378   17.5767 C   0  0  0  0  0  0  0  0  0  0  0  0
   17.1848  -10.1762   16.4825 C   0  0  0  0  0  0  0  0  0  0  0  0
   16.4078   -8.9116   16.4551 C   0  0  0  0  0  0  0  0  0  0  0  0
   16.4020   -8.1773   15.4299 O   0  0  0  0  0  0  0  0  0  0  0  0
   15.6604   -8.5137   17.6087 N   0  0  0  0  0  0  0  0  0  0  0  0
   15.6623   -9.0972   18.4017 H   0  0  0  0  0  0  0  0  0  0  0  0
   14.8986   -7.2767   17.6483 C   0  0  0  0  0  0  0  0  0  0  0  0
   13.4444   -7.5985   17.9233 C   0  0  0  0  0  0  0  0  0  0  0  0
   14.3292   -7.0870   19.0393 C   0  0  0  0  0  0  0  0  0  0  0  0
 17 18  1  0  0  0
 18 19  1  0  0  0
 18 16  1  0  0  0
 16  2  1  0  0  0
  2  3  1  0  0  0
  3  4  2  0  0  0
  3  5  1  0  0  0
  5  6  1  0  0  0
  5  7  1  0  0  0
  7  8  2  0  0  0
  7  9  1  0  0  0
  9 10  2  0  0  0
 10  1  1  0  0  0
 10 11  1  0  0  0
  1 20  1  0  0  0
 20 21  1  0  0  0
 21 22  2  0  0  0
 21 23  1  0  0  0
 23 25  1  0  0  0
 25 26  2  0  0  0
 26 27  1  0  0  0
 27 28  2  0  0  0
 28 29  1  0  0  0
 29 30  2  0  0  0
 30 31  1  0  0  0
 30 25  1  0  0  0
 31 32  2  0  0  0
 31 33  1  0  0  0
 33 35  1  0  0  0
 35 36  1  0  0  0
 36 37  1  0  0  0
 37 35  1  0  0  0
 11 12  2  0  0  0
 12 13  1  0  0  0
 12 14  1  0  0  0
 14 15  2  0  0  0
 15  2  1  0  0  0
 15  9  1  0  0  0
 23 24  1  0  0  0
 33 34  1  0  0  0
M  END
>  <minimizedAffinity>
7.08593

>  <minimizedRMSD>
1.90189

$$$$
CSC027517789 97139968 CSSS00027517789 MCULE-7087841093 MolPort-030-007-461 PubChem-86776757 Z441202870 ZINC000097139968 ZINC97139968


 27 28  0  0  0  0  0  0  0  0999 V2000
   17.2566   -9.3649    8.5240 C   0  0  0  0  0  0  0  0  0  0  0  0
   17.2529   -9.2165    7.1737 N   0  0  0  0  0  0  0  0  0  0  0  0
   18.2440   -8.5494    6.5355 C   0  0  0  0  0  0  0  0  0  0  0  0
   18.2146   -8.4132    5.1447 C   0  0  0  0  0  0  0  0  0  0  0  0
   19.2387   -7.7242    4.4878 C   0  0  0  0  0  0  0  0  0  0  0  0
   20.2936   -7.1703    5.2198 C   0  0  0  0  0  0  0  0  0  0  0  0
   20.3275   -7.3038    6.6112 C   0  0  0  0  0  0  0  0  0  0  0  0
   19.3031   -7.9939    7.2762 C   0  0  0  0  0  0  0  0  0  0  0  0
   19.2967   -8.1511    8.6685 C   0  0  0  0  0  0  0  0  0  0  0  0
   20.2342   -7.6629    9.3610 O   0  0  0  0  0  0  0  0  0  0  0  0
   18.2751   -8.8340    9.2740 N   0  0  0  0  0  0  0  0  0  0  0  0
   15.8994  -10.2655    9.2840 S   0  0  0  0  0  0  0  0  0  0  0  0
   16.5957  -11.8695    8.8013 C   0  0  0  0  0  0  0  0  0  0  0  0
   15.8674  -12.9774    9.5359 C   0  0  0  0  0  0  0  0  0  0  0  0
   15.7262  -14.1938    8.6400 C   0  0  0  0  0  0  0  0  0  0  0  0
   14.3745  -15.9283    8.4619 C   0  0  0  0  0  0  0  0  0  0  0  0
   15.2015  -15.2637    9.3662 O   0  0  0  0  0  0  0  0  0  0  0  0
   18.2705   -8.9820   10.7289 C   0  0  0  0  0  0  0  0  0  0  0  0
   16.8505   -9.1702   11.2301 C   0  0  0  0  0  0  0  0  0  0  0  0
   16.8817   -9.8079   12.6056 C   0  0  0  0  0  0  0  0  0  0  0  0
   16.1649   -8.9267   13.6122 C   0  0  0  0  0  0  0  0  0  0  0  0
   16.0153   -9.6523   14.9389 C   0  0  0  0  0  0  0  0  0  0  0  0
   16.3015   -8.7250   16.0680 C   0  0  0  0  0  0  0  0  0  0  0  0
   17.4622   -8.9080   16.8715 N   0  0  0  0  0  0  0  0  0  0  0  0
   15.5046   -7.7857   16.3233 O   0  0  0  0  0  0  0  0  0  0  0  0
   18.0872   -9.6424   16.6735 H   0  0  0  0  0  0  0  0  0  0  0  0
   17.6400   -8.3001   17.6252 H   0  0  0  0  0  0  0  0  0  0  0  0
 16 17  1  0  0  0
 17 15  1  0  0  0
 15 14  1  0  0  0
 14 13  1  0  0  0
 13 12  1  0  0  0
 12  1  1  0  0  0
  1  2  2  0  0  0
  2  3  1  0  0  0
  3  4  2  0  0  0
  4  5  1  0  0  0
  5  6  2  0  0  0
  6  7  1  0  0  0
  7  8  2  0  0  0
  8  9  1  0  0  0
  8  3  1  0  0  0
  9 10  2  0  0  0
  9 11  1  0  0  0
 11 18  1  0  0  0
 11  1  1  0  0  0
 18 19  1  0  0  0
 19 20  1  0  0  0
 20 21  1  0  0  0
 21 22  1  0  0  0
 22 23  1  0  0  0
 23 24  1  0  0  0
 23 25  2  0  0  0
 24 26  1  0  0  0
 24 27  1  0  0  0
M  END
>  <minimizedAffinity>
7.23830

>  <minimizedRMSD>
1.90618

$$$$
CSSS03636343107 Z5084937148


 29 32  0  0  0  0  0  0  0  0999 V2000
   16.0036   -8.9309   12.1438 C   0  0  0  0  0  0  0  0  0  0  0  0
   16.8160   -9.8217   11.2112 C   0  0  0  0  0  0  0  0  0  0  0  0
   15.9093  -10.8738   10.5504 C   0  0  0  0  0  0  0  0  0  0  0  0
   15.3643  -11.8814   11.5635 C   0  0  0  0  0  0  0  0  0  0  0  0
   16.5210  -12.5581   12.2846 C   0  0  0  0  0  0  0  0  0  0  0  0
   17.3726  -11.5410   12.8930 N   0  0  0  0  0  0  0  0  0  0  0  0
   17.8052  -11.6931   14.2588 C   0  0  0  0  0  0  0  0  0  0  0  0
   17.6612  -12.8121   14.8246 O   0  0  0  0  0  0  0  0  0  0  0  0
   17.9263  -10.5144   12.0099 C   0  0  0  0  0  0  0  0  0  0  0  0
   18.4103  -10.5821   15.0329 C   0  0  0  0  0  0  0  0  0  0  0  0
   19.7482  -10.1865   14.8215 C   0  0  0  0  0  0  0  0  0  0  0  0
   20.2665   -9.1214   15.5553 C   0  0  0  0  0  0  0  0  0  0  0  0
   19.4709   -8.4609   16.4701 C   0  0  0  0  0  0  0  0  0  0  0  0
   18.1457   -8.8036   16.7059 C   0  0  0  0  0  0  0  0  0  0  0  0
   17.6180   -9.8768   15.9706 C   0  0  0  0  0  0  0  0  0  0  0  0
   20.4169   -7.2707   17.1358 S   0  0  0  0  0  0  0  0  0  0  0  0
   21.8312   -7.5585   16.2967 N   0  0  0  0  0  0  0  0  0  0  0  0
   21.5746   -8.6102   15.4688 C   0  0  0  0  0  0  0  0  0  0  0  0
   17.4472   -9.0004   10.1820 N   0  0  0  0  0  0  0  0  0  0  0  0
   17.3100   -9.1952    8.7685 C   0  0  0  0  0  0  0  0  0  0  0  0
   16.6087  -10.1439    8.3243 O   0  0  0  0  0  0  0  0  0  0  0  0
   18.0125   -8.2527   10.4831 H   0  0  0  0  0  0  0  0  0  0  0  0
   17.9846   -8.2928    7.8217 C   0  0  0  0  0  0  0  0  0  0  0  0
   19.2208   -7.6897    7.9572 C   0  0  0  0  0  0  0  0  0  0  0  0
   20.4730   -7.8061    9.3972 Br  0  0  0  0  0  0  0  0  0  0  0  0
   19.3929   -6.9475    6.8079 C   0  0  0  0  0  0  0  0  0  0  0  0
   18.2997   -7.1132    6.0355 N   0  0  0  0  0  0  0  0  0  0  0  0
   17.4486   -7.9242    6.6452 N   0  0  0  0  0  0  0  0  0  0  0  0
   16.5729   -8.2085    6.2964 H   0  0  0  0  0  0  0  0  0  0  0  0
  1  2  1  0  0  0
  2 19  1  0  0  0
 19 20  1  0  0  0
 20 21  2  0  0  0
 20 23  1  0  0  0
 23 24  2  0  0  0
 24 25  1  0  0  0
 24 26  1  0  0  0
 26 27  2  0  0  0
 27 28  1  0  0  0
  2  3  1  0  0  0
  3  4  1  0  0  0
  4  5  1  0  0  0
  5  6  1  0  0  0
  6  7  1  0  0  0
  7  8  2  0  0  0
  7 10  1  0  0  0
 10 11  2  0  0  0
 11 12  1  0  0  0
 12 13  2  0  0  0
 13 14  1  0  0  0
 14 15  2  0  0  0
 13 16  1  0  0  0
 16 17  1  0  0  0
 17 18  2  0  0  0
  6  9  1  0  0  0
  9  2  1  0  0  0
 28 23  1  0  0  0
 15 10  1  0  0  0
 18 12  1  0  0  0
 19 22  1  0  0  0
 28 29  1  0  0  0
M  END
>  <minimizedAffinity>
7.30066

>  <minimizedRMSD>
8.18954

$$$$
49545302 CSSS00132598371 LN00881669 MCULE-3990907859 MolPort-009-650-282 PubChem-51052954 ZINC000049545302


 30 33  0  0  0  0  0  0  0  0999 V2000
   16.8577   -9.3043   11.1987 C   0  0  0  0  0  0  0  0  0  0  0  0
   16.8541   -9.3314   12.6860 C   0  0  0  0  0  0  0  0  0  0  0  0
   16.4086   -8.3377   13.3183 O   0  0  0  0  0  0  0  0  0  0  0  0
   17.3756  -10.4780   13.3720 N   0  0  0  0  0  0  0  0  0  0  0  0
   17.7184  -11.2102   12.8103 H   0  0  0  0  0  0  0  0  0  0  0  0
   17.4494  -10.6682   14.7911 C   0  0  0  0  0  0  0  0  0  0  0  0
   18.2340  -11.7122   15.2908 C   0  0  0  0  0  0  0  0  0  0  0  0
   18.3286  -11.9278   16.6680 C   0  0  0  0  0  0  0  0  0  0  0  0
   17.6372  -11.0982   17.5547 C   0  0  0  0  0  0  0  0  0  0  0  0
   16.8479  -10.0496   17.0723 C   0  0  0  0  0  0  0  0  0  0  0  0
   16.7583   -9.8403   15.6880 C   0  0  0  0  0  0  0  0  0  0  0  0
   16.1528   -9.2189   18.0121 N   0  0  0  0  0  0  0  0  0  0  0  0
   15.3544   -8.0674   17.7110 C   0  0  0  0  0  0  0  0  0  0  0  0
   14.7031   -7.3241   18.8204 C   0  0  0  0  0  0  0  0  0  0  0  0
   15.1938   -7.6729   16.5260 O   0  0  0  0  0  0  0  0  0  0  0  0
   16.2321   -9.4649   18.9621 H   0  0  0  0  0  0  0  0  0  0  0  0
   15.4353   -9.3312   10.6723 C   0  0  0  0  0  0  0  0  0  0  0  0
   15.3949   -8.7224    8.9607 S   0  0  0  0  0  0  0  0  0  0  0  0
   18.6239  -10.5763    7.2996 C   0  0  0  0  0  0  0  0  0  0  0  0
   18.4252  -11.8738    7.6310 N   0  0  0  0  0  0  0  0  0  0  0  0
   17.3152  -12.2069    8.3486 C   0  0  0  0  0  0  0  0  0  0  0  0
   16.4197  -11.2463    8.7280 N   0  0  0  0  0  0  0  0  0  0  0  0
   16.5986   -9.9323    8.4086 C   0  0  0  0  0  0  0  0  0  0  0  0
   17.7299   -9.5794    7.6663 C   0  0  0  0  0  0  0  0  0  0  0  0
   18.1433   -8.3347    7.1893 C   0  0  0  0  0  0  0  0  0  0  0  0
   19.3012   -8.3810    6.4971 C   0  0  0  0  0  0  0  0  0  0  0  0
   19.7244   -7.0844    5.9487 C   0  0  0  0  0  0  0  0  0  0  0  0
   18.6051   -6.1409    6.4399 C   0  0  0  0  0  0  0  0  0  0  0  0
   17.5700   -6.9755    7.2283 C   0  0  0  0  0  0  0  0  0  0  0  0
   19.9161   -9.9506    6.3972 S   0  0  0  0  0  0  0  0  0  0  0  0
 19 20  2  0  0  0
 20 21  1  0  0  0
 21 22  2  0  0  0
 22 23  1  0  0  0
 23 18  1  0  0  0
 18 17  1  0  0  0
 17  1  1  0  0  0
  1  2  1  0  0  0
  2  3  2  0  0  0
  2  4  1  0  0  0
  4  6  1  0  0  0
  6  7  2  0  0  0
  7  8  1  0  0  0
  8  9  2  0  0  0
  9 10  1  0  0  0
 10 11  2  0  0  0
 10 12  1  0  0  0
 12 13  1  0  0  0
 13 14  1  0  0  0
 13 15  2  0  0  0
 23 24  2  0  0  0
 24 25  1  0  0  0
 25 26  2  0  0  0
 26 27  1  0  0  0
 27 28  1  0  0  0
 28 29  1  0  0  0
 26 30  1  0  0  0
 24 19  1  0  0  0
 29 25  1  0  0  0
 30 19  1  0  0  0
 11  6  1  0  0  0
  4  5  1  0  0  0
 12 16  1  0  0  0
M  END
>  <minimizedAffinity>
7.43151

>  <minimizedRMSD>
1.65665

$$$$
CSC026654520 9619716 CSSS00026654520 MCULE-6639237388 MolPort-005-805-206 PubChem-16336765 Z54179159 ZINC000009619716


 33 36  0  0  0  0  0  0  0  0999 V2000
   16.0736   -9.1170   13.3982 N   0  0  0  0  0  0  0  0  0  0  0  0
   16.5523   -8.8449   12.0763 C   0  0  0  0  0  0  0  0  0  0  0  0
   17.6558   -9.2978   11.6739 O   0  0  0  0  0  0  0  0  0  0  0  0
   15.2127   -8.7113   13.6503 H   0  0  0  0  0  0  0  0  0  0  0  0
   16.7145   -9.6392   15.7681 C   0  0  0  0  0  0  0  0  0  0  0  0
   17.4300  -10.6150   16.4741 C   0  0  0  0  0  0  0  0  0  0  0  0
   17.9586  -11.5883   15.7122 C   0  0  0  0  0  0  0  0  0  0  0  0
   18.7018  -12.6122   16.4595 C   0  0  0  0  0  0  0  0  0  0  0  0
   18.5639  -12.1143   17.9136 C   0  0  0  0  0  0  0  0  0  0  0  0
   17.7304  -10.8124   17.9069 C   0  0  0  0  0  0  0  0  0  0  0  0
   17.6012  -11.3528   14.0930 S   0  0  0  0  0  0  0  0  0  0  0  0
   16.7240   -9.9220   14.3912 C   0  0  0  0  0  0  0  0  0  0  0  0
   15.9273   -8.3826   17.8068 N   0  0  0  0  0  0  0  0  0  0  0  0
   16.0429   -8.4780   16.3907 C   0  0  0  0  0  0  0  0  0  0  0  0
   15.5644   -7.5585   15.6759 O   0  0  0  0  0  0  0  0  0  0  0  0
   16.2962   -9.0931   18.3798 H   0  0  0  0  0  0  0  0  0  0  0  0
   15.4786   -7.6061   18.2128 H   0  0  0  0  0  0  0  0  0  0  0  0
   15.7210   -8.0247   11.1528 C   0  0  0  0  0  0  0  0  0  0  0  0
   14.4912   -9.0676   10.3093 S   0  0  0  0  0  0  0  0  0  0  0  0
   15.7325  -10.1862    9.6616 C   0  0  0  0  0  0  0  0  0  0  0  0
   16.7395   -9.8324    8.8512 N   0  0  0  0  0  0  0  0  0  0  0  0
   17.3965  -10.9774    8.6347 C   0  0  0  0  0  0  0  0  0  0  0  0
   18.5243  -11.0116    7.8178 C   0  0  0  0  0  0  0  0  0  0  0  0
   18.9388   -9.8003    7.2404 C   0  0  0  0  0  0  0  0  0  0  0  0
   18.2395   -8.5988    7.4985 C   0  0  0  0  0  0  0  0  0  0  0  0
   17.0972   -8.6379    8.3198 C   0  0  0  0  0  0  0  0  0  0  0  0
   19.3977  -12.4990    7.5050 Cl  0  0  0  0  0  0  0  0  0  0  0  0
   16.8252  -12.0114    9.2815 N   0  0  0  0  0  0  0  0  0  0  0  0
   15.7756  -11.5105    9.9287 N   0  0  0  0  0  0  0  0  0  0  0  0
   18.6566   -7.3183    6.8370 C   0  0  0  0  0  0  0  0  0  0  0  0
   18.2273   -6.2309    7.5781 F   0  0  0  0  0  0  0  0  0  0  0  0
   20.0351   -7.2600    6.7255 F   0  0  0  0  0  0  0  0  0  0  0  0
   18.0980   -7.2535    5.5743 F   0  0  0  0  0  0  0  0  0  0  0  0
 13 14  1  0  0  0
 14  5  1  0  0  0
  5  6  1  0  0  0
  6  7  2  0  0  0
  7  8  1  0  0  0
  8  9  1  0  0  0
  9 10  1  0  0  0
  7 11  1  0  0  0
 11 12  1  0  0  0
 12  1  1  0  0  0
  1  2  1  0  0  0
  2 18  1  0  0  0
 18 19  1  0  0  0
 19 20  1  0  0  0
 20 21  1  0  0  0
 21 22  1  0  0  0
 22 23  1  0  0  0
 23 24  2  0  0  0
 24 25  1  0  0  0
 25 30  1  0  0  0
 30 31  1  0  0  0
 30 32  1  0  0  0
 30 33  1  0  0  0
 25 26  2  0  0  0
 23 27  1  0  0  0
 22 28  2  0  0  0
 28 29  1  0  0  0
  2  3  2  0  0  0
 14 15  2  0  0  0
 12  5  2  0  0  0
 29 20  2  0  0  0
 10  6  1  0  0  0
 26 21  1  0  0  0
 13 16  1  0  0  0
 13 17  1  0  0  0
  1  4  1  0  0  0
M  END
>  <minimizedAffinity>
7.44454

>  <minimizedRMSD>
1.79428

$$$$
72150798 CSSS00160045311 MCULE-5600820624 MolPort-020-202-741 PubChem-56894647 ZINC000072150798


 29 33  0  0  0  0  0  0  0  0999 V2000
   15.9539   -9.3627   13.6783 C   0  0  0  0  0  0  0  0  0  0  0  0
   16.4162   -7.9892   13.1735 C   0  0  0  0  0  0  0  0  0  0  0  0
   17.8464   -8.0239   12.6433 C   0  0  0  0  0  0  0  0  0  0  0  0
   17.9977   -9.1322   11.7066 N   0  0  0  0  0  0  0  0  0  0  0  0
   17.7034  -10.4709   12.2084 C   0  0  0  0  0  0  0  0  0  0  0  0
   16.2691  -10.5240   12.7257 C   0  0  0  0  0  0  0  0  0  0  0  0
   15.9866   -8.8777   16.1408 C   0  0  0  0  0  0  0  0  0  0  0  0
   15.2781   -7.8397   16.0527 O   0  0  0  0  0  0  0  0  0  0  0  0
   16.4658   -9.3358   17.3249 N   0  0  0  0  0  0  0  0  0  0  0  0
   17.1487  -10.4349   16.9557 C   0  0  0  0  0  0  0  0  0  0  0  0
   17.0757  -10.6195   15.6018 C   0  0  0  0  0  0  0  0  0  0  0  0
   17.7042  -11.6937   14.9726 C   0  0  0  0  0  0  0  0  0  0  0  0
   18.4237  -12.5921   15.7806 C   0  0  0  0  0  0  0  0  0  0  0  0
   18.4976  -12.3994   17.1775 C   0  0  0  0  0  0  0  0  0  0  0  0
   17.8528  -11.3059   17.7834 C   0  0  0  0  0  0  0  0  0  0  0  0
   16.3349   -9.6302   15.0681 N   0  0  0  0  0  0  0  0  0  0  0  0
   16.3444   -8.9591   18.2263 H   0  0  0  0  0  0  0  0  0  0  0  0
   18.4148   -8.8831   10.3506 C   0  0  0  0  0  0  0  0  0  0  0  0
   19.6490   -8.3454   10.1003 N   0  0  0  0  0  0  0  0  0  0  0  0
   20.0859   -8.0877    8.8260 C   0  0  0  0  0  0  0  0  0  0  0  0
   19.2929   -8.3758    7.7514 N   0  0  0  0  0  0  0  0  0  0  0  0
   18.0706   -8.9070    7.9899 C   0  0  0  0  0  0  0  0  0  0  0  0
   17.1465   -9.2554    7.0897 N   0  0  0  0  0  0  0  0  0  0  0  0
   16.0925   -9.7367    7.7366 N   0  0  0  0  0  0  0  0  0  0  0  0
   16.3425   -9.6979    9.0731 C   0  0  0  0  0  0  0  0  0  0  0  0
   17.6120   -9.1658    9.2406 C   0  0  0  0  0  0  0  0  0  0  0  0
   17.2436   -9.1415    5.6452 C   0  0  0  0  0  0  0  0  0  0  0  0
   21.4461   -7.5243    8.6110 C   0  0  0  0  0  0  0  0  0  0  0  0
   22.4373   -8.2031    9.5352 C   0  0  0  0  0  0  0  0  0  0  0  0
  7  8  2  0  0  0
  7  9  1  0  0  0
  9 10  1  0  0  0
 10 11  2  0  0  0
 11 12  1  0  0  0
 12 13  2  0  0  0
 13 14  1  0  0  0
 14 15  2  0  0  0
 11 16  1  0  0  0
 16  1  1  0  0  0
  1  2  1  0  0  0
  2  3  1  0  0  0
  3  4  1  0  0  0
  4  5  1  0  0  0
  5  6  1  0  0  0
  4 18  1  0  0  0
 18 19  2  0  0  0
 19 20  1  0  0  0
 20 28  1  0  0  0
 28 29  1  0  0  0
 20 21  2  0  0  0
 21 22  1  0  0  0
 22 23  1  0  0  0
 23 24  1  0  0  0
 24 25  2  0  0  0
 25 26  1  0  0  0
 23 27  1  0  0  0
 16  7  1  0  0  0
  6  1  1  0  0  0
 26 18  1  0  0  0
 15 10  1  0  0  0
 26 22  2  0  0  0
  9 17  1  0  0  0
M  END
>  <minimizedAffinity>
7.52491

>  <minimizedRMSD>
1.09563

$$$$
CSC026292380 CSSS00026292380 MCULE-6526219458 MolPort-005-318-269 PubChem-4787026 Z27506131


 36 39  0  0  0  0  0  0  0  0999 V2000
   17.9427  -10.5248   12.2527 N   0  0  0  0  0  0  0  0  0  0  0  0
   17.3105  -10.1749   11.0171 C   0  0  0  0  0  0  0  0  0  0  0  0
   16.1677  -10.6391   10.7533 O   0  0  0  0  0  0  0  0  0  0  0  0
   18.8592  -10.2054   12.4178 H   0  0  0  0  0  0  0  0  0  0  0  0
   17.9753   -9.2916   10.0251 C   0  0  0  0  0  0  0  0  0  0  0  0
   19.2034   -8.6293   10.2498 C   0  0  0  0  0  0  0  0  0  0  0  0
   19.7362   -7.8178    9.2218 C   0  0  0  0  0  0  0  0  0  0  0  0
   20.9540   -7.1481    9.4193 C   0  0  0  0  0  0  0  0  0  0  0  0
   21.6427   -7.2742   10.6265 C   0  0  0  0  0  0  0  0  0  0  0  0
   21.1200   -8.0691   11.6465 C   0  0  0  0  0  0  0  0  0  0  0  0
   19.9099   -8.7399   11.4587 C   0  0  0  0  0  0  0  0  0  0  0  0
   19.0361   -7.6899    8.0164 C   0  0  0  0  0  0  0  0  0  0  0  0
   19.4970   -6.9706    7.0855 O   0  0  0  0  0  0  0  0  0  0  0  0
   17.8505   -8.3463    7.8567 N   0  0  0  0  0  0  0  0  0  0  0  0
   17.3525   -9.1129    8.8286 N   0  0  0  0  0  0  0  0  0  0  0  0
   17.1071   -8.2448    6.6057 C   0  0  0  0  0  0  0  0  0  0  0  0
   18.0267   -8.4091    5.4433 C   0  0  0  0  0  0  0  0  0  0  0  0
   19.3399   -8.8479    5.6460 C   0  0  0  0  0  0  0  0  0  0  0  0
   20.2103   -8.9767    4.5594 C   0  0  0  0  0  0  0  0  0  0  0  0
   19.7705   -8.6619    3.2700 C   0  0  0  0  0  0  0  0  0  0  0  0
   18.4607   -8.2163    3.0670 C   0  0  0  0  0  0  0  0  0  0  0  0
   17.5899   -8.0874    4.1534 C   0  0  0  0  0  0  0  0  0  0  0  0
   18.2428  -12.4194   13.7450 C   0  0  0  0  0  0  0  0  0  0  0  0
   17.2932  -11.3317   13.2776 C   0  0  0  0  0  0  0  0  0  0  0  0
   16.8661  -10.4777   14.4318 C   0  0  0  0  0  0  0  0  0  0  0  0
   16.1597   -9.2961   14.1830 C   0  0  0  0  0  0  0  0  0  0  0  0
   15.7619   -8.4783   15.2444 C   0  0  0  0  0  0  0  0  0  0  0  0
   16.0718   -8.8358   16.5612 C   0  0  0  0  0  0  0  0  0  0  0  0
   16.7761  -10.0180   16.8135 C   0  0  0  0  0  0  0  0  0  0  0  0
   17.1742  -10.8365   15.7531 C   0  0  0  0  0  0  0  0  0  0  0  0
   15.5633   -7.8155   17.8944 S   0  0  0  0  0  0  0  0  0  0  0  0
   15.3116   -8.7859   19.3007 N   0  0  0  0  0  0  0  0  0  0  0  0
   14.2844   -7.1120   17.5362 O   0  0  0  0  0  0  0  0  0  0  0  0
   16.6219   -6.7867   18.1759 O   0  0  0  0  0  0  0  0  0  0  0  0
   14.5929   -9.4836   19.1081 H   0  0  0  0  0  0  0  0  0  0  0  0
   15.0109   -8.1925   20.0739 H   0  0  0  0  0  0  0  0  0  0  0  0
 23 24  1  0  0  0
 24 25  1  0  0  0
 25 26  2  0  0  0
 26 27  1  0  0  0
 27 28  2  0  0  0
 28 31  1  0  0  0
 31 32  1  0  0  0
 31 33  2  0  0  0
 31 34  2  0  0  0
 28 29  1  0  0  0
 29 30  2  0  0  0
 24  1  1  0  0  0
  1  2  1  0  0  0
  2  5  1  0  0  0
  5  6  1  0  0  0
  6  7  1  0  0  0
  7  8  2  0  0  0
  8  9  1  0  0  0
  9 10  2  0  0  0
 10 11  1  0  0  0
  7 12  1  0  0  0
 12 13  2  0  0  0
 12 14  1  0  0  0
 14 16  1  0  0  0
 16 17  1  0  0  0
 17 18  2  0  0  0
 18 19  1  0  0  0
 19 20  2  0  0  0
 20 21  1  0  0  0
 21 22  2  0  0  0
 14 15  1  0  0  0
  2  3  2  0  0  0
 30 25  1  0  0  0
 15  5  2  0  0  0
 11  6  2  0  0  0
 22 17  1  0  0  0
 32 35  1  0  0  0
 32 36  1  0  0  0
  1  4  1  0  0  0
M  END
>  <minimizedAffinity>
7.55385

>  <minimizedRMSD>
3.21890

$$$$
CSC026791059 21574475 CSSS00026791059 MCULE-8130006920 MolPort-009-223-576 PubChem-29605035 Z66766355 ZINC000021574475 ZINC21574475


 36 39  0  0  0  0  0  0  0  0999 V2000
   19.4593   -8.8085   10.5593 O   0  0  0  0  0  0  0  0  0  0  0  0
   20.2467   -8.3310    9.5099 C   0  0  0  0  0  0  0  0  0  0  0  0
   21.4965   -8.2281    9.6522 O   0  0  0  0  0  0  0  0  0  0  0  0
   16.3775   -7.8680    6.8379 N   0  0  0  0  0  0  0  0  0  0  0  0
   16.0533   -8.3623    8.0285 N   0  0  0  0  0  0  0  0  0  0  0  0
   17.1824   -8.4907    8.7756 C   0  0  0  0  0  0  0  0  0  0  0  0
   18.2448   -8.0535    7.9992 C   0  0  0  0  0  0  0  0  0  0  0  0
   19.6197   -7.9447    8.2311 C   0  0  0  0  0  0  0  0  0  0  0  0
   20.3991   -7.4333    7.1725 C   0  0  0  0  0  0  0  0  0  0  0  0
   19.7933   -7.0686    5.9449 C   0  0  0  0  0  0  0  0  0  0  0  0
   18.4387   -7.1853    5.7854 N   0  0  0  0  0  0  0  0  0  0  0  0
   17.7006   -7.6784    6.8100 C   0  0  0  0  0  0  0  0  0  0  0  0
   14.5945   -6.3726    6.1014 C   0  0  0  0  0  0  0  0  0  0  0  0
   15.4361   -7.5877    5.7610 C   0  0  0  0  0  0  0  0  0  0  0  0
   16.1801   -7.3510    4.4606 C   0  0  0  0  0  0  0  0  0  0  0  0
   20.6294   -6.4906    4.8466 C   0  0  0  0  0  0  0  0  0  0  0  0
   21.8918   -7.3153    4.6638 C   0  0  0  0  0  0  0  0  0  0  0  0
   20.7429   -7.4752    3.6954 C   0  0  0  0  0  0  0  0  0  0  0  0
   18.4909   -9.8294   10.3716 C   0  0  0  0  0  0  0  0  0  0  0  0
   17.8435  -10.1411   11.6726 C   0  0  0  0  0  0  0  0  0  0  0  0
   16.5944  -10.2942   11.7192 O   0  0  0  0  0  0  0  0  0  0  0  0
   18.6498  -10.2282   12.8545 N   0  0  0  0  0  0  0  0  0  0  0  0
   19.6187  -10.0981   12.7382 H   0  0  0  0  0  0  0  0  0  0  0  0
   18.1915  -10.4853   14.1887 C   0  0  0  0  0  0  0  0  0  0  0  0
   18.5831  -11.6267   14.9011 C   0  0  0  0  0  0  0  0  0  0  0  0
   18.1143  -11.8441   16.1982 C   0  0  0  0  0  0  0  0  0  0  0  0
   17.2493  -10.9257   16.7995 C   0  0  0  0  0  0  0  0  0  0  0  0
   16.7746  -11.2018   18.1857 C   0  0  0  0  0  0  0  0  0  0  0  0
   16.8492   -9.7745   16.0911 C   0  0  0  0  0  0  0  0  0  0  0  0
   17.3265   -9.5675   14.7910 C   0  0  0  0  0  0  0  0  0  0  0  0
   15.7605   -8.5816   16.7979 S   0  0  0  0  0  0  0  0  0  0  0  0
   16.2983   -8.1753   18.3882 N   0  0  0  0  0  0  0  0  0  0  0  0
   15.7488   -7.3374   15.9544 O   0  0  0  0  0  0  0  0  0  0  0  0
   14.3681   -9.1428   16.8605 O   0  0  0  0  0  0  0  0  0  0  0  0
   17.2436   -7.7949   18.3407 H   0  0  0  0  0  0  0  0  0  0  0  0
   16.2975   -9.0120   18.9716 H   0  0  0  0  0  0  0  0  0  0  0  0
 13 14  1  0  0  0
 14 15  1  0  0  0
 14  4  1  0  0  0
  4  5  1  0  0  0
  5  6  2  0  0  0
  6  7  1  0  0  0
  7  8  2  0  0  0
  8  9  1  0  0  0
  8  2  1  0  0  0
  9 10  2  0  0  0
 10 11  1  0  0  0
 10 16  1  0  0  0
 11 12  2  0  0  0
 12  4  1  0  0  0
 12  7  1  0  0  0
 16 17  1  0  0  0
 17 18  1  0  0  0
 18 16  1  0  0  0
  2  3  2  0  0  0
  2  1  1  0  0  0
  1 19  1  0  0  0
 19 20  1  0  0  0
 20 21  2  0  0  0
 20 22  1  0  0  0
 22 24  1  0  0  0
 24 25  2  0  0  0
 25 26  1  0  0  0
 26 27  2  0  0  0
 27 28  1  0  0  0
 27 29  1  0  0  0
 29 30  2  0  0  0
 29 31  1  0  0  0
 30 24  1  0  0  0
 31 32  1  0  0  0
 31 33  2  0  0  0
 31 34  2  0  0  0
 22 23  1  0  0  0
 32 35  1  0  0  0
 32 36  1  0  0  0
M  END
>  <minimizedAffinity>
7.55507

>  <minimizedRMSD>
1.70236

$$$$
CSSS20447608965


 31 34  0  0  0  0  0  0  0  0999 V2000
   15.7214   -8.3914   13.8474 C   0  0  0  0  0  0  0  0  0  0  0  0
   14.5324   -7.5177   14.1980 C   0  0  0  0  0  0  0  0  0  0  0  0
   14.3351   -6.5794   13.0172 C   0  0  0  0  0  0  0  0  0  0  0  0
   15.0258   -7.2404   11.8411 C   0  0  0  0  0  0  0  0  0  0  0  0
   15.8826   -8.2640   12.4095 N   0  0  0  0  0  0  0  0  0  0  0  0
   16.4551   -9.3121   11.6122 C   0  0  0  0  0  0  0  0  0  0  0  0
   16.4924  -10.4860   12.0729 O   0  0  0  0  0  0  0  0  0  0  0  0
   17.0131   -9.0460   10.2694 C   0  0  0  0  0  0  0  0  0  0  0  0
   18.2051   -8.3019   10.1143 C   0  0  0  0  0  0  0  0  0  0  0  0
   18.6712   -8.1230    8.8197 C   0  0  0  0  0  0  0  0  0  0  0  0
   18.0187   -8.6421    7.7559 C   0  0  0  0  0  0  0  0  0  0  0  0
   16.8801   -9.3671    7.8640 N   0  0  0  0  0  0  0  0  0  0  0  0
   16.3701   -9.5766    9.1166 C   0  0  0  0  0  0  0  0  0  0  0  0
   18.6989   -8.3141    6.6549 N   0  0  0  0  0  0  0  0  0  0  0  0
   18.3857   -8.6505    5.2778 C   0  0  0  0  0  0  0  0  0  0  0  0
   19.7512   -7.6041    7.0507 N   0  0  0  0  0  0  0  0  0  0  0  0
   19.7626   -7.4690    8.3793 N   0  0  0  0  0  0  0  0  0  0  0  0
   16.9543   -7.8551   14.5690 C   0  0  0  0  0  0  0  0  0  0  0  0
   19.0069   -8.5594   15.7676 C   0  0  0  0  0  0  0  0  0  0  0  0
   17.7309   -8.9292   15.1770 N   0  0  0  0  0  0  0  0  0  0  0  0
   17.1163  -10.1984   15.4689 C   0  0  0  0  0  0  0  0  0  0  0  0
   15.8690  -10.3265   15.3328 O   0  0  0  0  0  0  0  0  0  0  0  0
   17.8925  -11.3593   15.9605 C   0  0  0  0  0  0  0  0  0  0  0  0
   18.0618  -11.7473   17.2730 C   0  0  0  0  0  0  0  0  0  0  0  0
   17.5694  -11.0655   18.4218 N   0  0  0  0  0  0  0  0  0  0  0  0
   18.7597  -12.8549   17.3198 O   0  0  0  0  0  0  0  0  0  0  0  0
   19.0657  -13.2569   16.1198 N   0  0  0  0  0  0  0  0  0  0  0  0
   18.5467  -12.3603   15.2563 C   0  0  0  0  0  0  0  0  0  0  0  0
   18.6040  -12.5352   13.7796 C   0  0  0  0  0  0  0  0  0  0  0  0
   17.0502  -10.2357   18.3168 H   0  0  0  0  0  0  0  0  0  0  0  0
   17.7482  -11.4240   19.3211 H   0  0  0  0  0  0  0  0  0  0  0  0
 19 20  1  0  0  0
 20 18  1  0  0  0
 18  1  1  0  0  0
  1  2  1  0  0  0
  2  3  1  0  0  0
  3  4  1  0  0  0
  4  5  1  0  0  0
  5  6  1  0  0  0
  6  7  2  0  0  0
  6  8  1  0  0  0
  8  9  2  0  0  0
  9 10  1  0  0  0
 10 11  2  0  0  0
 11 12  1  0  0  0
 12 13  2  0  0  0
 11 14  1  0  0  0
 14 15  1  0  0  0
 14 16  1  0  0  0
 16 17  2  0  0  0
 20 21  1  0  0  0
 21 22  2  0  0  0
 21 23  1  0  0  0
 23 24  2  0  0  0
 24 25  1  0  0  0
 24 26  1  0  0  0
 26 27  1  0  0  0
 27 28  2  0  0  0
 28 29  1  0  0  0
  5  1  1  0  0  0
 13  8  1  0  0  0
 28 23  1  0  0  0
 17 10  1  0  0  0
 25 30  1  0  0  0
 25 31  1  0  0  0
M  END
>  <minimizedAffinity>
7.62200

>  <minimizedRMSD>
2.45138

$$$$
CSSS00116229566 MCULE-2002081674 PubChem-56803837 Z1165356342


 30 33  0  0  0  0  0  0  0  0999 V2000
   17.8756   -9.1225   10.0231 N   0  0  0  0  0  0  0  0  0  0  0  0
   17.7289  -10.4984   10.4940 C   0  0  0  0  0  0  0  0  0  0  0  0
   16.4950  -10.6156   11.3858 C   0  0  0  0  0  0  0  0  0  0  0  0
   16.4846   -9.5467   12.4883 C   0  0  0  0  0  0  0  0  0  0  0  0
   16.7198   -8.1345   11.9404 C   0  0  0  0  0  0  0  0  0  0  0  0
   17.9505   -8.0756   11.0385 C   0  0  0  0  0  0  0  0  0  0  0  0
   17.3458   -9.8832   13.7176 C   0  0  0  0  0  0  0  0  0  0  0  0
   17.9968  -11.2695   13.6313 C   0  0  0  0  0  0  0  0  0  0  0  0
   18.9176  -11.5292   14.8119 C   0  0  0  0  0  0  0  0  0  0  0  0
   18.1539  -12.2347   15.9230 C   0  0  0  0  0  0  0  0  0  0  0  0
   17.2287  -11.2846   16.6714 C   0  0  0  0  0  0  0  0  0  0  0  0
   16.1083  -10.7744   15.7756 C   0  0  0  0  0  0  0  0  0  0  0  0
   16.5856   -9.6596   14.9584 N   0  0  0  0  0  0  0  0  0  0  0  0
   16.2710   -8.3174   15.3657 C   0  0  0  0  0  0  0  0  0  0  0  0
   16.7032   -7.3336   14.7076 O   0  0  0  0  0  0  0  0  0  0  0  0
   15.4730   -8.0811   16.5228 N   0  0  0  0  0  0  0  0  0  0  0  0
   15.1285   -8.8402   17.0466 H   0  0  0  0  0  0  0  0  0  0  0  0
   15.2663   -7.1588   16.7983 H   0  0  0  0  0  0  0  0  0  0  0  0
   17.6125   -9.0333    6.2744 C   0  0  0  0  0  0  0  0  0  0  0  0
   18.7256   -8.3019    5.9634 N   0  0  0  0  0  0  0  0  0  0  0  0
   19.5234   -7.8662    6.9673 C   0  0  0  0  0  0  0  0  0  0  0  0
   20.6315   -7.1236    6.8185 N   0  0  0  0  0  0  0  0  0  0  0  0
   21.0172   -6.9498    8.1113 C   0  0  0  0  0  0  0  0  0  0  0  0
   20.1781   -7.5581    8.9868 N   0  0  0  0  0  0  0  0  0  0  0  0
   19.2510   -8.1305    8.2446 N   0  0  0  0  0  0  0  0  0  0  0  0
   18.1630   -8.8521    8.6359 C   0  0  0  0  0  0  0  0  0  0  0  0
   17.3077   -9.3174    7.6196 C   0  0  0  0  0  0  0  0  0  0  0  0
   16.6858   -9.5378    5.2074 C   0  0  0  0  0  0  0  0  0  0  0  0
   18.4735   -8.7351    3.6622 C   0  0  0  0  0  0  0  0  0  0  0  0
   16.9842   -8.9741    3.8239 C   0  0  0  0  0  0  0  0  0  0  0  0
 29 30  1  0  0  0
 30 28  1  0  0  0
 28 19  1  0  0  0
 19 20  2  0  0  0
 20 21  1  0  0  0
 21 22  2  0  0  0
 22 23  1  0  0  0
 23 24  2  0  0  0
 24 25  1  0  0  0
 25 26  1  0  0  0
 25 21  1  0  0  0
 26 27  2  0  0  0
 26  1  1  0  0  0
 27 19  1  0  0  0
  1  2  1  0  0  0
  2  3  1  0  0  0
  3  4  1  0  0  0
  4  5  1  0  0  0
  5  6  1  0  0  0
  6  1  1  0  0  0
  7  4  1  0  0  0
  7  8  1  0  0  0
  8  9  1  0  0  0
  9 10  1  0  0  0
 10 11  1  0  0  0
 11 12  1  0  0  0
 12 13  1  0  0  0
 13 14  1  0  0  0
 13  7  1  0  0  0
 14 15  2  0  0  0
 14 16  1  0  0  0
 16 17  1  0  0  0
 16 18  1  0  0  0
M  END
>  <minimizedAffinity>
7.64427

>  <minimizedRMSD>
2.35858

$$$$
CSC025955500 4876424 CSSS00025955500 LN01817850 MCULE-2160290991 MolPort-001-575-174 PubChem-4509563 Z17321524 ZINC000004876424


 30 33  0  0  0  0  0  0  0  0999 V2000
   17.6586   -9.6563   11.9573 C   0  0  0  0  0  0  0  0  0  0  0  0
   16.2898   -9.9474   11.9739 C   0  0  0  0  0  0  0  0  0  0  0  0
   15.4986   -9.7516   10.8357 C   0  0  0  0  0  0  0  0  0  0  0  0
   16.0723   -9.2655    9.7015 N   0  0  0  0  0  0  0  0  0  0  0  0
   17.3945   -8.9648    9.6343 C   0  0  0  0  0  0  0  0  0  0  0  0
   17.9307   -8.4752    8.4397 C   0  0  0  0  0  0  0  0  0  0  0  0
   19.2916   -8.1736    8.3528 C   0  0  0  0  0  0  0  0  0  0  0  0
   20.1224   -8.3626    9.4591 C   0  0  0  0  0  0  0  0  0  0  0  0
   19.5938   -8.8507   10.6569 C   0  0  0  0  0  0  0  0  0  0  0  0
   18.2265   -9.1522   10.7648 C   0  0  0  0  0  0  0  0  0  0  0  0
   14.0541  -10.0668   10.8572 C   0  0  0  0  0  0  0  0  0  0  0  0
   13.5434  -11.0513   11.7196 C   0  0  0  0  0  0  0  0  0  0  0  0
   12.1765  -11.3436   11.7324 C   0  0  0  0  0  0  0  0  0  0  0  0
   11.3070  -10.6548   10.8832 C   0  0  0  0  0  0  0  0  0  0  0  0
   11.8039   -9.6740   10.0213 C   0  0  0  0  0  0  0  0  0  0  0  0
   13.1707   -9.3816   10.0084 C   0  0  0  0  0  0  0  0  0  0  0  0
   18.2537  -10.8402   14.1085 N   0  0  0  0  0  0  0  0  0  0  0  0
   19.1584  -10.5686   15.0651 C   0  0  0  0  0  0  0  0  0  0  0  0
   19.8846   -9.4772   14.7641 N   0  0  0  0  0  0  0  0  0  0  0  0
   19.4389   -9.0299   13.5988 N   0  0  0  0  0  0  0  0  0  0  0  0
   18.4492   -9.8570   13.2008 C   0  0  0  0  0  0  0  0  0  0  0  0
   18.0599  -13.2727   14.2010 C   0  0  0  0  0  0  0  0  0  0  0  0
   17.3141  -11.9558   14.0867 C   0  0  0  0  0  0  0  0  0  0  0  0
   19.3948  -11.5386   16.5542 S   0  0  0  0  0  0  0  0  0  0  0  0
   17.7468  -11.1227   17.2050 C   0  0  0  0  0  0  0  0  0  0  0  0
   17.4137   -9.6981   16.9216 C   0  0  0  0  0  0  0  0  0  0  0  0
   18.3803   -8.6772   17.1435 N   0  0  0  0  0  0  0  0  0  0  0  0
   16.2685   -9.3957   16.4981 O   0  0  0  0  0  0  0  0  0  0  0  0
   19.2771   -8.9121   17.4749 H   0  0  0  0  0  0  0  0  0  0  0  0
   18.1521   -7.7362   16.9656 H   0  0  0  0  0  0  0  0  0  0  0  0
 22 23  1  0  0  0
 23 17  1  0  0  0
 17 18  1  0  0  0
 18 24  1  0  0  0
 24 25  1  0  0  0
 25 26  1  0  0  0
 26 27  1  0  0  0
 26 28  2  0  0  0
 18 19  2  0  0  0
 19 20  1  0  0  0
 20 21  2  0  0  0
 21  1  1  0  0  0
  1  2  2  0  0  0
  2  3  1  0  0  0
  3  4  2  0  0  0
  4  5  1  0  0  0
  5  6  2  0  0  0
  6  7  1  0  0  0
  7  8  2  0  0  0
  8  9  1  0  0  0
  9 10  2  0  0  0
  3 11  1  0  0  0
 11 12  2  0  0  0
 12 13  1  0  0  0
 13 14  2  0  0  0
 14 15  1  0  0  0
 15 16  2  0  0  0
 21 17  1  0  0  0
 10  1  1  0  0  0
 16 11  1  0  0  0
 10  5  1  0  0  0
 27 29  1  0  0  0
 27 30  1  0  0  0
M  END
>  <minimizedAffinity>
7.68726

>  <minimizedRMSD>
2.35988

$$$$
CSC027788989 CSSS00027788989 MCULE-4520301392 MolPort-005-704-749 PubChem-42906814 Z28457004


 34 36  0  0  0  0  0  0  0  0999 V2000
   17.8068   -9.2239    9.4296 C   0  0  0  0  0  0  0  0  0  0  0  0
   16.5818   -9.5218    9.4667 O   0  0  0  0  0  0  0  0  0  0  0  0
   18.6200   -9.3807   10.6032 N   0  0  0  0  0  0  0  0  0  0  0  0
   19.5770   -9.1714   10.5055 H   0  0  0  0  0  0  0  0  0  0  0  0
   18.0239   -8.4710    5.8213 N   0  0  0  0  0  0  0  0  0  0  0  0
   17.6152   -8.8576    7.0310 N   0  0  0  0  0  0  0  0  0  0  0  0
   18.3838   -8.7393    8.1484 C   0  0  0  0  0  0  0  0  0  0  0  0
   19.6710   -8.1692    8.0216 C   0  0  0  0  0  0  0  0  0  0  0  0
   20.5311   -7.9966    9.1184 C   0  0  0  0  0  0  0  0  0  0  0  0
   21.7935   -7.4223    8.9575 C   0  0  0  0  0  0  0  0  0  0  0  0
   22.2156   -7.0081    7.6942 C   0  0  0  0  0  0  0  0  0  0  0  0
   21.3747   -7.1677    6.5921 C   0  0  0  0  0  0  0  0  0  0  0  0
   20.1039   -7.7448    6.7442 C   0  0  0  0  0  0  0  0  0  0  0  0
   19.2534   -7.9033    5.6437 C   0  0  0  0  0  0  0  0  0  0  0  0
   19.6195   -7.5205    4.4964 O   0  0  0  0  0  0  0  0  0  0  0  0
   17.1061   -8.6487    4.7015 C   0  0  0  0  0  0  0  0  0  0  0  0
   18.4320   -7.9331    2.7360 C   0  0  0  0  0  0  0  0  0  0  0  0
   17.8591   -9.1260    3.4718 C   0  0  0  0  0  0  0  0  0  0  0  0
   18.1883   -9.8092   11.9015 C   0  0  0  0  0  0  0  0  0  0  0  0
   19.1538  -10.1939   12.8385 C   0  0  0  0  0  0  0  0  0  0  0  0
   18.7723  -10.6156   14.1152 C   0  0  0  0  0  0  0  0  0  0  0  0
   17.4183  -10.6568   14.4646 C   0  0  0  0  0  0  0  0  0  0  0  0
   16.4489  -10.2671   13.5354 C   0  0  0  0  0  0  0  0  0  0  0  0
   16.8318   -9.8463   12.2594 C   0  0  0  0  0  0  0  0  0  0  0  0
   16.9307  -11.1597   16.0740 S   0  0  0  0  0  0  0  0  0  0  0  0
   16.4143  -12.5696   16.0124 O   0  0  0  0  0  0  0  0  0  0  0  0
   18.1121  -11.1183   17.0047 O   0  0  0  0  0  0  0  0  0  0  0  0
   15.6793  -10.1153   16.6656 N   0  0  0  0  0  0  0  0  0  0  0  0
   15.1620  -10.5847   17.4089 H   0  0  0  0  0  0  0  0  0  0  0  0
   16.2979   -8.9032   17.1869 C   0  0  0  0  0  0  0  0  0  0  0  0
   15.2783   -8.1105   17.9813 C   0  0  0  0  0  0  0  0  0  0  0  0
   16.8628   -8.0539   16.0534 C   0  0  0  0  0  0  0  0  0  0  0  0
   15.9035   -7.1592   15.5748 O   0  0  0  0  0  0  0  0  0  0  0  0
   15.8873   -7.3701   14.1968 C   0  0  0  0  0  0  0  0  0  0  0  0
 17 18  1  0  0  0
 18 16  1  0  0  0
 16  5  1  0  0  0
  5  6  1  0  0  0
  6  7  2  0  0  0
  7  1  1  0  0  0
  7  8  1  0  0  0
  1  2  2  0  0  0
  1  3  1  0  0  0
  3 19  1  0  0  0
 19 20  2  0  0  0
 20 21  1  0  0  0
 21 22  2  0  0  0
 22 23  1  0  0  0
 22 25  1  0  0  0
 23 24  2  0  0  0
 24 19  1  0  0  0
 25 26  2  0  0  0
 25 27  2  0  0  0
 25 28  1  0  0  0
 30 28  1  0  0  0
 30 31  1  0  0  0
 30 32  1  0  0  0
 32 33  1  0  0  0
 33 34  1  0  0  0
  8  9  2  0  0  0
  9 10  1  0  0  0
 10 11  2  0  0  0
 11 12  1  0  0  0
 12 13  2  0  0  0
 13 14  1  0  0  0
 13  8  1  0  0  0
 14 15  2  0  0  0
 14  5  1  0  0  0
  3  4  1  0  0  0
 28 29  1  0  0  0
M  END
>  <minimizedAffinity>
7.68847

>  <minimizedRMSD>
2.53683

$$$$
CSSS09811028252


 32 35  0  0  0  0  0  0  0  0999 V2000
   19.3122   -9.4580   10.4749 C   0  0  0  0  0  0  0  0  0  0  0  0
   20.1367   -8.3814   11.0870 C   0  0  0  0  0  0  0  0  0  0  0  0
   20.1397   -7.8353    9.7035 C   0  0  0  0  0  0  0  0  0  0  0  0
   19.3027   -8.8937    9.1142 N   0  0  0  0  0  0  0  0  0  0  0  0
   18.7534   -9.2400    7.8394 C   0  0  0  0  0  0  0  0  0  0  0  0
   18.0790  -10.2984    7.7369 O   0  0  0  0  0  0  0  0  0  0  0  0
   18.9636   -8.3796    6.6519 C   0  0  0  0  0  0  0  0  0  0  0  0
   17.9071   -7.7394    5.9888 C   0  0  0  0  0  0  0  0  0  0  0  0
   16.5917   -7.7621    6.2565 N   0  0  0  0  0  0  0  0  0  0  0  0
   16.0237   -6.9913    5.3310 N   0  0  0  0  0  0  0  0  0  0  0  0
   16.9184   -6.4801    4.4877 N   0  0  0  0  0  0  0  0  0  0  0  0
   18.1039   -6.9495    4.8998 C   0  0  0  0  0  0  0  0  0  0  0  0
   19.3638   -6.7159    4.3613 C   0  0  0  0  0  0  0  0  0  0  0  0
   20.4557   -7.3380    4.9943 C   0  0  0  0  0  0  0  0  0  0  0  0
   21.7080   -7.1475    4.5150 F   0  0  0  0  0  0  0  0  0  0  0  0
   20.2560   -8.1602    6.1270 C   0  0  0  0  0  0  0  0  0  0  0  0
   16.7456   -5.8838    3.7236 H   0  0  0  0  0  0  0  0  0  0  0  0
   17.9099   -9.4414   11.0644 C   0  0  0  0  0  0  0  0  0  0  0  0
   16.9863   -9.6357   13.3997 C   0  0  0  0  0  0  0  0  0  0  0  0
   16.0424   -8.8551   13.0979 O   0  0  0  0  0  0  0  0  0  0  0  0
   17.9284  -10.0233   12.3966 N   0  0  0  0  0  0  0  0  0  0  0  0
   18.6076  -10.7022   12.6137 H   0  0  0  0  0  0  0  0  0  0  0  0
   16.1644   -7.9974   15.6476 N   0  0  0  0  0  0  0  0  0  0  0  0
   16.7086   -9.2951   15.8745 C   0  0  0  0  0  0  0  0  0  0  0  0
   16.8541   -9.7322   17.1933 C   0  0  0  0  0  0  0  0  0  0  0  0
   17.4092  -10.9798   17.4670 C   0  0  0  0  0  0  0  0  0  0  0  0
   17.8235  -11.7997   16.4201 C   0  0  0  0  0  0  0  0  0  0  0  0
   17.6932  -11.3812   15.0930 C   0  0  0  0  0  0  0  0  0  0  0  0
   18.1879  -12.5215   13.8507 Cl  0  0  0  0  0  0  0  0  0  0  0  0
   17.1316  -10.1134   14.7985 C   0  0  0  0  0  0  0  0  0  0  0  0
   15.8762   -7.4443   16.4094 H   0  0  0  0  0  0  0  0  0  0  0  0
   16.0767   -7.6540   14.7291 H   0  0  0  0  0  0  0  0  0  0  0  0
 23 24  1  0  0  0
 24 25  2  0  0  0
 25 26  1  0  0  0
 26 27  2  0  0  0
 27 28  1  0  0  0
 28 29  1  0  0  0
 28 30  2  0  0  0
 30 19  1  0  0  0
 19 20  2  0  0  0
 19 21  1  0  0  0
 21 18  1  0  0  0
 18  1  1  0  0  0
  1  2  1  0  0  0
  2  3  1  0  0  0
  3  4  1  0  0  0
  4  5  1  0  0  0
  5  6  2  0  0  0
  5  7  1  0  0  0
  7  8  2  0  0  0
  8  9  1  0  0  0
  9 10  2  0  0  0
 10 11  1  0  0  0
 11 12  1  0  0  0
 12 13  2  0  0  0
 13 14  1  0  0  0
 14 15  1  0  0  0
 14 16  2  0  0  0
 30 24  1  0  0  0
  4  1  1  0  0  0
 16  7  1  0  0  0
 12  8  1  0  0  0
 23 31  1  0  0  0
 23 32  1  0  0  0
 21 22  1  0  0  0
 11 17  1  0  0  0
M  END
>  <minimizedAffinity>
7.86773

>  <minimizedRMSD>
3.41614

$$$$
CSC026155006 CSSS00026155006 MCULE-9825653507 MolPort-004-174-383 PubChem-16316473 Z20246807


 30 33  0  0  0  0  0  0  0  0999 V2000
   16.6454  -14.0660   17.5100 C   0  0  0  0  0  0  0  0  0  0  0  0
   16.5561  -13.0228   16.4166 C   0  0  0  0  0  0  0  0  0  0  0  0
   17.8639  -13.0060   15.6167 C   0  0  0  0  0  0  0  0  0  0  0  0
   17.9902  -11.7569   14.7978 C   0  0  0  0  0  0  0  0  0  0  0  0
   17.1991  -10.6225   14.9565 C   0  0  0  0  0  0  0  0  0  0  0  0
   17.5556   -9.5622   14.0918 C   0  0  0  0  0  0  0  0  0  0  0  0
   18.6557   -9.8934   13.2890 C   0  0  0  0  0  0  0  0  0  0  0  0
   19.1620  -11.4657   13.6367 S   0  0  0  0  0  0  0  0  0  0  0  0
   16.0501  -10.6149   15.9262 C   0  0  0  0  0  0  0  0  0  0  0  0
   16.2562  -11.6544   17.0303 C   0  0  0  0  0  0  0  0  0  0  0  0
   16.8637   -8.2490   14.0323 C   0  0  0  0  0  0  0  0  0  0  0  0
   16.9274   -7.3353   15.1226 N   0  0  0  0  0  0  0  0  0  0  0  0
   16.2062   -7.9220   13.0092 O   0  0  0  0  0  0  0  0  0  0  0  0
   17.4356   -7.5700   15.9324 H   0  0  0  0  0  0  0  0  0  0  0  0
   16.4633   -6.4689   15.0665 H   0  0  0  0  0  0  0  0  0  0  0  0
   19.2500   -9.0175   12.3206 N   0  0  0  0  0  0  0  0  0  0  0  0
   19.2253   -9.1781   10.8979 C   0  0  0  0  0  0  0  0  0  0  0  0
   18.6722  -10.1736   10.3612 O   0  0  0  0  0  0  0  0  0  0  0  0
   19.7221   -8.2270   12.6691 H   0  0  0  0  0  0  0  0  0  0  0  0
   19.8528   -8.1403   10.0339 C   0  0  0  0  0  0  0  0  0  0  0  0
   18.6019   -6.9496    9.4570 S   0  0  0  0  0  0  0  0  0  0  0  0
   18.1256   -7.9610    8.0539 C   0  0  0  0  0  0  0  0  0  0  0  0
   18.8033   -7.8898    6.8362 C   0  0  0  0  0  0  0  0  0  0  0  0
   18.3835   -8.6951    5.8044 C   0  0  0  0  0  0  0  0  0  0  0  0
   19.3389   -8.4396    4.4588 S   0  0  0  0  0  0  0  0  0  0  0  0
   20.3297   -7.2714    5.1898 C   0  0  0  0  0  0  0  0  0  0  0  0
   19.8986   -7.0824    6.5084 C   0  0  0  0  0  0  0  0  0  0  0  0
   17.3376   -9.5469    5.9242 N   0  0  0  0  0  0  0  0  0  0  0  0
   16.6801   -9.6077    7.1169 C   0  0  0  0  0  0  0  0  0  0  0  0
   17.0730   -8.8221    8.1647 N   0  0  0  0  0  0  0  0  0  0  0  0
  1  2  1  0  0  0
  2  3  1  0  0  0
  3  4  1  0  0  0
  4  5  2  0  0  0
  5  6  1  0  0  0
  6  7  2  0  0  0
  7  8  1  0  0  0
  7 16  1  0  0  0
 16 17  1  0  0  0
 17 20  1  0  0  0
 20 21  1  0  0  0
 21 22  1  0  0  0
 22 23  1  0  0  0
 23 24  2  0  0  0
 24 25  1  0  0  0
 25 26  1  0  0  0
 26 27  2  0  0  0
 24 28  1  0  0  0
 28 29  2  0  0  0
 29 30  1  0  0  0
 17 18  2  0  0  0
  6 11  1  0  0  0
 11 12  1  0  0  0
 11 13  2  0  0  0
  5  9  1  0  0  0
  9 10  1  0  0  0
 10  2  1  0  0  0
  8  4  1  0  0  0
 30 22  2  0  0  0
 27 23  1  0  0  0
 16 19  1  0  0  0
 12 14  1  0  0  0
 12 15  1  0  0  0
M  END
>  <minimizedAffinity>
7.95510

>  <minimizedRMSD>
2.39609

$$$$
CSC027955968 CSSS00027955968 MCULE-2332375260 MolPort-004-180-431 PubChem-16321534 Z24317415


 35 39  0  0  0  0  0  0  0  0999 V2000
   16.3188   -9.8991   14.6288 C   0  0  0  0  0  0  0  0  0  0  0  0
   17.5778  -10.4068   14.1029 N   0  0  0  0  0  0  0  0  0  0  0  0
   18.5658  -10.9969   14.7965 C   0  0  0  0  0  0  0  0  0  0  0  0
   19.5665  -11.3937   13.9898 N   0  0  0  0  0  0  0  0  0  0  0  0
   19.2205  -11.0556   12.7559 N   0  0  0  0  0  0  0  0  0  0  0  0
   18.0115  -10.4593   12.8245 C   0  0  0  0  0  0  0  0  0  0  0  0
   17.2942   -9.9076   11.6439 C   0  0  0  0  0  0  0  0  0  0  0  0
   17.9649   -9.3012   10.5563 C   0  0  0  0  0  0  0  0  0  0  0  0
   19.3654   -9.2184   10.4929 C   0  0  0  0  0  0  0  0  0  0  0  0
   19.9944   -8.6201    9.3983 C   0  0  0  0  0  0  0  0  0  0  0  0
   19.2314   -8.1016    8.3497 C   0  0  0  0  0  0  0  0  0  0  0  0
   17.8378   -8.1818    8.3920 C   0  0  0  0  0  0  0  0  0  0  0  0
   17.2012   -8.7781    9.4844 C   0  0  0  0  0  0  0  0  0  0  0  0
   15.8460   -8.8570    9.5085 N   0  0  0  0  0  0  0  0  0  0  0  0
   15.1739   -9.4342   10.5413 C   0  0  0  0  0  0  0  0  0  0  0  0
   15.8958   -9.9631   11.6180 C   0  0  0  0  0  0  0  0  0  0  0  0
   13.6967   -9.4938   10.5199 C   0  0  0  0  0  0  0  0  0  0  0  0
   13.0162  -10.6631   10.8984 C   0  0  0  0  0  0  0  0  0  0  0  0
   11.6193  -10.7100   10.8756 C   0  0  0  0  0  0  0  0  0  0  0  0
   10.8891   -9.5882   10.4749 C   0  0  0  0  0  0  0  0  0  0  0  0
    9.4041   -9.6375   10.4524 C   0  0  0  0  0  0  0  0  0  0  0  0
   11.5551   -8.4195   10.0983 C   0  0  0  0  0  0  0  0  0  0  0  0
   12.9522   -8.3730   10.1206 C   0  0  0  0  0  0  0  0  0  0  0  0
   18.5696  -11.2359   16.5739 S   0  0  0  0  0  0  0  0  0  0  0  0
   16.8434  -10.6847   16.7551 C   0  0  0  0  0  0  0  0  0  0  0  0
   16.7850   -9.3133   17.3347 C   0  0  0  0  0  0  0  0  0  0  0  0
   17.7687   -8.5389   17.1937 O   0  0  0  0  0  0  0  0  0  0  0  0
   15.6172   -8.8859   18.0399 N   0  0  0  0  0  0  0  0  0  0  0  0
   14.8651   -9.5143   18.1338 H   0  0  0  0  0  0  0  0  0  0  0  0
   15.4959   -7.5576   18.6251 C   0  0  0  0  0  0  0  0  0  0  0  0
   14.1024   -7.3504   19.1972 C   0  0  0  0  0  0  0  0  0  0  0  0
   14.1816   -6.9615   20.6499 C   0  0  0  0  0  0  0  0  0  0  0  0
   12.9531   -6.1367   20.8304 C   0  0  0  0  0  0  0  0  0  0  0  0
   12.6370   -5.6501   19.4324 C   0  0  0  0  0  0  0  0  0  0  0  0
   13.4467   -6.3259   18.4966 O   0  0  0  0  0  0  0  0  0  0  0  0
  1  2  1  0  0  0
  2  3  1  0  0  0
  3 24  1  0  0  0
  3  4  2  0  0  0
 24 25  1  0  0  0
 25 26  1  0  0  0
 26 27  2  0  0  0
 26 28  1  0  0  0
 28 30  1  0  0  0
 31 30  1  0  0  0
 31 32  1  0  0  0
 32 33  1  0  0  0
 33 34  1  0  0  0
 34 35  1  0  0  0
 35 31  1  0  0  0
  4  5  1  0  0  0
  5  6  2  0  0  0
  6  7  1  0  0  0
  6  2  1  0  0  0
  7  8  1  0  0  0
  8  9  2  0  0  0
  9 10  1  0  0  0
 10 11  2  0  0  0
 11 12  1  0  0  0
 12 13  2  0  0  0
 13 14  1  0  0  0
 13  8  1  0  0  0
 14 15  2  0  0  0
 15 16  1  0  0  0
 15 17  1  0  0  0
 16  7  2  0  0  0
 17 18  2  0  0  0
 18 19  1  0  0  0
 19 20  2  0  0  0
 20 21  1  0  0  0
 20 22  1  0  0  0
 22 23  2  0  0  0
 23 17  1  0  0  0
 28 29  1  0  0  0
M  END
>  <minimizedAffinity>
7.98375

>  <minimizedRMSD>
2.44342

$$$$
CSSS20572397863


 35 39  0  0  0  0  0  0  0  0999 V2000
   16.5613   -9.8249    9.3388 C   0  0  0  0  0  0  0  0  0  0  0  0
   16.7324   -9.4143    8.0424 N   0  0  0  0  0  0  0  0  0  0  0  0
   17.8398   -8.6984    7.7349 C   0  0  0  0  0  0  0  0  0  0  0  0
   18.1749   -8.2176    6.5302 N   0  0  0  0  0  0  0  0  0  0  0  0
   19.3340   -7.5925    6.7118 N   0  0  0  0  0  0  0  0  0  0  0  0
   20.0552   -6.9225    5.6462 C   0  0  0  0  0  0  0  0  0  0  0  0
   19.7513   -7.6603    8.0007 C   0  0  0  0  0  0  0  0  0  0  0  0
   18.7787   -8.3786    8.6613 C   0  0  0  0  0  0  0  0  0  0  0  0
   18.6221   -8.7856    9.9771 C   0  0  0  0  0  0  0  0  0  0  0  0
   17.5029   -9.5059   10.2882 N   0  0  0  0  0  0  0  0  0  0  0  0
   15.3169  -12.0042    9.3766 C   0  0  0  0  0  0  0  0  0  0  0  0
   15.4028  -10.5897    9.7051 N   0  0  0  0  0  0  0  0  0  0  0  0
   14.3051   -9.9789   10.4456 C   0  0  0  0  0  0  0  0  0  0  0  0
   14.6926   -9.7599   11.8756 C   0  0  0  0  0  0  0  0  0  0  0  0
   14.0781  -10.4737   12.9233 C   0  0  0  0  0  0  0  0  0  0  0  0
   12.9913  -11.4613   12.6636 C   0  0  0  0  0  0  0  0  0  0  0  0
   14.4820  -10.2527   14.2441 C   0  0  0  0  0  0  0  0  0  0  0  0
   15.4925   -9.3301   14.5277 C   0  0  0  0  0  0  0  0  0  0  0  0
   15.9162   -9.1014   15.9334 C   0  0  0  0  0  0  0  0  0  0  0  0
   16.1039   -8.6229   13.4901 C   0  0  0  0  0  0  0  0  0  0  0  0
   15.7054   -8.8384   12.1686 C   0  0  0  0  0  0  0  0  0  0  0  0
   19.5991   -8.4684   10.9686 N   0  0  0  0  0  0  0  0  0  0  0  0
   19.7201   -7.5291   11.2375 H   0  0  0  0  0  0  0  0  0  0  0  0
   20.4205   -9.4932   11.5924 C   0  0  0  0  0  0  0  0  0  0  0  0
   19.8422   -9.8665   12.9107 C   0  0  0  0  0  0  0  0  0  0  0  0
   19.2226  -11.1174   13.0738 C   0  0  0  0  0  0  0  0  0  0  0  0
   18.6758  -11.4122   14.3209 C   0  0  0  0  0  0  0  0  0  0  0  0
   18.7212  -10.5267   15.3699 C   0  0  0  0  0  0  0  0  0  0  0  0
   18.0567  -11.0983   16.5862 C   0  0  0  0  0  0  0  0  0  0  0  0
   17.6066  -12.4256   16.1507 N   0  0  0  0  0  0  0  0  0  0  0  0
   17.9908  -12.5855   14.7903 C   0  0  0  0  0  0  0  0  0  0  0  0
   17.7536  -13.6186   14.1115 O   0  0  0  0  0  0  0  0  0  0  0  0
   19.3237   -9.2775   15.2271 C   0  0  0  0  0  0  0  0  0  0  0  0
   19.8863   -8.9492   13.9814 C   0  0  0  0  0  0  0  0  0  0  0  0
   17.1258  -13.0858   16.7004 H   0  0  0  0  0  0  0  0  0  0  0  0
 11 12  1  0  0  0
 12 13  1  0  0  0
 13 14  1  0  0  0
 14 15  2  0  0  0
 15 16  1  0  0  0
 15 17  1  0  0  0
 17 18  2  0  0  0
 18 19  1  0  0  0
 18 20  1  0  0  0
 20 21  2  0  0  0
 12  1  1  0  0  0
  1  2  2  0  0  0
  2  3  1  0  0  0
  3  4  2  0  0  0
  4  5  1  0  0  0
  5  6  1  0  0  0
  5  7  1  0  0  0
  7  8  2  0  0  0
  8  9  1  0  0  0
  9 22  1  0  0  0
 22 24  1  0  0  0
 24 25  1  0  0  0
 25 26  2  0  0  0
 26 27  1  0  0  0
 27 28  2  0  0  0
 28 29  1  0  0  0
 29 30  1  0  0  0
 30 31  1  0  0  0
 31 32  2  0  0  0
 28 33  1  0  0  0
 33 34  2  0  0  0
  9 10  2  0  0  0
 21 14  1  0  0  0
 10  1  1  0  0  0
  8  3  1  0  0  0
 34 25  1  0  0  0
 31 27  1  0  0  0
 22 23  1  0  0  0
 30 35  1  0  0  0
M  END
>  <minimizedAffinity>
8.23624

>  <minimizedRMSD>
4.67994

$$$$
CSC028099967 2886813 CSSS00028099967 MCULE-6017025979 MolPort-000-489-293 PubChem-2239021 Z56844032 ZINC000002886813


 31 34  0  0  0  0  0  0  0  0999 V2000
   17.8096  -10.3675   14.3915 C   0  0  0  0  0  0  0  0  0  0  0  0
   18.0535  -11.7118   15.3750 S   0  0  0  0  0  0  0  0  0  0  0  0
   17.0177  -11.2112   16.6066 C   0  0  0  0  0  0  0  0  0  0  0  0
   16.4637   -9.9805   16.2612 C   0  0  0  0  0  0  0  0  0  0  0  0
   16.9072   -9.5054   15.0162 C   0  0  0  0  0  0  0  0  0  0  0  0
   16.7406  -11.9552   17.8482 C   0  0  0  0  0  0  0  0  0  0  0  0
   15.7879  -12.9844   17.8613 C   0  0  0  0  0  0  0  0  0  0  0  0
   15.5250  -13.6901   19.0390 C   0  0  0  0  0  0  0  0  0  0  0  0
   16.2130  -13.3718   20.2128 C   0  0  0  0  0  0  0  0  0  0  0  0
   17.1639  -12.3478   20.2092 C   0  0  0  0  0  0  0  0  0  0  0  0
   17.4268  -11.6422   19.0314 C   0  0  0  0  0  0  0  0  0  0  0  0
   16.4439   -8.2215   14.4559 C   0  0  0  0  0  0  0  0  0  0  0  0
   16.7428   -7.0005   15.1257 N   0  0  0  0  0  0  0  0  0  0  0  0
   15.7821   -8.1880   13.3851 O   0  0  0  0  0  0  0  0  0  0  0  0
   17.2594   -7.0124   15.9637 H   0  0  0  0  0  0  0  0  0  0  0  0
   16.4327   -6.1446   14.7507 H   0  0  0  0  0  0  0  0  0  0  0  0
   18.4129  -10.1339   13.1114 N   0  0  0  0  0  0  0  0  0  0  0  0
   17.7629  -10.2189   11.8383 C   0  0  0  0  0  0  0  0  0  0  0  0
   16.5517  -10.5492   11.7432 O   0  0  0  0  0  0  0  0  0  0  0  0
   19.3670   -9.8914   13.1077 H   0  0  0  0  0  0  0  0  0  0  0  0
   18.5286   -9.8932   10.6038 C   0  0  0  0  0  0  0  0  0  0  0  0
   18.2088   -8.1762   10.0929 S   0  0  0  0  0  0  0  0  0  0  0  0
   17.9195   -8.6302    8.3835 C   0  0  0  0  0  0  0  0  0  0  0  0
   16.9065   -9.4235    7.9687 N   0  0  0  0  0  0  0  0  0  0  0  0
   17.0085   -9.5393    6.6466 N   0  0  0  0  0  0  0  0  0  0  0  0
   18.0822   -8.8111    6.2887 C   0  0  0  0  0  0  0  0  0  0  0  0
   18.5818   -8.6349    5.0018 C   0  0  0  0  0  0  0  0  0  0  0  0
   19.7241   -7.8265    4.8658 C   0  0  0  0  0  0  0  0  0  0  0  0
   20.3224   -7.2301    5.9952 C   0  0  0  0  0  0  0  0  0  0  0  0
   19.7693   -7.4476    7.2663 C   0  0  0  0  0  0  0  0  0  0  0  0
   18.6677   -8.2339    7.3445 N   0  0  0  0  0  0  0  0  0  0  0  0
  1 17  1  0  0  0
 17 18  1  0  0  0
 18 21  1  0  0  0
 21 22  1  0  0  0
 22 23  1  0  0  0
 23 24  2  0  0  0
 24 25  1  0  0  0
 25 26  2  0  0  0
 26 27  1  0  0  0
 27 28  2  0  0  0
 28 29  1  0  0  0
 29 30  2  0  0  0
 30 31  1  0  0  0
 18 19  2  0  0  0
  1  2  1  0  0  0
  2  3  1  0  0  0
  3  4  2  0  0  0
  4  5  1  0  0  0
  5 12  1  0  0  0
 12 13  1  0  0  0
 12 14  2  0  0  0
  3  6  1  0  0  0
  6  7  2  0  0  0
  7  8  1  0  0  0
  8  9  2  0  0  0
  9 10  1  0  0  0
 10 11  2  0  0  0
  5  1  2  0  0  0
 11  6  1  0  0  0
 31 23  1  0  0  0
 31 26  1  0  0  0
 17 20  1  0  0  0
 13 15  1  0  0  0
 13 16  1  0  0  0
M  END
>  <minimizedAffinity>
8.32656

>  <minimizedRMSD>
2.35107

$$$$
CSC027285001 25466306 CSSS00027285001 MCULE-7814495456 MolPort-007-218-807 PubChem-32770156 Z242136366 ZINC000025466306 ZINC25466306


 34 37  0  0  0  0  0  0  0  0999 V2000
   16.3728   -9.0153   12.6721 C   0  0  0  0  0  0  0  0  0  0  0  0
   15.2839   -8.4731   13.0033 O   0  0  0  0  0  0  0  0  0  0  0  0
   17.2380   -9.5814   13.6651 N   0  0  0  0  0  0  0  0  0  0  0  0
   18.1028   -9.9252   13.3437 H   0  0  0  0  0  0  0  0  0  0  0  0
   18.4260   -8.2681    9.5769 C   0  0  0  0  0  0  0  0  0  0  0  0
   17.9587   -8.2706   10.9090 C   0  0  0  0  0  0  0  0  0  0  0  0
   16.7949   -8.9835   11.2609 C   0  0  0  0  0  0  0  0  0  0  0  0
   16.1333   -9.6632   10.2230 C   0  0  0  0  0  0  0  0  0  0  0  0
   14.9431  -10.3774   10.1025 C   0  0  0  0  0  0  0  0  0  0  0  0
   13.9039  -10.6016   11.1434 C   0  0  0  0  0  0  0  0  0  0  0  0
   14.7791  -10.7583    8.8117 N   0  0  0  0  0  0  0  0  0  0  0  0
   15.8192  -10.3126    8.1207 N   0  0  0  0  0  0  0  0  0  0  0  0
   15.9873  -10.4904    6.6891 C   0  0  0  0  0  0  0  0  0  0  0  0
   16.6319   -9.6430    8.9490 C   0  0  0  0  0  0  0  0  0  0  0  0
   17.7521   -8.9601    8.6083 N   0  0  0  0  0  0  0  0  0  0  0  0
   20.8824   -8.1577    9.8616 C   0  0  0  0  0  0  0  0  0  0  0  0
   19.6636   -7.5024    9.2405 C   0  0  0  0  0  0  0  0  0  0  0  0
   19.8398   -7.4061    7.7370 C   0  0  0  0  0  0  0  0  0  0  0  0
   16.9899   -9.7053   15.0738 C   0  0  0  0  0  0  0  0  0  0  0  0
   16.3492   -8.6750   15.7788 C   0  0  0  0  0  0  0  0  0  0  0  0
   16.0551   -8.8003   17.1409 C   0  0  0  0  0  0  0  0  0  0  0  0
   16.3970   -9.9811   17.8054 C   0  0  0  0  0  0  0  0  0  0  0  0
   17.0330  -11.0155   17.1192 C   0  0  0  0  0  0  0  0  0  0  0  0
   17.3463  -10.8938   15.7563 C   0  0  0  0  0  0  0  0  0  0  0  0
   18.0090  -11.9884   15.0921 N   0  0  0  0  0  0  0  0  0  0  0  0
   18.8992  -11.8388   13.9562 C   0  0  0  0  0  0  0  0  0  0  0  0
   19.5589  -13.1897   13.7616 C   0  0  0  0  0  0  0  0  0  0  0  0
   18.7713  -14.1764   14.6086 C   0  0  0  0  0  0  0  0  0  0  0  0
   17.9759  -13.3476   15.5974 C   0  0  0  0  0  0  0  0  0  0  0  0
   15.3846   -7.7048   17.8627 C   0  0  0  0  0  0  0  0  0  0  0  0
   15.8457   -7.2986   19.1482 N   0  0  0  0  0  0  0  0  0  0  0  0
   14.3961   -7.1159   17.3494 O   0  0  0  0  0  0  0  0  0  0  0  0
   16.6171   -7.7509   19.5599 H   0  0  0  0  0  0  0  0  0  0  0  0
   15.3928   -6.5657   19.6246 H   0  0  0  0  0  0  0  0  0  0  0  0
 16 17  1  0  0  0
 17 18  1  0  0  0
 17  5  1  0  0  0
  5  6  2  0  0  0
  6  7  1  0  0  0
  7  1  1  0  0  0
  7  8  2  0  0  0
  1  2  2  0  0  0
  1  3  1  0  0  0
  3 19  1  0  0  0
 19 20  2  0  0  0
 20 21  1  0  0  0
 21 22  2  0  0  0
 21 30  1  0  0  0
 22 23  1  0  0  0
 23 24  2  0  0  0
 24 25  1  0  0  0
 24 19  1  0  0  0
 25 26  1  0  0  0
 26 27  1  0  0  0
 27 28  1  0  0  0
 28 29  1  0  0  0
 29 25  1  0  0  0
 30 31  1  0  0  0
 30 32  2  0  0  0
  8  9  1  0  0  0
  9 10  1  0  0  0
  9 11  2  0  0  0
 11 12  1  0  0  0
 12 13  1  0  0  0
 12 14  1  0  0  0
 14 15  2  0  0  0
 14  8  1  0  0  0
 15  5  1  0  0  0
  3  4  1  0  0  0
 31 33  1  0  0  0
 31 34  1  0  0  0
M  END
>  <minimizedAffinity>
8.35641

>  <minimizedRMSD>
1.93622

$$$$
CSC026789130 21498449 CSSS00026789130 MCULE-7689928309 MolPort-009-223-328 PubChem-29540301 Z66549257 ZINC000021498449


 31 34  0  0  0  0  0  0  0  0999 V2000
   17.1848  -10.0204   11.7081 C   0  0  0  0  0  0  0  0  0  0  0  0
   17.8962   -9.3885   10.6613 C   0  0  0  0  0  0  0  0  0  0  0  0
   17.1713   -8.7997    9.5963 C   0  0  0  0  0  0  0  0  0  0  0  0
   17.8484   -8.1748    8.5451 C   0  0  0  0  0  0  0  0  0  0  0  0
   19.2442   -8.1322    8.5357 C   0  0  0  0  0  0  0  0  0  0  0  0
   19.9689   -8.7166    9.5765 C   0  0  0  0  0  0  0  0  0  0  0  0
   19.2994   -9.3422   10.6311 C   0  0  0  0  0  0  0  0  0  0  0  0
   15.8144   -8.8438    9.5862 N   0  0  0  0  0  0  0  0  0  0  0  0
   15.1040   -9.4449   10.5788 C   0  0  0  0  0  0  0  0  0  0  0  0
   15.7866  -10.0357   11.6484 C   0  0  0  0  0  0  0  0  0  0  0  0
   13.6267   -9.4682   10.5214 C   0  0  0  0  0  0  0  0  0  0  0  0
   12.9023   -8.3304   10.1277 C   0  0  0  0  0  0  0  0  0  0  0  0
   11.5058   -8.3610   10.0768 C   0  0  0  0  0  0  0  0  0  0  0  0
   10.8199   -9.5290   10.4189 C   0  0  0  0  0  0  0  0  0  0  0  0
    9.3353   -9.5617   10.3649 C   0  0  0  0  0  0  0  0  0  0  0  0
   11.5299  -10.6662   10.8119 C   0  0  0  0  0  0  0  0  0  0  0  0
   12.9265  -10.6356   10.8629 C   0  0  0  0  0  0  0  0  0  0  0  0
   17.4583  -10.5253   14.1683 N   0  0  0  0  0  0  0  0  0  0  0  0
   17.8583  -10.6397   12.8822 C   0  0  0  0  0  0  0  0  0  0  0  0
   18.9869  -11.3751   12.7968 N   0  0  0  0  0  0  0  0  0  0  0  0
   19.3105  -11.7504   14.0257 N   0  0  0  0  0  0  0  0  0  0  0  0
   18.3797  -11.2336   14.8477 C   0  0  0  0  0  0  0  0  0  0  0  0
   16.3015   -8.4037   14.5241 C   0  0  0  0  0  0  0  0  0  0  0  0
   16.2454   -9.9101   14.6959 C   0  0  0  0  0  0  0  0  0  0  0  0
   18.3581  -11.5168   16.6187 S   0  0  0  0  0  0  0  0  0  0  0  0
   17.9040   -9.7943   16.9922 C   0  0  0  0  0  0  0  0  0  0  0  0
   19.0719   -8.8890   16.8013 C   0  0  0  0  0  0  0  0  0  0  0  0
   19.3800   -7.8994   17.7766 N   0  0  0  0  0  0  0  0  0  0  0  0
   19.7799   -8.9908   15.7663 O   0  0  0  0  0  0  0  0  0  0  0  0
   18.8271   -7.8182   18.5872 H   0  0  0  0  0  0  0  0  0  0  0  0
   20.1460   -7.2961   17.6408 H   0  0  0  0  0  0  0  0  0  0  0  0
 23 24  1  0  0  0
 24 18  1  0  0  0
 18 19  1  0  0  0
 19  1  1  0  0  0
  1  2  1  0  0  0
  2  3  1  0  0  0
  3  4  2  0  0  0
  4  5  1  0  0  0
  5  6  2  0  0  0
  6  7  1  0  0  0
  3  8  1  0  0  0
  8  9  2  0  0  0
  9 11  1  0  0  0
 11 12  2  0  0  0
 12 13  1  0  0  0
 13 14  2  0  0  0
 14 15  1  0  0  0
 14 16  1  0  0  0
 16 17  2  0  0  0
  9 10  1  0  0  0
 19 20  2  0  0  0
 20 21  1  0  0  0
 21 22  2  0  0  0
 22 25  1  0  0  0
 25 26  1  0  0  0
 26 27  1  0  0  0
 27 28  1  0  0  0
 27 29  2  0  0  0
 22 18  1  0  0  0
 10  1  2  0  0  0
  7  2  2  0  0  0
 17 11  1  0  0  0
 28 30  1  0  0  0
 28 31  1  0  0  0
M  END
>  <minimizedAffinity>
8.65069

>  <minimizedRMSD>
3.12532

$$$$
CSSS00161097815 MCULE-5929496028 MolPort-039-197-074 PubChem-121542740


 30 33  0  0  0  0  0  0  0  0999 V2000
   18.7651   -9.8085   10.9106 N   0  0  0  0  0  0  0  0  0  0  0  0
   17.6428  -10.3853   11.5838 C   0  0  0  0  0  0  0  0  0  0  0  0
   16.7988  -11.0616   10.9361 O   0  0  0  0  0  0  0  0  0  0  0  0
   19.3983   -9.2648   11.4328 H   0  0  0  0  0  0  0  0  0  0  0  0
   17.4808  -10.1777   13.0340 C   0  0  0  0  0  0  0  0  0  0  0  0
   16.6576   -9.2314   13.6692 C   0  0  0  0  0  0  0  0  0  0  0  0
   15.7902   -8.2581   12.9396 C   0  0  0  0  0  0  0  0  0  0  0  0
   16.7415   -9.3046   15.0725 C   0  0  0  0  0  0  0  0  0  0  0  0
   17.6096  -10.2854   15.5100 C   0  0  0  0  0  0  0  0  0  0  0  0
   18.2962  -11.0871   14.2105 S   0  0  0  0  0  0  0  0  0  0  0  0
   17.8371  -10.5237   16.8233 N   0  0  0  0  0  0  0  0  0  0  0  0
   17.1848   -9.7672   17.7497 C   0  0  0  0  0  0  0  0  0  0  0  0
   16.3180   -8.7874   17.3560 N   0  0  0  0  0  0  0  0  0  0  0  0
   16.0786   -8.5356   16.0376 C   0  0  0  0  0  0  0  0  0  0  0  0
   15.2731   -7.6246   15.7110 O   0  0  0  0  0  0  0  0  0  0  0  0
   15.8557   -8.2509   18.0399 H   0  0  0  0  0  0  0  0  0  0  0  0
   19.0132   -9.9899    9.4860 C   0  0  0  0  0  0  0  0  0  0  0  0
   18.1368   -9.0728    8.6920 C   0  0  0  0  0  0  0  0  0  0  0  0
   16.8082   -8.9111    8.8945 N   0  0  0  0  0  0  0  0  0  0  0  0
   16.3784   -8.0071    8.0171 N   0  0  0  0  0  0  0  0  0  0  0  0
   17.4567   -7.6375    7.3021 C   0  0  0  0  0  0  0  0  0  0  0  0
   17.4953   -6.7060    6.2688 C   0  0  0  0  0  0  0  0  0  0  0  0
   18.7435   -6.4742    5.6646 C   0  0  0  0  0  0  0  0  0  0  0  0
   19.8936   -7.1642    6.1008 C   0  0  0  0  0  0  0  0  0  0  0  0
   19.7873   -8.0913    7.1488 C   0  0  0  0  0  0  0  0  0  0  0  0
   18.5618   -8.2803    7.6976 N   0  0  0  0  0  0  0  0  0  0  0  0
   18.7398  -11.4330    9.0863 C   0  0  0  0  0  0  0  0  0  0  0  0
   20.8535  -12.6735    9.5482 C   0  0  0  0  0  0  0  0  0  0  0  0
   19.9715  -12.0755    8.4687 C   0  0  0  0  0  0  0  0  0  0  0  0
   19.5380  -13.1744    7.5221 C   0  0  0  0  0  0  0  0  0  0  0  0
 28 29  1  0  0  0
 29 30  1  0  0  0
 29 27  1  0  0  0
 17 27  1  0  0  0
 17  1  1  0  0  0
  1  2  1  0  0  0
  2  3  2  0  0  0
  2  5  1  0  0  0
  5  6  2  0  0  0
  6  7  1  0  0  0
  6  8  1  0  0  0
  8  9  2  0  0  0
  9 10  1  0  0  0
  9 11  1  0  0  0
 11 12  2  0  0  0
 12 13  1  0  0  0
 13 14  1  0  0  0
 14 15  2  0  0  0
 17 18  1  0  0  0
 18 19  2  0  0  0
 19 20  1  0  0  0
 20 21  2  0  0  0
 21 22  1  0  0  0
 22 23  2  0  0  0
 23 24  1  0  0  0
 24 25  2  0  0  0
 25 26  1  0  0  0
 10  5  1  0  0  0
 26 18  1  0  0  0
 14  8  1  0  0  0
 26 21  1  0  0  0
  1  4  1  0  0  0
 13 16  1  0  0  0
M  END
>  <minimizedAffinity>
9.30468

>  <minimizedRMSD>
1.85344

$$$$
CSSS00138545328 MCULE-6224180019 MolPort-046-710-377 Z952443110


 32 36  0  0  0  0  0  0  0  0999 V2000
   16.0635  -10.6559    8.4203 C   0  0  0  0  0  0  0  0  0  0  0  0
   16.3480  -12.0941    8.0242 C   0  0  0  0  0  0  0  0  0  0  0  0
   16.8754  -12.7884    9.2719 C   0  0  0  0  0  0  0  0  0  0  0  0
   16.5054  -11.9006   10.4443 C   0  0  0  0  0  0  0  0  0  0  0  0
   16.1211  -10.6248    9.8710 N   0  0  0  0  0  0  0  0  0  0  0  0
   15.6328   -9.5110   10.6406 C   0  0  0  0  0  0  0  0  0  0  0  0
   14.8773   -8.6675   10.0839 O   0  0  0  0  0  0  0  0  0  0  0  0
   20.6563   -6.7666    4.2700 C   0  0  0  0  0  0  0  0  0  0  0  0
   19.9471   -7.3131    5.4560 C   0  0  0  0  0  0  0  0  0  0  0  0
   20.2912   -6.8604    6.7497 C   0  0  0  0  0  0  0  0  0  0  0  0
   19.6305   -7.3667    7.8847 C   0  0  0  0  0  0  0  0  0  0  0  0
   18.6375   -8.3197    7.6740 C   0  0  0  0  0  0  0  0  0  0  0  0
   17.8843   -8.9336    8.5966 N   0  0  0  0  0  0  0  0  0  0  0  0
   17.0981   -9.7448    7.8384 C   0  0  0  0  0  0  0  0  0  0  0  0
   17.3255   -9.6679    6.5014 N   0  0  0  0  0  0  0  0  0  0  0  0
   18.3053   -8.7564    6.4280 C   0  0  0  0  0  0  0  0  0  0  0  0
   18.9372   -8.2782    5.2831 C   0  0  0  0  0  0  0  0  0  0  0  0
   17.8968   -8.8252    9.5751 H   0  0  0  0  0  0  0  0  0  0  0  0
   16.0026   -9.3118   12.0609 C   0  0  0  0  0  0  0  0  0  0  0  0
   15.4305   -8.2614   12.7884 C   0  0  0  0  0  0  0  0  0  0  0  0
   15.7870   -8.0452   14.1204 C   0  0  0  0  0  0  0  0  0  0  0  0
   16.7270   -8.8693   14.7574 C   0  0  0  0  0  0  0  0  0  0  0  0
   17.3200   -9.9188   14.0188 C   0  0  0  0  0  0  0  0  0  0  0  0
   18.3748  -10.8000   14.5950 C   0  0  0  0  0  0  0  0  0  0  0  0
   16.9570  -10.1245   12.6846 C   0  0  0  0  0  0  0  0  0  0  0  0
   17.0592   -8.6301   16.1395 N   0  0  0  0  0  0  0  0  0  0  0  0
   18.3169   -8.9947   16.7780 C   0  0  0  0  0  0  0  0  0  0  0  0
   18.1072   -8.7695   18.2884 C   0  0  0  0  0  0  0  0  0  0  0  0
   16.7309   -8.3199   18.4553 N   0  0  0  0  0  0  0  0  0  0  0  0
   16.1608   -8.2613   17.1683 C   0  0  0  0  0  0  0  0  0  0  0  0
   14.9738   -7.8929   16.9647 O   0  0  0  0  0  0  0  0  0  0  0  0
   16.2850   -8.0994   19.3049 H   0  0  0  0  0  0  0  0  0  0  0  0
  8  9  1  0  0  0
  9 10  2  0  0  0
 10 11  1  0  0  0
 11 12  2  0  0  0
 12 13  1  0  0  0
 13 14  1  0  0  0
 14 15  2  0  0  0
 15 16  1  0  0  0
 16 17  2  0  0  0
 14  1  1  0  0  0
  1  2  1  0  0  0
  2  3  1  0  0  0
  3  4  1  0  0  0
  4  5  1  0  0  0
  5  6  1  0  0  0
  6  7  2  0  0  0
  6 19  1  0  0  0
 19 20  2  0  0  0
 20 21  1  0  0  0
 21 22  2  0  0  0
 22 26  1  0  0  0
 26 27  1  0  0  0
 27 28  1  0  0  0
 28 29  1  0  0  0
 29 30  1  0  0  0
 30 31  2  0  0  0
 22 23  1  0  0  0
 23 24  1  0  0  0
 23 25  2  0  0  0
 17  9  1  0  0  0
  5  1  1  0  0  0
 25 19  1  0  0  0
 16 12  1  0  0  0
 30 26  1  0  0  0
 13 18  1  0  0  0
 29 32  1  0  0  0
M  END
>  <minimizedAffinity>
9.45779

>  <minimizedRMSD>
1.53923

$$$$
CSC026968594 17526522 CSSS00026968594 MCULE-2920725224 MolPort-004-508-196 PubChem-24541585 Z185290392 ZINC000017526522


 38 41  0  0  0  0  0  0  0  0999 V2000
   15.9156   -8.5731   13.4252 N   0  0  0  0  0  0  0  0  0  0  0  0
   16.3164   -9.6544   14.1460 C   0  0  0  0  0  0  0  0  0  0  0  0
   16.3584   -9.6452   15.5015 C   0  0  0  0  0  0  0  0  0  0  0  0
   16.8253  -10.8274   15.9312 N   0  0  0  0  0  0  0  0  0  0  0  0
   17.0501  -11.5278   14.7887 C   0  0  0  0  0  0  0  0  0  0  0  0
   16.7526  -10.8324   13.6586 N   0  0  0  0  0  0  0  0  0  0  0  0
   15.9624   -8.5136   16.2049 C   0  0  0  0  0  0  0  0  0  0  0  0
   15.9797   -8.4759   17.4633 O   0  0  0  0  0  0  0  0  0  0  0  0
   15.5428   -7.4335   15.4855 N   0  0  0  0  0  0  0  0  0  0  0  0
   15.5145   -7.4511   14.1143 C   0  0  0  0  0  0  0  0  0  0  0  0
   15.1133   -6.4295   13.4943 O   0  0  0  0  0  0  0  0  0  0  0  0
   15.2533   -6.6219   15.9618 H   0  0  0  0  0  0  0  0  0  0  0  0
   15.9000   -8.6297   11.9638 C   0  0  0  0  0  0  0  0  0  0  0  0
   15.4315   -9.9937   11.4770 C   0  0  0  0  0  0  0  0  0  0  0  0
   13.2702  -10.1031   10.2763 C   0  0  0  0  0  0  0  0  0  0  0  0
   13.9291  -10.1230   11.6387 C   0  0  0  0  0  0  0  0  0  0  0  0
   17.6437  -12.9004   14.7533 C   0  0  0  0  0  0  0  0  0  0  0  0
   19.0640  -12.8697   14.2008 C   0  0  0  0  0  0  0  0  0  0  0  0
   19.2442  -11.7496   13.2312 C   0  0  0  0  0  0  0  0  0  0  0  0
   18.7803  -11.8981   11.8826 N   0  0  0  0  0  0  0  0  0  0  0  0
   19.8058  -10.6899   13.6150 O   0  0  0  0  0  0  0  0  0  0  0  0
   18.4635  -12.7921   11.6187 H   0  0  0  0  0  0  0  0  0  0  0  0
   18.7318  -10.8742   10.8804 C   0  0  0  0  0  0  0  0  0  0  0  0
   19.2231   -9.5720   11.1206 C   0  0  0  0  0  0  0  0  0  0  0  0
   19.1065   -8.6490   10.0904 C   0  0  0  0  0  0  0  0  0  0  0  0
   18.5430   -8.9841    8.9028 C   0  0  0  0  0  0  0  0  0  0  0  0
   18.5474   -7.9196    8.0871 N   0  0  0  0  0  0  0  0  0  0  0  0
   19.1077   -6.9066    8.7391 N   0  0  0  0  0  0  0  0  0  0  0  0
   19.4681   -7.3200    9.9847 C   0  0  0  0  0  0  0  0  0  0  0  0
   18.0604  -10.2249    8.6458 N   0  0  0  0  0  0  0  0  0  0  0  0
   18.1481  -11.1748    9.6260 C   0  0  0  0  0  0  0  0  0  0  0  0
   18.0400   -7.8230    6.7219 C   0  0  0  0  0  0  0  0  0  0  0  0
   17.2757   -9.0779    6.3420 C   0  0  0  0  0  0  0  0  0  0  0  0
   19.1744   -7.5834    5.7428 C   0  0  0  0  0  0  0  0  0  0  0  0
   17.0884  -11.2456   17.3045 C   0  0  0  0  0  0  0  0  0  0  0  0
   18.5845  -11.2988   17.5753 C   0  0  0  0  0  0  0  0  0  0  0  0
   18.8181  -11.6923   19.0177 C   0  0  0  0  0  0  0  0  0  0  0  0
   19.2212   -9.9471   17.3179 C   0  0  0  0  0  0  0  0  0  0  0  0
 15 16  1  0  0  0
 16 14  1  0  0  0
 14 13  1  0  0  0
 13  1  1  0  0  0
  1  2  1  0  0  0
  2  3  2  0  0  0
  3  4  1  0  0  0
  4  5  1  0  0  0
  5  6  2  0  0  0
  5 17  1  0  0  0
 17 18  1  0  0  0
 18 19  1  0  0  0
 19 20  1  0  0  0
 20 23  1  0  0  0
 23 24  2  0  0  0
 24 25  1  0  0  0
 25 26  2  0  0  0
 26 27  1  0  0  0
 27 32  1  0  0  0
 32 33  1  0  0  0
 32 34  1  0  0  0
 27 28  1  0  0  0
 28 29  2  0  0  0
 26 30  1  0  0  0
 30 31  2  0  0  0
 19 21  2  0  0  0
  4 35  1  0  0  0
 35 36  1  0  0  0
 36 37  1  0  0  0
 36 38  1  0  0  0
  3  7  1  0  0  0
  7  8  2  0  0  0
  7  9  1  0  0  0
  9 10  1  0  0  0
 10 11  2  0  0  0
 10  1  1  0  0  0
  6  2  1  0  0  0
 31 23  1  0  0  0
 29 25  1  0  0  0
 20 22  1  0  0  0
  9 12  1  0  0  0
M  END
>  <minimizedAffinity>
9.76933

>  <minimizedRMSD>
2.29308

$$$$
CSSS20447606847


 37 40  0  0  0  0  0  0  0  0999 V2000
   17.6216   -9.0284    9.8232 C   0  0  0  0  0  0  0  0  0  0  0  0
   16.3559   -9.4988    9.1310 C   0  0  0  0  0  0  0  0  0  0  0  0
   17.6440   -9.4665   11.2170 N   0  0  0  0  0  0  0  0  0  0  0  0
   16.5659   -9.2877   12.1475 C   0  0  0  0  0  0  0  0  0  0  0  0
   15.4696   -8.8080   11.7497 O   0  0  0  0  0  0  0  0  0  0  0  0
   18.4573   -9.9167   11.5412 H   0  0  0  0  0  0  0  0  0  0  0  0
   16.7608   -9.6491   13.5715 C   0  0  0  0  0  0  0  0  0  0  0  0
   16.2512   -8.8818   14.6432 C   0  0  0  0  0  0  0  0  0  0  0  0
   15.4773   -7.7079   14.4132 N   0  0  0  0  0  0  0  0  0  0  0  0
   16.4853   -9.2688   15.9264 N   0  0  0  0  0  0  0  0  0  0  0  0
   17.2123  -10.3754   16.2320 C   0  0  0  0  0  0  0  0  0  0  0  0
   17.3638  -10.7715   17.6743 C   0  0  0  0  0  0  0  0  0  0  0  0
   18.5160  -11.7505   17.8869 C   0  0  0  0  0  0  0  0  0  0  0  0
   18.4002  -12.9015   16.8971 C   0  0  0  0  0  0  0  0  0  0  0  0
   18.5851  -12.3777   15.4754 C   0  0  0  0  0  0  0  0  0  0  0  0
   17.7195  -11.1815   15.1961 C   0  0  0  0  0  0  0  0  0  0  0  0
   17.5007  -10.7974   13.8753 C   0  0  0  0  0  0  0  0  0  0  0  0
   15.2962   -7.4104   13.4923 H   0  0  0  0  0  0  0  0  0  0  0  0
   15.1237   -7.1943   15.1750 H   0  0  0  0  0  0  0  0  0  0  0  0
   17.7494   -7.5130    9.7256 C   0  0  0  0  0  0  0  0  0  0  0  0
   18.9662   -7.1517    9.0091 N   0  0  0  0  0  0  0  0  0  0  0  0
   18.9472   -6.1042    8.0233 C   0  0  0  0  0  0  0  0  0  0  0  0
   17.9029   -5.4189    7.8489 O   0  0  0  0  0  0  0  0  0  0  0  0
   20.0439   -9.2450    9.6672 C   0  0  0  0  0  0  0  0  0  0  0  0
   20.2183   -7.7522    9.4535 C   0  0  0  0  0  0  0  0  0  0  0  0
   20.1638   -5.8022    7.2027 C   0  0  0  0  0  0  0  0  0  0  0  0
   20.2449   -6.6764    5.9909 C   0  0  0  0  0  0  0  0  0  0  0  0
   21.1214   -6.5013    4.9258 C   0  0  0  0  0  0  0  0  0  0  0  0
   20.9616   -7.4951    4.0149 N   0  0  0  0  0  0  0  0  0  0  0  0
   19.9969   -8.2835    4.5211 C   0  0  0  0  0  0  0  0  0  0  0  0
   19.5402   -7.8265    5.7220 C   0  0  0  0  0  0  0  0  0  0  0  0
   18.5359   -8.4854    6.4264 C   0  0  0  0  0  0  0  0  0  0  0  0
   18.0104   -9.6497    5.8385 C   0  0  0  0  0  0  0  0  0  0  0  0
   16.7311  -10.5294    6.6446 Cl  0  0  0  0  0  0  0  0  0  0  0  0
   18.4837  -10.0942    4.6315 N   0  0  0  0  0  0  0  0  0  0  0  0
   19.4708   -9.4377    3.9527 C   0  0  0  0  0  0  0  0  0  0  0  0
   21.4473   -7.6132    3.1667 H   0  0  0  0  0  0  0  0  0  0  0  0
 24 25  1  0  0  0
 25 21  1  0  0  0
 21 20  1  0  0  0
 20  1  1  0  0  0
  1  2  1  0  0  0
  1  3  1  0  0  0
  3  4  1  0  0  0
  4  5  2  0  0  0
  4  7  1  0  0  0
  7  8  2  0  0  0
  8  9  1  0  0  0
  8 10  1  0  0  0
 10 11  2  0  0  0
 11 12  1  0  0  0
 12 13  1  0  0  0
 13 14  1  0  0  0
 14 15  1  0  0  0
 15 16  1  0  0  0
 16 17  2  0  0  0
 21 22  1  0  0  0
 22 23  2  0  0  0
 22 26  1  0  0  0
 26 27  1  0  0  0
 27 28  2  0  0  0
 28 29  1  0  0  0
 29 30  1  0  0  0
 30 31  2  0  0  0
 31 32  1  0  0  0
 32 33  2  0  0  0
 33 34  1  0  0  0
 33 35  1  0  0  0
 35 36  2  0  0  0
 17  7  1  0  0  0
 31 27  1  0  0  0
 16 11  1  0  0  0
 36 30  1  0  0  0
  3  6  1  0  0  0
  9 18  1  0  0  0
  9 19  1  0  0  0
 29 37  1  0  0  0
M  END
>  <minimizedAffinity>
10.31694

>  <minimizedRMSD>
3.61181

$$$$
CSC026851070 9642944 CHEMBL1705962 CSSS00026851070 MCULE-6829274442 MolPort-004-164-558 PubChem-16306718 Z80238419 ZINC000009642944


 35 38  0  0  0  0  0  0  0  0999 V2000
   15.1575   -7.9457   17.0947 N   0  0  0  0  0  0  0  0  0  0  0  0
   15.2510   -7.8278   15.6630 C   0  0  0  0  0  0  0  0  0  0  0  0
   14.2014   -7.7742   14.9643 O   0  0  0  0  0  0  0  0  0  0  0  0
   16.5864   -7.7481   14.9865 C   0  0  0  0  0  0  0  0  0  0  0  0
   17.0503   -9.1424   14.5344 C   0  0  0  0  0  0  0  0  0  0  0  0
   17.7542   -9.1014   13.1830 C   0  0  0  0  0  0  0  0  0  0  0  0
   16.8737   -8.4768   12.1967 N   0  0  0  0  0  0  0  0  0  0  0  0
   16.1323   -7.2591   12.5328 C   0  0  0  0  0  0  0  0  0  0  0  0
   16.5855   -6.6854   13.8766 C   0  0  0  0  0  0  0  0  0  0  0  0
   16.4821   -9.2245   11.0429 C   0  0  0  0  0  0  0  0  0  0  0  0
   17.1273   -9.0820    9.8011 C   0  0  0  0  0  0  0  0  0  0  0  0
   18.1411   -8.1831    9.4113 C   0  0  0  0  0  0  0  0  0  0  0  0
   18.7235   -7.1165   10.2778 C   0  0  0  0  0  0  0  0  0  0  0  0
   18.5089   -8.3479    8.0729 C   0  0  0  0  0  0  0  0  0  0  0  0
   19.5346   -7.5493    7.3459 C   0  0  0  0  0  0  0  0  0  0  0  0
   17.5837   -9.5703    7.3635 S   0  0  0  0  0  0  0  0  0  0  0  0
   16.7166   -9.8975    8.7605 C   0  0  0  0  0  0  0  0  0  0  0  0
   15.7135  -10.7966    8.8915 N   0  0  0  0  0  0  0  0  0  0  0  0
   15.0860  -10.9101   10.0937 C   0  0  0  0  0  0  0  0  0  0  0  0
   15.4691  -10.1334   11.1486 N   0  0  0  0  0  0  0  0  0  0  0  0
   13.9482   -7.1273   19.0510 C   0  0  0  0  0  0  0  0  0  0  0  0
   13.8618   -7.9222   17.7608 C   0  0  0  0  0  0  0  0  0  0  0  0
   16.3481   -7.9347   17.9367 C   0  0  0  0  0  0  0  0  0  0  0  0
   17.3125   -8.9784   17.4860 C   0  0  0  0  0  0  0  0  0  0  0  0
   18.5342   -8.6906   17.3822 O   0  0  0  0  0  0  0  0  0  0  0  0
   16.8461  -10.3072   17.2301 N   0  0  0  0  0  0  0  0  0  0  0  0
   15.9476  -10.5387   17.5593 H   0  0  0  0  0  0  0  0  0  0  0  0
   17.5725  -11.3315   16.5363 C   0  0  0  0  0  0  0  0  0  0  0  0
   18.5396  -12.0670   17.2384 C   0  0  0  0  0  0  0  0  0  0  0  0
   18.8004  -11.7878   18.5395 F   0  0  0  0  0  0  0  0  0  0  0  0
   19.2566  -13.0818   16.5988 C   0  0  0  0  0  0  0  0  0  0  0  0
   18.9988  -13.3864   15.2612 C   0  0  0  0  0  0  0  0  0  0  0  0
   18.0163  -12.6824   14.5629 C   0  0  0  0  0  0  0  0  0  0  0  0
   17.2978  -11.6619   15.1929 C   0  0  0  0  0  0  0  0  0  0  0  0
   16.3035  -11.0484   14.5063 F   0  0  0  0  0  0  0  0  0  0  0  0
 21 22  1  0  0  0
 22  1  1  0  0  0
  1 23  1  0  0  0
 23 24  1  0  0  0
 24 25  2  0  0  0
 24 26  1  0  0  0
 26 28  1  0  0  0
 28 29  2  0  0  0
 29 30  1  0  0  0
 29 31  1  0  0  0
 31 32  2  0  0  0
 32 33  1  0  0  0
 33 34  2  0  0  0
 34 35  1  0  0  0
  1  2  1  0  0  0
  2  3  2  0  0  0
  2  4  1  0  0  0
  4  5  1  0  0  0
  5  6  1  0  0  0
  6  7  1  0  0  0
  7  8  1  0  0  0
  8  9  1  0  0  0
  7 10  1  0  0  0
 10 11  2  0  0  0
 11 12  1  0  0  0
 12 13  1  0  0  0
 12 14  2  0  0  0
 14 15  1  0  0  0
 14 16  1  0  0  0
 16 17  1  0  0  0
 17 18  2  0  0  0
 18 19  1  0  0  0
 19 20  2  0  0  0
 34 28  1  0  0  0
  9  4  1  0  0  0
 20 10  1  0  0  0
 17 11  1  0  0  0
 26 27  1  0  0  0
M  END
>  <minimizedAffinity>
10.37898

>  <minimizedRMSD>
2.59679

$$$$
CSC026632661 13110115 CSSS00026632661 MCULE-6661893362 MolPort-005-816-411 PubChem-16293759 Z52387565 ZINC000013110115 ZINC13110115


 34 37  0  0  0  0  0  0  0  0999 V2000
   16.9850  -10.4685   14.0166 N   0  0  0  0  0  0  0  0  0  0  0  0
   16.1569   -9.9904   12.9489 C   0  0  0  0  0  0  0  0  0  0  0  0
   15.6193   -8.8525   12.9975 O   0  0  0  0  0  0  0  0  0  0  0  0
   17.3225  -11.3898   13.9350 H   0  0  0  0  0  0  0  0  0  0  0  0
   16.8323   -8.5564   17.2491 C   0  0  0  0  0  0  0  0  0  0  0  0
   16.4301   -9.2720   16.1155 C   0  0  0  0  0  0  0  0  0  0  0  0
   17.3722   -9.7435   15.1911 C   0  0  0  0  0  0  0  0  0  0  0  0
   18.7288   -9.4894   15.4079 C   0  0  0  0  0  0  0  0  0  0  0  0
   19.1427   -8.7766   16.5354 C   0  0  0  0  0  0  0  0  0  0  0  0
   18.2040   -8.3074   17.4587 C   0  0  0  0  0  0  0  0  0  0  0  0
   18.6943   -7.5519   18.6467 C   0  0  0  0  0  0  0  0  0  0  0  0
   15.6003   -7.9863   18.3766 S   0  0  0  0  0  0  0  0  0  0  0  0
   14.6365   -7.0959   17.6442 O   0  0  0  0  0  0  0  0  0  0  0  0
   14.8425   -9.1567   18.9421 O   0  0  0  0  0  0  0  0  0  0  0  0
   15.4580   -7.1952   20.8261 C   0  0  0  0  0  0  0  0  0  0  0  0
   16.3343   -7.1005   19.6713 N   0  0  0  0  0  0  0  0  0  0  0  0
   17.2455   -7.5015   19.8932 H   0  0  0  0  0  0  0  0  0  0  0  0
   15.9513  -10.8462   11.7449 C   0  0  0  0  0  0  0  0  0  0  0  0
   16.2208  -10.0803   10.5259 N   0  0  0  0  0  0  0  0  0  0  0  0
   15.1988   -9.8074    9.6438 C   0  0  0  0  0  0  0  0  0  0  0  0
   13.8084  -10.2994    9.8857 C   0  0  0  0  0  0  0  0  0  0  0  0
   15.4417   -9.0957    8.5104 N   0  0  0  0  0  0  0  0  0  0  0  0
   16.6900   -8.6373    8.2727 C   0  0  0  0  0  0  0  0  0  0  0  0
   17.7422   -8.8554    9.1345 C   0  0  0  0  0  0  0  0  0  0  0  0
   18.9494   -8.2793    8.6643 C   0  0  0  0  0  0  0  0  0  0  0  0
   18.8082   -7.6497    7.4207 C   0  0  0  0  0  0  0  0  0  0  0  0
   17.1961   -7.7847    6.9293 S   0  0  0  0  0  0  0  0  0  0  0  0
   17.4973   -9.6336   10.2784 C   0  0  0  0  0  0  0  0  0  0  0  0
   18.4372   -9.9469   11.0573 O   0  0  0  0  0  0  0  0  0  0  0  0
   20.2458   -8.2521    9.3686 C   0  0  0  0  0  0  0  0  0  0  0  0
   20.4532   -7.9761   10.7126 C   0  0  0  0  0  0  0  0  0  0  0  0
   21.8107   -7.9213   11.0608 C   0  0  0  0  0  0  0  0  0  0  0  0
   22.6864   -8.1266    9.9985 C   0  0  0  0  0  0  0  0  0  0  0  0
   21.7461   -8.3731    8.6266 S   0  0  0  0  0  0  0  0  0  0  0  0
 15 16  1  0  0  0
 16 12  1  0  0  0
 12 13  2  0  0  0
 12 14  2  0  0  0
 12  5  1  0  0  0
  5  6  2  0  0  0
  6  7  1  0  0  0
  7  1  1  0  0  0
  7  8  2  0  0  0
  1  2  1  0  0  0
  2  3  2  0  0  0
  2 18  1  0  0  0
 18 19  1  0  0  0
 19 20  1  0  0  0
 20 21  1  0  0  0
 20 22  2  0  0  0
 22 23  1  0  0  0
 23 24  2  0  0  0
 24 25  1  0  0  0
 24 28  1  0  0  0
 25 26  2  0  0  0
 25 30  1  0  0  0
 26 27  1  0  0  0
 27 23  1  0  0  0
 30 31  2  0  0  0
 31 32  1  0  0  0
 32 33  2  0  0  0
 33 34  1  0  0  0
 34 30  1  0  0  0
 28 29  2  0  0  0
 28 19  1  0  0  0
  8  9  1  0  0  0
  9 10  2  0  0  0
 10 11  1  0  0  0
 10  5  1  0  0  0
 16 17  1  0  0  0
  1  4  1  0  0  0
M  END
>  <minimizedAffinity>
10.51041

>  <minimizedRMSD>
1.77582

$$$$
825291945 CSSS00160616051 MCULE-9622361580 MolPort-044-810-975 ZINC000825291945


 37 42  0  0  0  0  0  0  0  0999 V2000
   19.5777   -8.8413   15.5155 C   0  0  0  0  0  0  0  0  0  0  0  0
   18.9527   -9.3134   14.3501 C   0  0  0  0  0  0  0  0  0  0  0  0
   19.4553   -9.2314   13.0587 O   0  0  0  0  0  0  0  0  0  0  0  0
   18.4784   -9.7440   12.2193 C   0  0  0  0  0  0  0  0  0  0  0  0
   18.4113   -9.4581   10.9094 C   0  0  0  0  0  0  0  0  0  0  0  0
   17.1046   -9.6453   10.2531 C   0  0  0  0  0  0  0  0  0  0  0  0
   15.9676   -9.8803   10.9797 C   0  0  0  0  0  0  0  0  0  0  0  0
   14.9491   -9.9157   10.0515 C   0  0  0  0  0  0  0  0  0  0  0  0
   13.5099  -10.1822   10.3191 C   0  0  0  0  0  0  0  0  0  0  0  0
   15.4654   -9.7016    8.8201 N   0  0  0  0  0  0  0  0  0  0  0  0
   16.7744   -9.5125    8.9511 N   0  0  0  0  0  0  0  0  0  0  0  0
   16.0142  -10.0949   12.4348 C   0  0  0  0  0  0  0  0  0  0  0  0
   14.9669  -10.1019   13.1339 O   0  0  0  0  0  0  0  0  0  0  0  0
   17.3774  -10.4404   13.0039 C   0  0  0  0  0  0  0  0  0  0  0  0
   17.5828  -11.9471   12.9398 C   0  0  0  0  0  0  0  0  0  0  0  0
   17.7175   -9.9432   14.3797 C   0  0  0  0  0  0  0  0  0  0  0  0
   17.0740  -10.1974   15.5934 C   0  0  0  0  0  0  0  0  0  0  0  0
   15.8871  -10.9218   15.6294 O   0  0  0  0  0  0  0  0  0  0  0  0
   17.6595   -9.7226   16.7802 C   0  0  0  0  0  0  0  0  0  0  0  0
   16.9722   -9.9532   18.0863 C   0  0  0  0  0  0  0  0  0  0  0  0
   18.8982   -9.0416   16.7464 C   0  0  0  0  0  0  0  0  0  0  0  0
   19.4342   -8.5624   17.9385 O   0  0  0  0  0  0  0  0  0  0  0  0
   15.5046  -11.2341   14.8331 H   0  0  0  0  0  0  0  0  0  0  0  0
   18.9784   -8.6995   18.7456 H   0  0  0  0  0  0  0  0  0  0  0  0
   17.6440   -9.2699    7.8363 C   0  0  0  0  0  0  0  0  0  0  0  0
   18.2149   -8.0226    7.5808 C   0  0  0  0  0  0  0  0  0  0  0  0
   18.0669   -6.8605    8.2315 N   0  0  0  0  0  0  0  0  0  0  0  0
   18.8172   -5.9988    7.4916 C   0  0  0  0  0  0  0  0  0  0  0  0
   19.4078   -6.5729    6.4083 N   0  0  0  0  0  0  0  0  0  0  0  0
   19.0011   -7.8447    6.4980 C   0  0  0  0  0  0  0  0  0  0  0  0
   19.2635   -8.8401    5.6180 N   0  0  0  0  0  0  0  0  0  0  0  0
   18.7032  -10.0654    5.8472 C   0  0  0  0  0  0  0  0  0  0  0  0
   17.8991  -10.2693    6.9389 N   0  0  0  0  0  0  0  0  0  0  0  0
   19.9879   -6.1576    5.7299 H   0  0  0  0  0  0  0  0  0  0  0  0
   21.5884   -7.6180   16.6346 C   0  0  0  0  0  0  0  0  0  0  0  0
   20.8965   -8.1577   15.4293 C   0  0  0  0  0  0  0  0  0  0  0  0
   21.4749   -8.0388   14.3166 O   0  0  0  0  0  0  0  0  0  0  0  0
 35 36  1  0  0  0
 36 37  2  0  0  0
 36  1  1  0  0  0
  1  2  2  0  0  0
  2  3  1  0  0  0
  3  4  1  0  0  0
  4  5  2  0  0  0
  5  6  1  0  0  0
  6  7  2  0  0  0
  7  8  1  0  0  0
  8  9  1  0  0  0
  8 10  2  0  0  0
 10 11  1  0  0  0
 11 25  1  0  0  0
 25 26  2  0  0  0
 26 27  1  0  0  0
 27 28  2  0  0  0
 28 29  1  0  0  0
 29 30  1  0  0  0
 30 31  2  0  0  0
 31 32  1  0  0  0
 32 33  2  0  0  0
  7 12  1  0  0  0
 12 13  2  0  0  0
 12 14  1  0  0  0
 14 15  1  0  0  0
 14 16  1  0  0  0
 16 17  2  0  0  0
 17 18  1  0  0  0
 17 19  1  0  0  0
 19 20  1  0  0  0
 19 21  2  0  0  0
 21 22  1  0  0  0
 21  1  1  0  0  0
 16  2  1  0  0  0
 14  4  1  0  0  0
 11  6  1  0  0  0
 33 25  1  0  0  0
 30 26  1  0  0  0
 29 34  1  0  0  0
 18 23  1  0  0  0
 22 24  1  0  0  0
M  END
>  <minimizedAffinity>
10.52138

>  <minimizedRMSD>
2.78741

$$$$
11786845 CSSS00160578007 MCULE-1436403475 MolPort-005-038-710 PubChem-42167148


 36 39  0  0  0  0  0  0  0  0999 V2000
   16.1910   -9.1113   17.1379 C   0  0  0  0  0  0  0  0  0  0  0  0
   16.1690  -10.3331   17.8177 C   0  0  0  0  0  0  0  0  0  0  0  0
   16.9854  -11.3588   17.4502 N   0  0  0  0  0  0  0  0  0  0  0  0
   17.8478  -11.2244   16.4100 C   0  0  0  0  0  0  0  0  0  0  0  0
   17.9270  -10.0313   15.6820 C   0  0  0  0  0  0  0  0  0  0  0  0
   17.0833   -8.9594   16.0533 C   0  0  0  0  0  0  0  0  0  0  0  0
   17.1242   -7.8706   15.4189 O   0  0  0  0  0  0  0  0  0  0  0  0
   16.9536  -12.6300   18.1659 C   0  0  0  0  0  0  0  0  0  0  0  0
   17.6344  -12.5133   19.5422 C   0  0  0  0  0  0  0  0  0  0  0  0
   16.6076  -12.3748   20.6638 C   0  0  0  0  0  0  0  0  0  0  0  0
   15.6735  -13.5910   20.7184 C   0  0  0  0  0  0  0  0  0  0  0  0
   15.3894  -14.2162   19.3450 C   0  0  0  0  0  0  0  0  0  0  0  0
   15.5240  -13.1928   18.2218 C   0  0  0  0  0  0  0  0  0  0  0  0
   15.2237   -7.6846   18.9763 N   0  0  0  0  0  0  0  0  0  0  0  0
   15.2769   -8.0341   17.5902 C   0  0  0  0  0  0  0  0  0  0  0  0
   14.5466   -7.4197   16.7655 O   0  0  0  0  0  0  0  0  0  0  0  0
   15.7936   -8.1737   19.6129 H   0  0  0  0  0  0  0  0  0  0  0  0
   14.3550   -6.6299   19.4762 C   0  0  0  0  0  0  0  0  0  0  0  0
   12.8851   -5.9503   21.3448 C   0  0  0  0  0  0  0  0  0  0  0  0
   13.5800   -7.1223   20.6849 C   0  0  0  0  0  0  0  0  0  0  0  0
   14.5218   -7.7688   21.6832 C   0  0  0  0  0  0  0  0  0  0  0  0
   18.8925   -9.9540   14.5563 C   0  0  0  0  0  0  0  0  0  0  0  0
   20.1031   -9.6845   14.7906 O   0  0  0  0  0  0  0  0  0  0  0  0
   18.4716  -10.1798   13.2090 N   0  0  0  0  0  0  0  0  0  0  0  0
   17.5236  -10.3797   13.0343 H   0  0  0  0  0  0  0  0  0  0  0  0
   19.3956  -10.1244   12.0877 C   0  0  0  0  0  0  0  0  0  0  0  0
   18.6807   -9.6467   10.8738 C   0  0  0  0  0  0  0  0  0  0  0  0
   19.3190   -8.7887    9.9751 C   0  0  0  0  0  0  0  0  0  0  0  0
   18.6299   -8.3263    8.8543 C   0  0  0  0  0  0  0  0  0  0  0  0
   19.2483   -7.4704    7.9395 C   0  0  0  0  0  0  0  0  0  0  0  0
   18.5398   -7.0178    6.8216 C   0  0  0  0  0  0  0  0  0  0  0  0
   17.2145   -7.4190    6.6185 C   0  0  0  0  0  0  0  0  0  0  0  0
   16.5903   -8.2747    7.5323 C   0  0  0  0  0  0  0  0  0  0  0  0
   17.2923   -8.7314    8.6513 C   0  0  0  0  0  0  0  0  0  0  0  0
   16.6917   -9.5614    9.5456 N   0  0  0  0  0  0  0  0  0  0  0  0
   17.3521  -10.0200   10.6435 C   0  0  0  0  0  0  0  0  0  0  0  0
 19 20  1  0  0  0
 20 21  1  0  0  0
 20 18  1  0  0  0
 18 14  1  0  0  0
 14 15  1  0  0  0
 15 16  2  0  0  0
 15  1  1  0  0  0
  1  2  2  0  0  0
  2  3  1  0  0  0
  3  4  1  0  0  0
  3  8  1  0  0  0
  4  5  2  0  0  0
  5  6  1  0  0  0
  5 22  1  0  0  0
  6  7  2  0  0  0
  6  1  1  0  0  0
 22 23  2  0  0  0
 22 24  1  0  0  0
 24 26  1  0  0  0
 26 27  1  0  0  0
 27 28  2  0  0  0
 28 29  1  0  0  0
 29 30  2  0  0  0
 30 31  1  0  0  0
 31 32  2  0  0  0
 32 33  1  0  0  0
 33 34  2  0  0  0
 34 35  1  0  0  0
 34 29  1  0  0  0
 35 36  2  0  0  0
 36 27  1  0  0  0
  8  9  1  0  0  0
  9 10  1  0  0  0
 10 11  1  0  0  0
 11 12  1  0  0  0
 12 13  1  0  0  0
 13  8  1  0  0  0
 14 17  1  0  0  0
 24 25  1  0  0  0
M  END
>  <minimizedAffinity>
10.52830

>  <minimizedRMSD>
1.88000

$$$$
CSC026192152 6946273 CSSS00026192152 MCULE-4515507581 MolPort-005-323-247 PubChem-4857390 Z24578628 ZINC000006946273


 32 35  0  0  0  0  0  0  0  0999 V2000
   17.6157   -9.6607   11.9765 C   0  0  0  0  0  0  0  0  0  0  0  0
   18.3008   -9.1592   10.8435 C   0  0  0  0  0  0  0  0  0  0  0  0
   17.5550   -8.7985    9.6941 C   0  0  0  0  0  0  0  0  0  0  0  0
   18.2048   -8.3053    8.5589 C   0  0  0  0  0  0  0  0  0  0  0  0
   19.5944   -8.1691    8.5486 C   0  0  0  0  0  0  0  0  0  0  0  0
   20.3403   -8.5274    9.6730 C   0  0  0  0  0  0  0  0  0  0  0  0
   19.6979   -9.0204   10.8114 C   0  0  0  0  0  0  0  0  0  0  0  0
   16.2045   -8.9339    9.6848 N   0  0  0  0  0  0  0  0  0  0  0  0
   15.5193   -9.4142   10.7574 C   0  0  0  0  0  0  0  0  0  0  0  0
   16.2223   -9.7797   11.9113 C   0  0  0  0  0  0  0  0  0  0  0  0
   19.0004  -11.1382   14.9263 C   0  0  0  0  0  0  0  0  0  0  0  0
   18.2472  -11.2596   13.8251 N   0  0  0  0  0  0  0  0  0  0  0  0
   17.6126  -12.4204   13.3653 N   0  0  0  0  0  0  0  0  0  0  0  0
   18.3066  -10.0481   13.2382 C   0  0  0  0  0  0  0  0  0  0  0  0
   19.0708   -9.2138   13.9771 N   0  0  0  0  0  0  0  0  0  0  0  0
   19.5064   -9.8955   15.0302 N   0  0  0  0  0  0  0  0  0  0  0  0
   17.6486  -13.2460   13.9005 H   0  0  0  0  0  0  0  0  0  0  0  0
   17.1305  -12.4109   12.5070 H   0  0  0  0  0  0  0  0  0  0  0  0
   19.3165  -12.4531   16.1009 S   0  0  0  0  0  0  0  0  0  0  0  0
   18.3434  -11.6520   17.4126 C   0  0  0  0  0  0  0  0  0  0  0  0
   16.1074   -8.6942   16.2971 C   0  0  0  0  0  0  0  0  0  0  0  0
   17.1912   -9.4750   16.8690 N   0  0  0  0  0  0  0  0  0  0  0  0
   17.1994  -10.9019   16.8246 C   0  0  0  0  0  0  0  0  0  0  0  0
   16.2570  -11.5323   16.2753 O   0  0  0  0  0  0  0  0  0  0  0  0
   17.9421   -9.0061   17.2999 H   0  0  0  0  0  0  0  0  0  0  0  0
   14.0476   -9.5441   10.6965 C   0  0  0  0  0  0  0  0  0  0  0  0
   13.2684   -8.4953   10.1837 C   0  0  0  0  0  0  0  0  0  0  0  0
   11.8766   -8.6095   10.1221 C   0  0  0  0  0  0  0  0  0  0  0  0
   11.2503   -9.7741   10.5731 C   0  0  0  0  0  0  0  0  0  0  0  0
    9.7708   -9.8952   10.5077 C   0  0  0  0  0  0  0  0  0  0  0  0
   12.0153  -10.8247   11.0855 C   0  0  0  0  0  0  0  0  0  0  0  0
   13.4071  -10.7105   11.1471 C   0  0  0  0  0  0  0  0  0  0  0  0
 21 22  1  0  0  0
 22 23  1  0  0  0
 23 20  1  0  0  0
 20 19  1  0  0  0
 19 11  1  0  0  0
 11 12  1  0  0  0
 12 13  1  0  0  0
 12 14  1  0  0  0
 14  1  1  0  0  0
  1  2  1  0  0  0
  2  3  1  0  0  0
  3  4  2  0  0  0
  4  5  1  0  0  0
  5  6  2  0  0  0
  6  7  1  0  0  0
  3  8  1  0  0  0
  8  9  2  0  0  0
  9 26  1  0  0  0
 26 27  2  0  0  0
 27 28  1  0  0  0
 28 29  2  0  0  0
 29 30  1  0  0  0
 29 31  1  0  0  0
 31 32  2  0  0  0
  9 10  1  0  0  0
 14 15  2  0  0  0
 15 16  1  0  0  0
 23 24  2  0  0  0
 16 11  2  0  0  0
 10  1  2  0  0  0
  7  2  2  0  0  0
 32 26  1  0  0  0
 22 25  1  0  0  0
 13 17  1  0  0  0
 13 18  1  0  0  0
M  END
>  <minimizedAffinity>
10.87848

>  <minimizedRMSD>
3.01631

$$$$
CSSS00132615813 LN00804329 MolPort-008-352-381


 33 37  0  0  0  0  0  0  0  0999 V2000
   16.8038  -11.1278   12.9171 C   0  0  0  0  0  0  0  0  0  0  0  0
   15.2773  -12.0568   12.5702 S   0  0  0  0  0  0  0  0  0  0  0  0
   14.2844  -10.5545   12.4086 C   0  0  0  0  0  0  0  0  0  0  0  0
   14.2480  -10.1229   10.9905 C   0  0  0  0  0  0  0  0  0  0  0  0
   13.1343  -10.0789   10.4076 O   0  0  0  0  0  0  0  0  0  0  0  0
   15.4187   -9.7199   10.2735 N   0  0  0  0  0  0  0  0  0  0  0  0
   16.8076   -9.7777   10.6425 C   0  0  0  0  0  0  0  0  0  0  0  0
   17.3966  -10.4131   11.7354 C   0  0  0  0  0  0  0  0  0  0  0  0
   18.7517  -10.2108   11.5472 C   0  0  0  0  0  0  0  0  0  0  0  0
   19.8441  -10.6777   12.4451 C   0  0  0  0  0  0  0  0  0  0  0  0
   18.9671   -9.5130   10.4191 N   0  0  0  0  0  0  0  0  0  0  0  0
   17.7898   -9.2545    9.8700 N   0  0  0  0  0  0  0  0  0  0  0  0
   15.2451   -9.3410    9.3816 H   0  0  0  0  0  0  0  0  0  0  0  0
   17.6326   -8.5219    8.6378 C   0  0  0  0  0  0  0  0  0  0  0  0
   18.7238   -8.0032    7.9370 C   0  0  0  0  0  0  0  0  0  0  0  0
   20.0331   -8.0670    8.2182 N   0  0  0  0  0  0  0  0  0  0  0  0
   20.6008   -7.3895    7.1829 C   0  0  0  0  0  0  0  0  0  0  0  0
   19.7031   -6.9124    6.2782 N   0  0  0  0  0  0  0  0  0  0  0  0
   18.5349   -7.3196    6.7885 C   0  0  0  0  0  0  0  0  0  0  0  0
   17.3055   -7.1029    6.2645 N   0  0  0  0  0  0  0  0  0  0  0  0
   16.2247   -7.6011    6.9353 C   0  0  0  0  0  0  0  0  0  0  0  0
   16.3925   -8.2986    8.1036 N   0  0  0  0  0  0  0  0  0  0  0  0
   19.8707   -6.3977    5.4558 H   0  0  0  0  0  0  0  0  0  0  0  0
   16.5240   -8.1600   15.3112 C   0  0  0  0  0  0  0  0  0  0  0  0
   16.6232   -8.8164   16.5462 C   0  0  0  0  0  0  0  0  0  0  0  0
   16.5645   -8.0930   17.7308 O   0  0  0  0  0  0  0  0  0  0  0  0
   16.7806  -10.2046   16.5934 C   0  0  0  0  0  0  0  0  0  0  0  0
   16.8420  -10.9457   15.4107 C   0  0  0  0  0  0  0  0  0  0  0  0
   16.7501  -10.3039   14.1723 C   0  0  0  0  0  0  0  0  0  0  0  0
   16.5867   -8.9116   14.1272 C   0  0  0  0  0  0  0  0  0  0  0  0
   16.4591   -7.1623   17.7066 H   0  0  0  0  0  0  0  0  0  0  0  0
   16.1514   -6.0471   14.0777 C   0  0  0  0  0  0  0  0  0  0  0  0
   16.3640   -6.7706   15.2823 O   0  0  0  0  0  0  0  0  0  0  0  0
 32 33  1  0  0  0
 33 24  1  0  0  0
 24 25  2  0  0  0
 25 26  1  0  0  0
 25 27  1  0  0  0
 27 28  2  0  0  0
 28 29  1  0  0  0
 29 30  2  0  0  0
 29  1  1  0  0  0
  1  2  1  0  0  0
  2  3  1  0  0  0
  3  4  1  0  0  0
  4  5  2  0  0  0
  4  6  1  0  0  0
  6  7  1  0  0  0
  7  8  2  0  0  0
  8  9  1  0  0  0
  9 10  1  0  0  0
  9 11  2  0  0  0
 11 12  1  0  0  0
 12 14  1  0  0  0
 14 15  2  0  0  0
 15 16  1  0  0  0
 16 17  2  0  0  0
 17 18  1  0  0  0
 18 19  1  0  0  0
 19 20  2  0  0  0
 20 21  1  0  0  0
 21 22  2  0  0  0
 30 24  1  0  0  0
  8  1  1  0  0  0
 22 14  1  0  0  0
 12  7  1  0  0  0
 19 15  1  0  0  0
 26 31  1  0  0  0
  6 13  1  0  0  0
 18 23  1  0  0  0
M  END
>  <minimizedAffinity>
11.37573

>  <minimizedRMSD>
1.49446

$$$$
CSC028122456 21498465 CSSS00028122456 MCULE-9179501028 MolPort-009-608-954 PubChem-29540303 Z66550342 ZINC000021498465


 31 34  0  0  0  0  0  0  0  0999 V2000
   17.6463   -9.5751   12.0441 C   0  0  0  0  0  0  0  0  0  0  0  0
   18.3392   -9.0954   10.9074 C   0  0  0  0  0  0  0  0  0  0  0  0
   17.6040   -8.7721    9.7406 C   0  0  0  0  0  0  0  0  0  0  0  0
   18.2631   -8.3027    8.6007 C   0  0  0  0  0  0  0  0  0  0  0  0
   19.6518   -8.1550    8.6033 C   0  0  0  0  0  0  0  0  0  0  0  0
   20.3873   -8.4787    9.7452 C   0  0  0  0  0  0  0  0  0  0  0  0
   19.7356   -8.9476   10.8886 C   0  0  0  0  0  0  0  0  0  0  0  0
   16.2549   -8.9221    9.7192 N   0  0  0  0  0  0  0  0  0  0  0  0
   15.5622   -9.3819   10.7960 C   0  0  0  0  0  0  0  0  0  0  0  0
   16.2553   -9.7096   11.9672 C   0  0  0  0  0  0  0  0  0  0  0  0
   14.0929   -9.5303   10.7216 C   0  0  0  0  0  0  0  0  0  0  0  0
   13.3058   -8.4935   10.1967 C   0  0  0  0  0  0  0  0  0  0  0  0
   11.9162   -8.6255   10.1218 C   0  0  0  0  0  0  0  0  0  0  0  0
   11.3002   -9.7962   10.5711 C   0  0  0  0  0  0  0  0  0  0  0  0
    9.8230   -9.9363   10.4914 C   0  0  0  0  0  0  0  0  0  0  0  0
   12.0733  -10.8351   11.0952 C   0  0  0  0  0  0  0  0  0  0  0  0
   13.4627  -10.7032   11.1703 C   0  0  0  0  0  0  0  0  0  0  0  0
   18.3215  -11.1250   13.9242 N   0  0  0  0  0  0  0  0  0  0  0  0
   18.3315   -9.9144   13.3222 C   0  0  0  0  0  0  0  0  0  0  0  0
   19.0333   -9.0239   14.0549 N   0  0  0  0  0  0  0  0  0  0  0  0
   19.4758   -9.6556   15.1324 N   0  0  0  0  0  0  0  0  0  0  0  0
   19.0380  -10.9242   15.0460 C   0  0  0  0  0  0  0  0  0  0  0  0
   18.0188  -13.4933   14.4415 C   0  0  0  0  0  0  0  0  0  0  0  0
   17.6877  -12.3633   13.4846 C   0  0  0  0  0  0  0  0  0  0  0  0
   19.3649  -12.1712   16.2928 S   0  0  0  0  0  0  0  0  0  0  0  0
   18.3437  -11.3319   17.5440 C   0  0  0  0  0  0  0  0  0  0  0  0
   17.1868  -10.6448   16.9040 C   0  0  0  0  0  0  0  0  0  0  0  0
   17.1409   -9.2182   16.8601 N   0  0  0  0  0  0  0  0  0  0  0  0
   16.0358   -8.5031   16.2449 C   0  0  0  0  0  0  0  0  0  0  0  0
   16.2508  -11.3317   16.4150 O   0  0  0  0  0  0  0  0  0  0  0  0
   17.8798   -8.7040   17.2586 H   0  0  0  0  0  0  0  0  0  0  0  0
 23 24  1  0  0  0
 24 18  1  0  0  0
 18 19  1  0  0  0
 19  1  1  0  0  0
  1  2  1  0  0  0
  2  3  1  0  0  0
  3  4  2  0  0  0
  4  5  1  0  0  0
  5  6  2  0  0  0
  6  7  1  0  0  0
  3  8  1  0  0  0
  8  9  2  0  0  0
  9 11  1  0  0  0
 11 12  2  0  0  0
 12 13  1  0  0  0
 13 14  2  0  0  0
 14 15  1  0  0  0
 14 16  1  0  0  0
 16 17  2  0  0  0
  9 10  1  0  0  0
 19 20  2  0  0  0
 20 21  1  0  0  0
 21 22  2  0  0  0
 22 25  1  0  0  0
 25 26  1  0  0  0
 26 27  1  0  0  0
 27 28  1  0  0  0
 28 29  1  0  0  0
 27 30  2  0  0  0
 22 18  1  0  0  0
 10  1  2  0  0  0
  7  2  2  0  0  0
 17 11  1  0  0  0
 28 31  1  0  0  0
M  END
>  <minimizedAffinity>
11.59632

>  <minimizedRMSD>
2.74995

$$$$
CSC027002210 9672131 CSSS00027002210 MCULE-3469200807 MolPort-005-817-740 PubChem-16293851 Z98233214 ZINC000009672131


 36 40  0  0  0  0  0  0  0  0999 V2000
   16.7876  -10.7684   11.4272 C   0  0  0  0  0  0  0  0  0  0  0  0
   16.5167   -9.9835   16.2067 N   0  0  0  0  0  0  0  0  0  0  0  0
   16.5053   -9.8389   14.8525 C   0  0  0  0  0  0  0  0  0  0  0  0
   16.2194   -8.6550   14.2552 C   0  0  0  0  0  0  0  0  0  0  0  0
   16.2821   -8.8134   12.9255 N   0  0  0  0  0  0  0  0  0  0  0  0
   16.6108  -10.1196   12.7616 C   0  0  0  0  0  0  0  0  0  0  0  0
   16.7581  -10.7932   13.9341 N   0  0  0  0  0  0  0  0  0  0  0  0
   16.0500   -7.8189   11.8885 C   0  0  0  0  0  0  0  0  0  0  0  0
   15.9184   -7.5380   15.0249 C   0  0  0  0  0  0  0  0  0  0  0  0
   15.6489   -6.4258   14.5009 O   0  0  0  0  0  0  0  0  0  0  0  0
   15.9199   -7.6829   16.3811 N   0  0  0  0  0  0  0  0  0  0  0  0
   16.2110   -8.8844   16.9747 C   0  0  0  0  0  0  0  0  0  0  0  0
   16.1984   -8.9676   18.2322 O   0  0  0  0  0  0  0  0  0  0  0  0
   15.7070   -6.9062   16.9474 H   0  0  0  0  0  0  0  0  0  0  0  0
   16.8077  -11.2750   16.8255 C   0  0  0  0  0  0  0  0  0  0  0  0
   18.3036  -11.5352   16.8346 C   0  0  0  0  0  0  0  0  0  0  0  0
   19.5939  -10.2994   15.1270 C   0  0  0  0  0  0  0  0  0  0  0  0
   19.0409  -10.2475   16.5350 C   0  0  0  0  0  0  0  0  0  0  0  0
   15.5272  -11.1294   10.8725 O   0  0  0  0  0  0  0  0  0  0  0  0
   14.7016  -10.2123   10.2171 C   0  0  0  0  0  0  0  0  0  0  0  0
   13.4909  -10.0823   10.5424 O   0  0  0  0  0  0  0  0  0  0  0  0
   15.2659   -9.3517    9.1407 C   0  0  0  0  0  0  0  0  0  0  0  0
   15.8737  -10.3718    7.7593 S   0  0  0  0  0  0  0  0  0  0  0  0
   17.3101   -9.3393    7.4738 C   0  0  0  0  0  0  0  0  0  0  0  0
   18.2130   -9.0567    8.4897 C   0  0  0  0  0  0  0  0  0  0  0  0
   19.2855   -8.2495    8.2313 C   0  0  0  0  0  0  0  0  0  0  0  0
   19.9769   -8.1347    9.4064 C   0  0  0  0  0  0  0  0  0  0  0  0
   19.2648   -8.8969   10.3134 C   0  0  0  0  0  0  0  0  0  0  0  0
   18.2054   -9.4494    9.7492 O   0  0  0  0  0  0  0  0  0  0  0  0
   19.6768   -9.0156   11.6381 C   0  0  0  0  0  0  0  0  0  0  0  0
   20.8455   -8.3304   12.0209 C   0  0  0  0  0  0  0  0  0  0  0  0
   21.5673   -7.5524   11.0872 C   0  0  0  0  0  0  0  0  0  0  0  0
   21.1335   -7.4443    9.7532 C   0  0  0  0  0  0  0  0  0  0  0  0
   19.5158   -7.7055    7.0132 N   0  0  0  0  0  0  0  0  0  0  0  0
   18.6309   -7.9893    6.0102 C   0  0  0  0  0  0  0  0  0  0  0  0
   17.5449   -8.7953    6.2427 N   0  0  0  0  0  0  0  0  0  0  0  0
 17 18  1  0  0  0
 18 16  1  0  0  0
 16 15  1  0  0  0
 15  2  1  0  0  0
  2  3  1  0  0  0
  3  4  2  0  0  0
  4  5  1  0  0  0
  5  6  1  0  0  0
  6  7  2  0  0  0
  6  1  1  0  0  0
  1 19  1  0  0  0
 19 20  1  0  0  0
 20 22  1  0  0  0
 22 23  1  0  0  0
 23 24  1  0  0  0
 24 25  2  0  0  0
 25 26  1  0  0  0
 26 27  1  0  0  0
 27 28  2  0  0  0
 28 29  1  0  0  0
 28 30  1  0  0  0
 30 31  2  0  0  0
 31 32  1  0  0  0
 32 33  2  0  0  0
 26 34  2  0  0  0
 34 35  1  0  0  0
 35 36  2  0  0  0
 20 21  2  0  0  0
  5  8  1  0  0  0
  4  9  1  0  0  0
  9 10  2  0  0  0
  9 11  1  0  0  0
 11 12  1  0  0  0
 12 13  2  0  0  0
 12  2  1  0  0  0
  7  3  1  0  0  0
 36 24  1  0  0  0
 29 25  1  0  0  0
 33 27  1  0  0  0
 11 14  1  0  0  0
M  END
>  <minimizedAffinity>
11.59654

>  <minimizedRMSD>
3.09555

$$$$
CSC028016373 13134882 CSSS00028016373 MCULE-9957081684 MolPort-005-835-939 PubChem-4850405 Z31240965 ZINC000013134882


 35 39  0  0  0  0  0  0  0  0999 V2000
   18.0913   -8.7424    9.4512 C   0  0  0  0  0  0  0  0  0  0  0  0
   18.2886   -8.2917    8.1407 C   0  0  0  0  0  0  0  0  0  0  0  0
   17.1809   -8.1374    7.3259 C   0  0  0  0  0  0  0  0  0  0  0  0
   17.6275   -7.5953    5.7989 S   0  0  0  0  0  0  0  0  0  0  0  0
   19.2736   -7.5333    6.1748 C   0  0  0  0  0  0  0  0  0  0  0  0
   19.4873   -7.9653    7.4862 C   0  0  0  0  0  0  0  0  0  0  0  0
   20.8563   -7.9566    8.1068 C   0  0  0  0  0  0  0  0  0  0  0  0
   21.9524   -7.9490    7.0350 C   0  0  0  0  0  0  0  0  0  0  0  0
   21.6677   -6.8782    5.9774 C   0  0  0  0  0  0  0  0  0  0  0  0
   20.3755   -7.1979    5.2187 C   0  0  0  0  0  0  0  0  0  0  0  0
   15.9247   -8.4053    7.7534 N   0  0  0  0  0  0  0  0  0  0  0  0
   15.7438   -8.8322    9.0345 C   0  0  0  0  0  0  0  0  0  0  0  0
   16.8166   -9.0048    9.8620 N   0  0  0  0  0  0  0  0  0  0  0  0
   19.1943   -8.9330   10.3436 N   0  0  0  0  0  0  0  0  0  0  0  0
   19.9184   -8.2659   10.3410 H   0  0  0  0  0  0  0  0  0  0  0  0
   19.2994  -10.0651   11.2561 C   0  0  0  0  0  0  0  0  0  0  0  0
   17.1334   -9.2944   14.8788 C   0  0  0  0  0  0  0  0  0  0  0  0
   16.5964   -8.9159   13.6435 C   0  0  0  0  0  0  0  0  0  0  0  0
   17.3031   -9.1711   12.4655 C   0  0  0  0  0  0  0  0  0  0  0  0
   18.5504   -9.8017   12.5191 C   0  0  0  0  0  0  0  0  0  0  0  0
   19.0880  -10.1815   13.7544 C   0  0  0  0  0  0  0  0  0  0  0  0
   18.3808   -9.9266   14.9320 C   0  0  0  0  0  0  0  0  0  0  0  0
   17.3680   -8.7451   17.6632 N   0  0  0  0  0  0  0  0  0  0  0  0
   16.2553   -8.9551   16.3586 S   0  0  0  0  0  0  0  0  0  0  0  0
   15.3418  -10.1041   16.6814 O   0  0  0  0  0  0  0  0  0  0  0  0
   15.4448   -7.7018   16.1848 O   0  0  0  0  0  0  0  0  0  0  0  0
   17.9181   -9.5959   17.7811 H   0  0  0  0  0  0  0  0  0  0  0  0
   16.8525   -8.5518   18.5219 H   0  0  0  0  0  0  0  0  0  0  0  0
   14.3760   -9.1634    9.5213 C   0  0  0  0  0  0  0  0  0  0  0  0
   14.2595  -10.6011    9.7479 N   0  0  0  0  0  0  0  0  0  0  0  0
   14.9112  -10.9542   11.0198 C   0  0  0  0  0  0  0  0  0  0  0  0
   14.0672  -10.5200   12.2244 C   0  0  0  0  0  0  0  0  0  0  0  0
   12.8023  -11.1247   12.1550 O   0  0  0  0  0  0  0  0  0  0  0  0
   12.1487  -10.5401   11.0589 C   0  0  0  0  0  0  0  0  0  0  0  0
   12.8365  -10.9698    9.7558 C   0  0  0  0  0  0  0  0  0  0  0  0
 23 24  1  0  0  0
 24 17  1  0  0  0
 17 18  2  0  0  0
 18 19  1  0  0  0
 19 20  2  0  0  0
 20 16  1  0  0  0
 16 14  1  0  0  0
 14  1  1  0  0  0
  1  2  1  0  0  0
  2  3  2  0  0  0
  3  4  1  0  0  0
  4  5  1  0  0  0
  5  6  2  0  0  0
  6  7  1  0  0  0
  7  8  1  0  0  0
  8  9  1  0  0  0
  9 10  1  0  0  0
  3 11  1  0  0  0
 11 12  2  0  0  0
 12 29  1  0  0  0
 29 30  1  0  0  0
 30 31  1  0  0  0
 31 32  1  0  0  0
 32 33  1  0  0  0
 33 34  1  0  0  0
 34 35  1  0  0  0
 12 13  1  0  0  0
 20 21  1  0  0  0
 21 22  2  0  0  0
 24 25  2  0  0  0
 24 26  2  0  0  0
 22 17  1  0  0  0
 13  1  2  0  0  0
  6  2  1  0  0  0
 35 30  1  0  0  0
 10  5  1  0  0  0
 23 27  1  0  0  0
 23 28  1  0  0  0
 14 15  1  0  0  0
M  END
>  <minimizedAffinity>
11.89029

>  <minimizedRMSD>
1.80154

$$$$
CSSS03437857778 MolPort-047-842-492 Z4927220463


 37 42  0  0  0  0  0  0  0  0999 V2000
   18.9108  -10.6003   11.2435 C   0  0  0  0  0  0  0  0  0  0  0  0
   19.7490  -11.4527   10.8411 O   0  0  0  0  0  0  0  0  0  0  0  0
   18.1672  -10.8531   12.4469 N   0  0  0  0  0  0  0  0  0  0  0  0
   18.0946  -12.2036   12.9940 C   0  0  0  0  0  0  0  0  0  0  0  0
   18.9329  -12.2807   14.2704 C   0  0  0  0  0  0  0  0  0  0  0  0
   18.5308  -11.1878   15.2747 C   0  0  0  0  0  0  0  0  0  0  0  0
   19.4992  -11.2344   16.4428 C   0  0  0  0  0  0  0  0  0  0  0  0
   18.8193  -12.0019   17.5656 C   0  0  0  0  0  0  0  0  0  0  0  0
   17.4449  -12.4011   17.0630 C   0  0  0  0  0  0  0  0  0  0  0  0
   17.1537  -11.5076   15.8722 C   0  0  0  0  0  0  0  0  0  0  0  0
   18.6115   -9.8044   14.6024 C   0  0  0  0  0  0  0  0  0  0  0  0
   17.7725   -9.7573   13.3266 C   0  0  0  0  0  0  0  0  0  0  0  0
   16.0415   -7.3305    6.8868 C   0  0  0  0  0  0  0  0  0  0  0  0
   16.5839   -8.2741    7.9017 C   0  0  0  0  0  0  0  0  0  0  0  0
   16.1315   -9.5340    8.0913 N   0  0  0  0  0  0  0  0  0  0  0  0
   16.8456  -10.1052    9.0578 N   0  0  0  0  0  0  0  0  0  0  0  0
   17.7479   -9.2009    9.4854 C   0  0  0  0  0  0  0  0  0  0  0  0
   18.7347   -9.3534   10.4697 C   0  0  0  0  0  0  0  0  0  0  0  0
   19.6053   -8.2627   10.6775 C   0  0  0  0  0  0  0  0  0  0  0  0
   19.4622   -7.0685    9.9370 C   0  0  0  0  0  0  0  0  0  0  0  0
   18.4536   -6.9447    8.9652 C   0  0  0  0  0  0  0  0  0  0  0  0
   17.6184   -8.0414    8.7728 C   0  0  0  0  0  0  0  0  0  0  0  0
   16.7347  -11.0222    9.3986 H   0  0  0  0  0  0  0  0  0  0  0  0
   16.4733  -10.2981   16.3298 N   0  0  0  0  0  0  0  0  0  0  0  0
   16.1817  -10.0429   17.7072 C   0  0  0  0  0  0  0  0  0  0  0  0
   16.5019  -10.8887   18.5868 O   0  0  0  0  0  0  0  0  0  0  0  0
   16.2035   -9.6287   15.6603 H   0  0  0  0  0  0  0  0  0  0  0  0
   15.5004   -8.7965   18.0957 C   0  0  0  0  0  0  0  0  0  0  0  0
   15.9982   -8.0170   19.1711 C   0  0  0  0  0  0  0  0  0  0  0  0
   15.3593   -6.8240   19.5576 C   0  0  0  0  0  0  0  0  0  0  0  0
   14.2267   -6.4478   18.8429 C   0  0  0  0  0  0  0  0  0  0  0  0
   13.4599   -5.3647   19.0265 N   0  0  0  0  0  0  0  0  0  0  0  0
   12.4923   -5.4173   18.1150 N   0  0  0  0  0  0  0  0  0  0  0  0
   12.6313   -6.5272   17.3460 C   0  0  0  0  0  0  0  0  0  0  0  0
   13.7427   -7.1908   17.8097 C   0  0  0  0  0  0  0  0  0  0  0  0
   14.3469   -8.3744   17.3993 C   0  0  0  0  0  0  0  0  0  0  0  0
   13.5879   -4.6639   19.7060 H   0  0  0  0  0  0  0  0  0  0  0  0
 13 14  1  0  0  0
 14 15  2  0  0  0
 15 16  1  0  0  0
 16 17  1  0  0  0
 17 18  2  0  0  0
 18 19  1  0  0  0
 19 20  2  0  0  0
 20 21  1  0  0  0
 21 22  2  0  0  0
 18  1  1  0  0  0
  1  2  2  0  0  0
  1  3  1  0  0  0
  3  4  1  0  0  0
  4  5  1  0  0  0
  5  6  1  0  0  0
  6  7  1  0  0  0
  7  8  1  0  0  0
  8  9  1  0  0  0
  9 10  1  0  0  0
 10 24  1  0  0  0
 24 25  1  0  0  0
 25 26  2  0  0  0
 25 28  1  0  0  0
 28 29  2  0  0  0
 29 30  1  0  0  0
 30 31  2  0  0  0
 31 32  1  0  0  0
 32 33  1  0  0  0
 33 34  2  0  0  0
 34 35  1  0  0  0
 35 36  2  0  0  0
  6 11  1  0  0  0
 11 12  1  0  0  0
 22 14  1  0  0  0
 12  3  1  0  0  0
 22 17  1  0  0  0
 10  6  1  0  0  0
 36 28  1  0  0  0
 35 31  1  0  0  0
 16 23  1  0  0  0
 24 27  1  0  0  0
 32 37  1  0  0  0
M  END
>  <minimizedAffinity>
12.00153

>  <minimizedRMSD>
3.92511

$$$$
726437854 CSSS00116283907 MCULE-9088812787 MolPort-046-432-762 PubChem-137973161 Z1021698238


 34 37  0  0  0  0  0  0  0  0999 V2000
   18.3575   -8.4522    5.4921 C   0  0  0  0  0  0  0  0  0  0  0  0
   17.8316   -9.1229    6.7142 C   0  0  0  0  0  0  0  0  0  0  0  0
   17.8804   -8.6158    8.0210 C   0  0  0  0  0  0  0  0  0  0  0  0
   17.2582   -9.4862    8.9455 C   0  0  0  0  0  0  0  0  0  0  0  0
   16.7321  -10.6127    8.3438 C   0  0  0  0  0  0  0  0  0  0  0  0
   17.0133  -10.6000    6.6927 S   0  0  0  0  0  0  0  0  0  0  0  0
   16.0888  -11.5749    9.0414 N   0  0  0  0  0  0  0  0  0  0  0  0
   15.9665  -11.4395   10.3893 C   0  0  0  0  0  0  0  0  0  0  0  0
   16.5031  -10.3603   11.0421 N   0  0  0  0  0  0  0  0  0  0  0  0
   17.1454   -9.3733   10.3404 C   0  0  0  0  0  0  0  0  0  0  0  0
   17.6441   -8.3895   10.9511 O   0  0  0  0  0  0  0  0  0  0  0  0
   18.4826   -7.3100    8.3514 C   0  0  0  0  0  0  0  0  0  0  0  0
   17.9772   -6.1321    7.7832 C   0  0  0  0  0  0  0  0  0  0  0  0
   18.5675   -4.8991    8.0756 C   0  0  0  0  0  0  0  0  0  0  0  0
   19.6716   -4.8382    8.9304 C   0  0  0  0  0  0  0  0  0  0  0  0
   20.1877   -6.0103    9.4903 C   0  0  0  0  0  0  0  0  0  0  0  0
   19.5974   -7.2434    9.1984 C   0  0  0  0  0  0  0  0  0  0  0  0
   16.3411  -10.2092   12.4343 N   0  0  0  0  0  0  0  0  0  0  0  0
   15.5097   -9.7832   12.7451 H   0  0  0  0  0  0  0  0  0  0  0  0
   17.2806  -10.6214   13.4404 C   0  0  0  0  0  0  0  0  0  0  0  0
   18.8914  -10.4420   13.2041 S   0  0  0  0  0  0  0  0  0  0  0  0
   16.8300  -10.9345   14.7642 N   0  0  0  0  0  0  0  0  0  0  0  0
   16.8104  -11.8879   15.0090 H   0  0  0  0  0  0  0  0  0  0  0  0
   16.4047  -10.0049   15.7697 C   0  0  0  0  0  0  0  0  0  0  0  0
   16.8763  -10.1651   17.0764 C   0  0  0  0  0  0  0  0  0  0  0  0
   16.4723   -9.2883   18.0874 C   0  0  0  0  0  0  0  0  0  0  0  0
   15.5862   -8.2400   17.8042 C   0  0  0  0  0  0  0  0  0  0  0  0
   15.1073   -8.0833   16.4961 C   0  0  0  0  0  0  0  0  0  0  0  0
   15.5120   -8.9609   15.4868 C   0  0  0  0  0  0  0  0  0  0  0  0
   15.1611   -7.3152   18.8696 C   0  0  0  0  0  0  0  0  0  0  0  0
   15.9362   -7.1770   20.0572 N   0  0  0  0  0  0  0  0  0  0  0  0
   14.1071   -6.6372   18.7407 O   0  0  0  0  0  0  0  0  0  0  0  0
   16.7619   -7.7013   20.1700 H   0  0  0  0  0  0  0  0  0  0  0  0
   15.6462   -6.5573   20.7650 H   0  0  0  0  0  0  0  0  0  0  0  0
  1  2  1  0  0  0
  2  3  2  0  0  0
  3  4  1  0  0  0
  4  5  2  0  0  0
  5  6  1  0  0  0
  5  7  1  0  0  0
  7  8  2  0  0  0
  8  9  1  0  0  0
  9 18  1  0  0  0
 18 20  1  0  0  0
 20 21  2  0  0  0
 20 22  1  0  0  0
 22 24  1  0  0  0
 24 25  2  0  0  0
 25 26  1  0  0  0
 26 27  2  0  0  0
 27 28  1  0  0  0
 28 29  2  0  0  0
 27 30  1  0  0  0
 30 31  1  0  0  0
 30 32  2  0  0  0
  9 10  1  0  0  0
 10 11  2  0  0  0
  3 12  1  0  0  0
 12 13  2  0  0  0
 13 14  1  0  0  0
 14 15  2  0  0  0
 15 16  1  0  0  0
 16 17  2  0  0  0
  6  2  1  0  0  0
 29 24  1  0  0  0
 17 12  1  0  0  0
 10  4  1  0  0  0
 18 19  1  0  0  0
 22 23  1  0  0  0
 31 33  1  0  0  0
 31 34  1  0  0  0
M  END
>  <minimizedAffinity>
12.01226

>  <minimizedRMSD>
1.99960

$$$$
CSSS00160226801 MCULE-5453011888 MolPort-045-961-166 PubChem-131944641


 31 34  0  0  0  0  0  0  0  0999 V2000
   17.0992   -7.9697   11.9138 N   0  0  0  0  0  0  0  0  0  0  0  0
   17.3499   -6.5865   11.5393 C   0  0  0  0  0  0  0  0  0  0  0  0
   16.0245   -8.2920   12.8113 C   0  0  0  0  0  0  0  0  0  0  0  0
   15.3196   -7.3691   13.3058 O   0  0  0  0  0  0  0  0  0  0  0  0
   15.7585   -9.7169   13.2042 C   0  0  0  0  0  0  0  0  0  0  0  0
   14.2787  -10.0560   13.1252 C   0  0  0  0  0  0  0  0  0  0  0  0
   16.3186  -10.0271   14.5621 C   0  0  0  0  0  0  0  0  0  0  0  0
   15.9362   -9.2827   15.6359 N   0  0  0  0  0  0  0  0  0  0  0  0
   16.4127   -9.5142   16.8602 N   0  0  0  0  0  0  0  0  0  0  0  0
   17.3079  -10.5058   17.1025 C   0  0  0  0  0  0  0  0  0  0  0  0
   17.7318  -10.6883   18.2754 O   0  0  0  0  0  0  0  0  0  0  0  0
   17.7464  -11.3107   16.0436 C   0  0  0  0  0  0  0  0  0  0  0  0
   18.6714  -12.3454   16.2479 C   0  0  0  0  0  0  0  0  0  0  0  0
   19.0924  -13.1351   15.1749 C   0  0  0  0  0  0  0  0  0  0  0  0
   18.5930  -12.8979   13.8920 C   0  0  0  0  0  0  0  0  0  0  0  0
   17.6717  -11.8698   13.6781 C   0  0  0  0  0  0  0  0  0  0  0  0
   17.2420  -11.0684   14.7474 C   0  0  0  0  0  0  0  0  0  0  0  0
   16.1071   -8.9511   17.6078 H   0  0  0  0  0  0  0  0  0  0  0  0
   17.9580   -9.0074   11.3540 C   0  0  0  0  0  0  0  0  0  0  0  0
   16.9839   -9.6422    7.1945 C   0  0  0  0  0  0  0  0  0  0  0  0
   18.0723   -8.8219    7.5281 C   0  0  0  0  0  0  0  0  0  0  0  0
   18.8083   -8.2301    6.5466 N   0  0  0  0  0  0  0  0  0  0  0  0
   19.8719   -7.4317    6.8297 C   0  0  0  0  0  0  0  0  0  0  0  0
   20.2405   -7.1966    8.1548 C   0  0  0  0  0  0  0  0  0  0  0  0
   19.5069   -7.7876    9.1832 C   0  0  0  0  0  0  0  0  0  0  0  0
   18.4106   -8.6078    8.8865 C   0  0  0  0  0  0  0  0  0  0  0  0
   17.6518   -9.2204    9.9025 C   0  0  0  0  0  0  0  0  0  0  0  0
   16.5696  -10.0349    9.5576 C   0  0  0  0  0  0  0  0  0  0  0  0
   16.2383  -10.2457    8.2185 C   0  0  0  0  0  0  0  0  0  0  0  0
   15.7244  -10.8246    5.4197 C   0  0  0  0  0  0  0  0  0  0  0  0
   16.6609   -9.8450    5.8475 O   0  0  0  0  0  0  0  0  0  0  0  0
 30 31  1  0  0  0
 31 20  1  0  0  0
 20 21  2  0  0  0
 21 22  1  0  0  0
 22 23  2  0  0  0
 23 24  1  0  0  0
 24 25  2  0  0  0
 25 26  1  0  0  0
 26 27  2  0  0  0
 27 19  1  0  0  0
 19  1  1  0  0  0
  1  2  1  0  0  0
  1  3  1  0  0  0
  3  4  2  0  0  0
  3  5  1  0  0  0
  5  6  1  0  0  0
  5  7  1  0  0  0
  7  8  2  0  0  0
  8  9  1  0  0  0
  9 10  1  0  0  0
 10 11  2  0  0  0
 10 12  1  0  0  0
 12 13  2  0  0  0
 13 14  1  0  0  0
 14 15  2  0  0  0
 15 16  1  0  0  0
 16 17  2  0  0  0
 27 28  1  0  0  0
 28 29  2  0  0  0
 29 20  1  0  0  0
 26 21  1  0  0  0
 17  7  1  0  0  0
 17 12  1  0  0  0
  9 18  1  0  0  0
M  END
>  <minimizedAffinity>
12.92758

>  <minimizedRMSD>
1.54383

$$$$
CSSS14790110994 Z8281750771


 37 40  0  0  0  0  0  0  0  0999 V2000
   18.2175   -8.3977    7.6484 N   0  0  0  0  0  0  0  0  0  0  0  0
   19.4971   -7.9458    7.8012 C   0  0  0  0  0  0  0  0  0  0  0  0
   20.1373   -7.4833    6.8180 O   0  0  0  0  0  0  0  0  0  0  0  0
   20.0945   -7.9859    9.0164 N   0  0  0  0  0  0  0  0  0  0  0  0
   19.4621   -8.4722   10.1115 C   0  0  0  0  0  0  0  0  0  0  0  0
   20.0681   -8.4491   11.2147 O   0  0  0  0  0  0  0  0  0  0  0  0
   18.1433   -8.9660    9.9992 C   0  0  0  0  0  0  0  0  0  0  0  0
   17.3926   -9.5005   11.0815 C   0  0  0  0  0  0  0  0  0  0  0  0
   16.0693   -9.8917   10.8685 C   0  0  0  0  0  0  0  0  0  0  0  0
   15.4876   -9.7715    9.6054 C   0  0  0  0  0  0  0  0  0  0  0  0
   16.2301   -9.2822    8.5783 N   0  0  0  0  0  0  0  0  0  0  0  0
   17.5251   -8.8844    8.7259 C   0  0  0  0  0  0  0  0  0  0  0  0
   21.0161   -7.6515    9.1065 H   0  0  0  0  0  0  0  0  0  0  0  0
   14.0859  -10.1811    9.3742 C   0  0  0  0  0  0  0  0  0  0  0  0
   13.1063   -9.9932   10.3635 C   0  0  0  0  0  0  0  0  0  0  0  0
   11.7835  -10.3833   10.1353 C   0  0  0  0  0  0  0  0  0  0  0  0
   11.4272  -10.9648    8.9161 C   0  0  0  0  0  0  0  0  0  0  0  0
   12.3931  -11.1562    7.9249 C   0  0  0  0  0  0  0  0  0  0  0  0
   13.7158  -10.7661    8.1531 C   0  0  0  0  0  0  0  0  0  0  0  0
   17.9462   -9.7284   12.4319 C   0  0  0  0  0  0  0  0  0  0  0  0
   19.0337  -10.3575   12.5458 O   0  0  0  0  0  0  0  0  0  0  0  0
   17.2470   -9.2897   13.6098 N   0  0  0  0  0  0  0  0  0  0  0  0
   16.0875   -8.4088   13.5022 C   0  0  0  0  0  0  0  0  0  0  0  0
   17.7604   -9.6538   14.9289 C   0  0  0  0  0  0  0  0  0  0  0  0
   18.1756   -8.4081   15.7083 C   0  0  0  0  0  0  0  0  0  0  0  0
   18.7888   -8.7983   17.0500 C   0  0  0  0  0  0  0  0  0  0  0  0
   17.8836   -9.7331   17.8626 C   0  0  0  0  0  0  0  0  0  0  0  0
   17.2912  -10.8961   17.0562 C   0  0  0  0  0  0  0  0  0  0  0  0
   16.7193  -10.4483   15.7143 C   0  0  0  0  0  0  0  0  0  0  0  0
   16.8966   -9.0261   18.6799 N   0  0  0  0  0  0  0  0  0  0  0  0
   15.7588   -8.2880   18.2205 C   0  0  0  0  0  0  0  0  0  0  0  0
   15.4987   -8.1808   16.9947 O   0  0  0  0  0  0  0  0  0  0  0  0
   14.8670   -7.6352   19.2134 C   0  0  0  0  0  0  0  0  0  0  0  0
   17.0298   -9.0620   19.6547 H   0  0  0  0  0  0  0  0  0  0  0  0
   17.5825   -8.3157    6.3287 C   0  0  0  0  0  0  0  0  0  0  0  0
   18.5174   -8.1284    4.0211 C   0  0  0  0  0  0  0  0  0  0  0  0
   18.4351   -8.9935    5.2638 C   0  0  0  0  0  0  0  0  0  0  0  0
 36 37  1  0  0  0
 37 35  1  0  0  0
 35  1  1  0  0  0
  1  2  1  0  0  0
  2  3  2  0  0  0
  2  4  1  0  0  0
  4  5  1  0  0  0
  5  6  2  0  0  0
  5  7  1  0  0  0
  7  8  2  0  0  0
  8  9  1  0  0  0
  9 10  2  0  0  0
 10 11  1  0  0  0
 11 12  2  0  0  0
 10 14  1  0  0  0
 14 15  2  0  0  0
 15 16  1  0  0  0
 16 17  2  0  0  0
 17 18  1  0  0  0
 18 19  2  0  0  0
  8 20  1  0  0  0
 20 21  2  0  0  0
 20 22  1  0  0  0
 22 23  1  0  0  0
 22 24  1  0  0  0
 24 25  1  0  0  0
 25 26  1  0  0  0
 26 27  1  0  0  0
 27 28  1  0  0  0
 28 29  1  0  0  0
 27 30  1  0  0  0
 30 31  1  0  0  0
 31 32  2  0  0  0
 31 33  1  0  0  0
 12  1  1  0  0  0
 19 14  1  0  0  0
 29 24  1  0  0  0
 12  7  1  0  0  0
  4 13  1  0  0  0
 30 34  1  0  0  0
M  END
>  <minimizedAffinity>
13.30017

>  <minimizedRMSD>
1.06332

$$$$
CSSS20521989032


 34 36  0  0  0  0  0  0  0  0999 V2000
   17.6021   -8.8306    7.0487 N   0  0  0  0  0  0  0  0  0  0  0  0
   18.5568   -8.0300    7.7696 C   0  0  0  0  0  0  0  0  0  0  0  0
   18.7859   -6.8485    7.3923 O   0  0  0  0  0  0  0  0  0  0  0  0
   19.2618   -8.5454    8.9614 C   0  0  0  0  0  0  0  0  0  0  0  0
   19.4176   -9.9144    9.2196 C   0  0  0  0  0  0  0  0  0  0  0  0
   19.0089  -10.9541    8.4764 N   0  0  0  0  0  0  0  0  0  0  0  0
   19.4397  -12.0323    9.1820 C   0  0  0  0  0  0  0  0  0  0  0  0
   20.1041  -11.7084   10.3221 N   0  0  0  0  0  0  0  0  0  0  0  0
   20.0790  -10.3691   10.3181 C   0  0  0  0  0  0  0  0  0  0  0  0
   20.6503   -9.5092   11.2516 C   0  0  0  0  0  0  0  0  0  0  0  0
   20.5265   -8.1274   11.0217 C   0  0  0  0  0  0  0  0  0  0  0  0
   21.0704   -7.2485   11.8968 F   0  0  0  0  0  0  0  0  0  0  0  0
   19.8438   -7.6500    9.8818 C   0  0  0  0  0  0  0  0  0  0  0  0
   20.5061  -12.3111   10.9887 H   0  0  0  0  0  0  0  0  0  0  0  0
   16.5331   -7.2545    5.5014 C   0  0  0  0  0  0  0  0  0  0  0  0
   17.3423   -8.5314    5.6413 C   0  0  0  0  0  0  0  0  0  0  0  0
   18.6403   -8.4204    4.8614 C   0  0  0  0  0  0  0  0  0  0  0  0
   16.8615   -9.9037    7.7125 C   0  0  0  0  0  0  0  0  0  0  0  0
   16.0121   -9.3422    8.8413 C   0  0  0  0  0  0  0  0  0  0  0  0
   16.3819   -9.9717   10.0993 N   0  0  0  0  0  0  0  0  0  0  0  0
   16.7290   -9.2164   11.2636 C   0  0  0  0  0  0  0  0  0  0  0  0
   16.6702   -7.9574   11.2457 O   0  0  0  0  0  0  0  0  0  0  0  0
   16.3937  -10.9547   10.1515 H   0  0  0  0  0  0  0  0  0  0  0  0
   17.1500   -9.9073   12.4868 C   0  0  0  0  0  0  0  0  0  0  0  0
   17.6149  -11.1710   12.5074 N   0  0  0  0  0  0  0  0  0  0  0  0
   17.8922  -11.4623   13.7644 N   0  0  0  0  0  0  0  0  0  0  0  0
   18.4199  -12.7526   14.1762 C   0  0  0  0  0  0  0  0  0  0  0  0
   17.6096  -10.3996   14.5483 C   0  0  0  0  0  0  0  0  0  0  0  0
   17.1245   -9.3655   13.7637 C   0  0  0  0  0  0  0  0  0  0  0  0
   17.7810  -10.3258   16.0129 C   0  0  0  0  0  0  0  0  0  0  0  0
   17.1884  -11.2933   16.8727 N   0  0  0  0  0  0  0  0  0  0  0  0
   18.4619   -9.3937   16.5166 O   0  0  0  0  0  0  0  0  0  0  0  0
   16.6536  -12.0275   16.4929 H   0  0  0  0  0  0  0  0  0  0  0  0
   17.3134  -11.2283   17.8470 H   0  0  0  0  0  0  0  0  0  0  0  0
 15 16  1  0  0  0
 16 17  1  0  0  0
 16  1  1  0  0  0
  1 18  1  0  0  0
 18 19  1  0  0  0
 19 20  1  0  0  0
 20 21  1  0  0  0
 21 22  2  0  0  0
 21 24  1  0  0  0
 24 25  2  0  0  0
 25 26  1  0  0  0
 26 27  1  0  0  0
 26 28  1  0  0  0
 28 29  2  0  0  0
 28 30  1  0  0  0
 30 31  1  0  0  0
 30 32  2  0  0  0
  1  2  1  0  0  0
  2  3  2  0  0  0
  2  4  1  0  0  0
  4  5  2  0  0  0
  5  6  1  0  0  0
  6  7  2  0  0  0
  7  8  1  0  0  0
  8  9  1  0  0  0
  9 10  2  0  0  0
 10 11  1  0  0  0
 11 12  1  0  0  0
 11 13  2  0  0  0
 29 24  1  0  0  0
 13  4  1  0  0  0
  9  5  1  0  0  0
 20 23  1  0  0  0
 31 33  1  0  0  0
 31 34  1  0  0  0
  8 14  1  0  0  0
M  END
>  <minimizedAffinity>
13.44695

>  <minimizedRMSD>
3.34779

$$$$
1547139345 CSSS00161021501 MCULE-5393356754 MolPort-046-068-601 ZINC001547139345


 38 43  0  0  0  0  0  0  0  0999 V2000
   19.3925   -9.0103   15.6598 C   0  0  0  0  0  0  0  0  0  0  0  0
   18.8379   -9.4337   14.4395 C   0  0  0  0  0  0  0  0  0  0  0  0
   19.4154   -9.3093   13.1832 O   0  0  0  0  0  0  0  0  0  0  0  0
   18.4877   -9.7823   12.2686 C   0  0  0  0  0  0  0  0  0  0  0  0
   18.5003   -9.4466   10.9690 C   0  0  0  0  0  0  0  0  0  0  0  0
   17.2339   -9.5982   10.2300 C   0  0  0  0  0  0  0  0  0  0  0  0
   16.0544   -9.8515   10.8786 C   0  0  0  0  0  0  0  0  0  0  0  0
   15.0925   -9.8434    9.8913 C   0  0  0  0  0  0  0  0  0  0  0  0
   13.6385  -10.1081   10.0629 C   0  0  0  0  0  0  0  0  0  0  0  0
   15.6822   -9.5870    8.7015 N   0  0  0  0  0  0  0  0  0  0  0  0
   16.9822   -9.4135    8.9168 N   0  0  0  0  0  0  0  0  0  0  0  0
   16.0136  -10.1212   12.3246 C   0  0  0  0  0  0  0  0  0  0  0  0
   14.9266  -10.1458   12.9601 O   0  0  0  0  0  0  0  0  0  0  0  0
   17.3385  -10.4988   12.9596 C   0  0  0  0  0  0  0  0  0  0  0  0
   17.5389  -12.0036   12.8501 C   0  0  0  0  0  0  0  0  0  0  0  0
   17.5997  -10.0565   14.3710 C   0  0  0  0  0  0  0  0  0  0  0  0
   16.8843  -10.3557   15.5332 C   0  0  0  0  0  0  0  0  0  0  0  0
   15.6936  -11.0720   15.4691 O   0  0  0  0  0  0  0  0  0  0  0  0
   17.4015   -9.9368   16.7713 C   0  0  0  0  0  0  0  0  0  0  0  0
   16.6401  -10.2207   18.0246 C   0  0  0  0  0  0  0  0  0  0  0  0
   18.6435   -9.2650   16.8384 C   0  0  0  0  0  0  0  0  0  0  0  0
   19.1205   -8.8516   18.0798 O   0  0  0  0  0  0  0  0  0  0  0  0
   15.3565  -11.3471   14.6392 H   0  0  0  0  0  0  0  0  0  0  0  0
   18.6214   -9.0227   18.8541 H   0  0  0  0  0  0  0  0  0  0  0  0
   17.9178   -9.1361    7.8655 C   0  0  0  0  0  0  0  0  0  0  0  0
   18.3204   -7.8421    7.5340 C   0  0  0  0  0  0  0  0  0  0  0  0
   17.9337   -6.6649    8.0443 N   0  0  0  0  0  0  0  0  0  0  0  0
   18.6197   -5.7645    7.2881 C   0  0  0  0  0  0  0  0  0  0  0  0
   19.3986   -6.3320    6.3271 N   0  0  0  0  0  0  0  0  0  0  0  0
   19.1792   -7.6391    6.5127 C   0  0  0  0  0  0  0  0  0  0  0  0
   19.6763   -8.6546    5.7677 N   0  0  0  0  0  0  0  0  0  0  0  0
   19.2860   -9.9282    6.0730 C   0  0  0  0  0  0  0  0  0  0  0  0
   19.8954  -11.2731    5.1338 Cl  0  0  0  0  0  0  0  0  0  0  0  0
   18.4105  -10.1582    7.1029 N   0  0  0  0  0  0  0  0  0  0  0  0
   19.9772   -5.8921    5.6631 H   0  0  0  0  0  0  0  0  0  0  0  0
   21.7913   -8.6278   14.7251 C   0  0  0  0  0  0  0  0  0  0  0  0
   20.7145   -8.3276   15.7121 C   0  0  0  0  0  0  0  0  0  0  0  0
   20.9539   -7.4662   16.5991 O   0  0  0  0  0  0  0  0  0  0  0  0
 36 37  1  0  0  0
 37 38  2  0  0  0
 37  1  1  0  0  0
  1  2  2  0  0  0
  2  3  1  0  0  0
  3  4  1  0  0  0
  4  5  2  0  0  0
  5  6  1  0  0  0
  6  7  2  0  0  0
  7  8  1  0  0  0
  8  9  1  0  0  0
  8 10  2  0  0  0
 10 11  1  0  0  0
 11 25  1  0  0  0
 25 26  2  0  0  0
 26 27  1  0  0  0
 27 28  2  0  0  0
 28 29  1  0  0  0
 29 30  1  0  0  0
 30 31  2  0  0  0
 31 32  1  0  0  0
 32 33  1  0  0  0
 32 34  2  0  0  0
  7 12  1  0  0  0
 12 13  2  0  0  0
 12 14  1  0  0  0
 14 15  1  0  0  0
 14 16  1  0  0  0
 16 17  2  0  0  0
 17 18  1  0  0  0
 17 19  1  0  0  0
 19 20  1  0  0  0
 19 21  2  0  0  0
 21 22  1  0  0  0
 21  1  1  0  0  0
 16  2  1  0  0  0
 14  4  1  0  0  0
 11  6  1  0  0  0
 34 25  1  0  0  0
 30 26  1  0  0  0
 29 35  1  0  0  0
 18 23  1  0  0  0
 22 24  1  0  0  0
M  END
>  <minimizedAffinity>
13.71557

>  <minimizedRMSD>
3.07611

$$$$
2325827512 CSSS04441770265 PubChem-166342795 Z5129500974


 30 33  0  0  0  0  0  0  0  0999 V2000
   16.6942  -11.7825   10.6404 C   0  0  0  0  0  0  0  0  0  0  0  0
   16.4879  -12.8819   10.0578 O   0  0  0  0  0  0  0  0  0  0  0  0
   16.7541  -11.7342   12.0747 N   0  0  0  0  0  0  0  0  0  0  0  0
   16.7617  -12.9645   12.8556 C   0  0  0  0  0  0  0  0  0  0  0  0
   17.8907  -12.9226   13.8840 C   0  0  0  0  0  0  0  0  0  0  0  0
   18.0460  -11.5732   14.5320 C   0  0  0  0  0  0  0  0  0  0  0  0
   17.4420  -10.4133   13.9992 C   0  0  0  0  0  0  0  0  0  0  0  0
   17.6403   -9.1782   14.6226 C   0  0  0  0  0  0  0  0  0  0  0  0
   18.4501   -9.0753   15.7619 C   0  0  0  0  0  0  0  0  0  0  0  0
   19.0611  -10.2272   16.2747 C   0  0  0  0  0  0  0  0  0  0  0  0
   18.8623  -11.4665   15.6615 C   0  0  0  0  0  0  0  0  0  0  0  0
   16.5558  -10.4782   12.7920 C   0  0  0  0  0  0  0  0  0  0  0  0
   15.7495   -9.9208    9.2384 C   0  0  0  0  0  0  0  0  0  0  0  0
   16.8687  -10.5566    9.8241 C   0  0  0  0  0  0  0  0  0  0  0  0
   18.1560  -10.0174    9.5988 C   0  0  0  0  0  0  0  0  0  0  0  0
   19.3747  -10.6962   10.1526 C   0  0  0  0  0  0  0  0  0  0  0  0
   18.2949   -8.8601    8.8110 C   0  0  0  0  0  0  0  0  0  0  0  0
   19.5511   -8.2835    8.5619 C   0  0  0  0  0  0  0  0  0  0  0  0
   19.6582   -7.1362    7.7711 C   0  0  0  0  0  0  0  0  0  0  0  0
   18.5128   -6.5555    7.2209 C   0  0  0  0  0  0  0  0  0  0  0  0
   17.2575   -7.1206    7.4596 C   0  0  0  0  0  0  0  0  0  0  0  0
   17.1429   -8.2677    8.2503 C   0  0  0  0  0  0  0  0  0  0  0  0
   15.9209   -8.8106    8.4744 N   0  0  0  0  0  0  0  0  0  0  0  0
   13.8188  -10.0057   10.7890 C   0  0  0  0  0  0  0  0  0  0  0  0
   14.3548  -10.4281    9.4334 C   0  0  0  0  0  0  0  0  0  0  0  0
   18.6584   -7.7695   16.4118 C   0  0  0  0  0  0  0  0  0  0  0  0
   19.6556   -7.6147   17.4177 N   0  0  0  0  0  0  0  0  0  0  0  0
   17.9563   -6.7762   16.0838 O   0  0  0  0  0  0  0  0  0  0  0  0
   20.2108   -8.3833   17.6829 H   0  0  0  0  0  0  0  0  0  0  0  0
   19.7895   -6.7392   17.8476 H   0  0  0  0  0  0  0  0  0  0  0  0
 24 25  1  0  0  0
 25 13  1  0  0  0
 13 14  2  0  0  0
 14  1  1  0  0  0
  1  2  2  0  0  0
  1  3  1  0  0  0
  3  4  1  0  0  0
  4  5  1  0  0  0
  5  6  1  0  0  0
  6  7  2  0  0  0
  7  8  1  0  0  0
  8  9  2  0  0  0
  9 26  1  0  0  0
 26 27  1  0  0  0
 26 28  2  0  0  0
  9 10  1  0  0  0
 10 11  2  0  0  0
  7 12  1  0  0  0
 14 15  1  0  0  0
 15 16  1  0  0  0
 15 17  2  0  0  0
 17 18  1  0  0  0
 18 19  2  0  0  0
 19 20  1  0  0  0
 20 21  2  0  0  0
 21 22  1  0  0  0
 22 23  2  0  0  0
 23 13  1  0  0  0
 12  3  1  0  0  0
 22 17  1  0  0  0
 11  6  1  0  0  0
 27 29  1  0  0  0
 27 30  1  0  0  0
M  END
>  <minimizedAffinity>
13.79110

>  <minimizedRMSD>
1.63839

$$$$
CSSS15282151171


 34 37  0  0  0  0  0  0  0  0999 V2000
   17.0900   -8.5744   14.8584 C   0  0  0  0  0  0  0  0  0  0  0  0
   17.4261   -7.3651   14.7334 O   0  0  0  0  0  0  0  0  0  0  0  0
   16.7975   -9.3536   13.6862 N   0  0  0  0  0  0  0  0  0  0  0  0
   17.2165   -8.8811   12.3699 C   0  0  0  0  0  0  0  0  0  0  0  0
   15.9909   -8.4143   11.5891 C   0  0  0  0  0  0  0  0  0  0  0  0
   14.9511   -9.4419   11.6444 N   0  0  0  0  0  0  0  0  0  0  0  0
   14.5534   -9.9590   12.9534 C   0  0  0  0  0  0  0  0  0  0  0  0
   15.7910  -10.4123   13.7228 C   0  0  0  0  0  0  0  0  0  0  0  0
   14.2039   -9.7966   10.4713 C   0  0  0  0  0  0  0  0  0  0  0  0
   13.2028  -10.5571   10.5650 O   0  0  0  0  0  0  0  0  0  0  0  0
   18.4764  -10.9638   15.7239 F   0  0  0  0  0  0  0  0  0  0  0  0
   17.6561  -10.3146   16.5902 C   0  0  0  0  0  0  0  0  0  0  0  0
   16.9794   -9.1409   16.2180 C   0  0  0  0  0  0  0  0  0  0  0  0
   16.2336   -8.4817   17.1463 N   0  0  0  0  0  0  0  0  0  0  0  0
   16.1073   -8.9514   18.4144 C   0  0  0  0  0  0  0  0  0  0  0  0
   15.4036   -8.3258   19.2490 O   0  0  0  0  0  0  0  0  0  0  0  0
   16.7408  -10.0948   18.7825 N   0  0  0  0  0  0  0  0  0  0  0  0
   17.5124  -10.7804   17.8998 C   0  0  0  0  0  0  0  0  0  0  0  0
   18.1013  -11.8306   18.2685 O   0  0  0  0  0  0  0  0  0  0  0  0
   15.7764   -7.6473   16.8934 H   0  0  0  0  0  0  0  0  0  0  0  0
   16.6393  -10.4314   19.7021 H   0  0  0  0  0  0  0  0  0  0  0  0
   14.6170   -9.3110    9.1174 C   0  0  0  0  0  0  0  0  0  0  0  0
   15.9649   -9.8541    8.7527 C   0  0  0  0  0  0  0  0  0  0  0  0
   16.2889  -11.1224    9.1235 N   0  0  0  0  0  0  0  0  0  0  0  0
   17.4777  -11.6578    8.8411 N   0  0  0  0  0  0  0  0  0  0  0  0
   18.4313  -10.9641    8.1673 C   0  0  0  0  0  0  0  0  0  0  0  0
   19.5412  -11.5096    7.9233 O   0  0  0  0  0  0  0  0  0  0  0  0
   18.1645   -9.6530    7.7522 C   0  0  0  0  0  0  0  0  0  0  0  0
   16.9056   -9.0857    8.0477 C   0  0  0  0  0  0  0  0  0  0  0  0
   16.6225   -7.7771    7.6279 C   0  0  0  0  0  0  0  0  0  0  0  0
   17.5792   -7.0366    6.9291 C   0  0  0  0  0  0  0  0  0  0  0  0
   18.8258   -7.5973    6.6417 C   0  0  0  0  0  0  0  0  0  0  0  0
   19.1187   -8.9012    7.0504 C   0  0  0  0  0  0  0  0  0  0  0  0
   17.6688  -12.5798    9.1287 H   0  0  0  0  0  0  0  0  0  0  0  0
 11 12  1  0  0  0
 12 13  2  0  0  0
 13 14  1  0  0  0
 14 15  1  0  0  0
 15 16  2  0  0  0
 15 17  1  0  0  0
 17 18  1  0  0  0
 18 19  2  0  0  0
 13  1  1  0  0  0
  1  2  2  0  0  0
  1  3  1  0  0  0
  3  4  1  0  0  0
  4  5  1  0  0  0
  5  6  1  0  0  0
  6  7  1  0  0  0
  7  8  1  0  0  0
  6  9  1  0  0  0
  9 10  2  0  0  0
  9 22  1  0  0  0
 22 23  1  0  0  0
 23 24  2  0  0  0
 24 25  1  0  0  0
 25 26  1  0  0  0
 26 27  2  0  0  0
 26 28  1  0  0  0
 28 29  2  0  0  0
 29 30  1  0  0  0
 30 31  2  0  0  0
 31 32  1  0  0  0
 32 33  2  0  0  0
 18 12  1  0  0  0
  8  3  1  0  0  0
 29 23  1  0  0  0
 33 28  1  0  0  0
 14 20  1  0  0  0
 17 21  1  0  0  0
 25 34  1  0  0  0
M  END
>  <minimizedAffinity>
13.82338

>  <minimizedRMSD>
1.34474

$$$$
CSSS03790371314 Z8621142495


 29 32  0  0  0  0  0  0  0  0999 V2000
   17.2886   -7.2694   14.4961 C   0  0  0  0  0  0  0  0  0  0  0  0
   15.8784   -7.5942   14.0354 C   0  0  0  0  0  0  0  0  0  0  0  0
   15.0816   -6.3158   13.8391 C   0  0  0  0  0  0  0  0  0  0  0  0
   15.1856   -8.4514   15.0781 C   0  0  0  0  0  0  0  0  0  0  0  0
   15.0462   -9.8483   14.4816 C   0  0  0  0  0  0  0  0  0  0  0  0
   15.2892   -9.6941   12.9933 C   0  0  0  0  0  0  0  0  0  0  0  0
   15.9064   -8.3925   12.8158 N   0  0  0  0  0  0  0  0  0  0  0  0
   16.4526   -7.9384   11.5589 C   0  0  0  0  0  0  0  0  0  0  0  0
   16.6603   -6.7070   11.3855 O   0  0  0  0  0  0  0  0  0  0  0  0
   16.8034   -8.8823   10.4688 C   0  0  0  0  0  0  0  0  0  0  0  0
   16.2394  -10.1684   10.4132 C   0  0  0  0  0  0  0  0  0  0  0  0
   16.6276  -11.0432    9.3823 C   0  0  0  0  0  0  0  0  0  0  0  0
   17.5441  -10.6527    8.4511 N   0  0  0  0  0  0  0  0  0  0  0  0
   18.0736   -9.4089    8.5406 C   0  0  0  0  0  0  0  0  0  0  0  0
   19.0000   -8.8317    7.7026 C   0  0  0  0  0  0  0  0  0  0  0  0
   19.1606   -7.5619    8.2675 C   0  0  0  0  0  0  0  0  0  0  0  0
   18.3712   -7.4265    9.3609 N   0  0  0  0  0  0  0  0  0  0  0  0
   17.7197   -8.5637    9.5118 N   0  0  0  0  0  0  0  0  0  0  0  0
   16.0706  -10.7227   15.0340 N   0  0  0  0  0  0  0  0  0  0  0  0
   16.7513  -10.4537   16.2622 C   0  0  0  0  0  0  0  0  0  0  0  0
   16.4355   -9.4470   16.9523 O   0  0  0  0  0  0  0  0  0  0  0  0
   16.3063  -11.5394   14.5375 H   0  0  0  0  0  0  0  0  0  0  0  0
   17.8197  -11.3490   16.7329 C   0  0  0  0  0  0  0  0  0  0  0  0
   18.2134  -11.4227   18.0161 N   0  0  0  0  0  0  0  0  0  0  0  0
   19.1887  -12.3154   18.1015 N   0  0  0  0  0  0  0  0  0  0  0  0
   19.4379  -12.8280   16.8788 C   0  0  0  0  0  0  0  0  0  0  0  0
   18.5771  -12.2282   15.9847 C   0  0  0  0  0  0  0  0  0  0  0  0
   18.5067  -12.5469   14.2601 Cl  0  0  0  0  0  0  0  0  0  0  0  0
   17.8409  -10.9025   18.7643 H   0  0  0  0  0  0  0  0  0  0  0  0
  1  2  1  0  0  0
  2  3  1  0  0  0
  2  4  1  0  0  0
  4  5  1  0  0  0
  5  6  1  0  0  0
  6  7  1  0  0  0
  7  8  1  0  0  0
  8  9  2  0  0  0
  8 10  1  0  0  0
 10 11  2  0  0  0
 11 12  1  0  0  0
 12 13  2  0  0  0
 13 14  1  0  0  0
 14 15  2  0  0  0
 15 16  1  0  0  0
 16 17  2  0  0  0
 17 18  1  0  0  0
  5 19  1  0  0  0
 19 20  1  0  0  0
 20 21  2  0  0  0
 20 23  1  0  0  0
 23 24  1  0  0  0
 24 25  1  0  0  0
 25 26  2  0  0  0
 26 27  1  0  0  0
 27 28  1  0  0  0
  7  2  1  0  0  0
 18 10  1  0  0  0
 27 23  2  0  0  0
 18 14  1  0  0  0
 19 22  1  0  0  0
 24 29  1  0  0  0
M  END
>  <minimizedAffinity>
13.87834

>  <minimizedRMSD>
2.70724

$$$$
40286416 CSSS00160618166 LN00855161 MCULE-2541467224 MolPort-008-338-588 PubChem-49656093 ZINC000040286416 ZINC40286416


 32 35  0  0  0  0  0  0  0  0999 V2000
   19.2312  -11.1925   12.0382 C   0  0  0  0  0  0  0  0  0  0  0  0
   19.2706  -11.1485   10.6192 C   0  0  0  0  0  0  0  0  0  0  0  0
   20.1423  -11.9994    9.9244 C   0  0  0  0  0  0  0  0  0  0  0  0
   20.9787  -12.8784   10.6127 C   0  0  0  0  0  0  0  0  0  0  0  0
   20.9553  -12.9141   12.0059 C   0  0  0  0  0  0  0  0  0  0  0  0
   20.0880  -12.0779   12.7106 C   0  0  0  0  0  0  0  0  0  0  0  0
   18.4679  -10.2270    9.8657 N   0  0  0  0  0  0  0  0  0  0  0  0
   17.1890  -10.5846    9.5595 C   0  0  0  0  0  0  0  0  0  0  0  0
   16.3904   -9.7543    8.8409 N   0  0  0  0  0  0  0  0  0  0  0  0
   16.8455   -8.5534    8.4066 C   0  0  0  0  0  0  0  0  0  0  0  0
   16.0074   -7.7104    7.6711 C   0  0  0  0  0  0  0  0  0  0  0  0
   16.4797   -6.4736    7.2213 C   0  0  0  0  0  0  0  0  0  0  0  0
   17.7905   -6.0771    7.5047 C   0  0  0  0  0  0  0  0  0  0  0  0
   18.6338   -6.9160    8.2395 C   0  0  0  0  0  0  0  0  0  0  0  0
   18.1665   -8.1575    8.6948 C   0  0  0  0  0  0  0  0  0  0  0  0
   18.9770   -9.0300    9.4344 C   0  0  0  0  0  0  0  0  0  0  0  0
   20.1704   -8.7116    9.7002 O   0  0  0  0  0  0  0  0  0  0  0  0
   18.3696  -10.4358   14.2818 N   0  0  0  0  0  0  0  0  0  0  0  0
   18.3071  -10.3635   12.8487 C   0  0  0  0  0  0  0  0  0  0  0  0
   17.4556   -9.6226   12.2880 O   0  0  0  0  0  0  0  0  0  0  0  0
   19.0267  -11.0623   14.6625 H   0  0  0  0  0  0  0  0  0  0  0  0
   16.0512   -8.2787   17.1136 C   0  0  0  0  0  0  0  0  0  0  0  0
   16.0690   -7.8701   15.7721 C   0  0  0  0  0  0  0  0  0  0  0  0
   16.8266   -8.5717   14.8306 C   0  0  0  0  0  0  0  0  0  0  0  0
   17.5763   -9.6923   15.2170 C   0  0  0  0  0  0  0  0  0  0  0  0
   17.5586  -10.0972   16.5554 C   0  0  0  0  0  0  0  0  0  0  0  0
   16.8007   -9.3953   17.4974 C   0  0  0  0  0  0  0  0  0  0  0  0
   13.3160   -6.3785   19.1121 C   0  0  0  0  0  0  0  0  0  0  0  0
   13.9550   -7.0750   17.9657 C   0  0  0  0  0  0  0  0  0  0  0  0
   13.3160   -7.2048   16.8885 O   0  0  0  0  0  0  0  0  0  0  0  0
   15.2865   -7.5851   18.1091 N   0  0  0  0  0  0  0  0  0  0  0  0
   15.7213   -7.4449   18.9812 H   0  0  0  0  0  0  0  0  0  0  0  0
 28 29  1  0  0  0
 29 30  2  0  0  0
 29 31  1  0  0  0
 31 22  1  0  0  0
 22 23  2  0  0  0
 23 24  1  0  0  0
 24 25  2  0  0  0
 25 18  1  0  0  0
 25 26  1  0  0  0
 18 19  1  0  0  0
 19 20  2  0  0  0
 19  1  1  0  0  0
  1  2  1  0  0  0
  2  3  2  0  0  0
  2  7  1  0  0  0
  3  4  1  0  0  0
  4  5  2  0  0  0
  5  6  1  0  0  0
  6  1  2  0  0  0
  7  8  1  0  0  0
  8  9  2  0  0  0
  9 10  1  0  0  0
 10 11  2  0  0  0
 11 12  1  0  0  0
 12 13  2  0  0  0
 13 14  1  0  0  0
 14 15  2  0  0  0
 15 16  1  0  0  0
 15 10  1  0  0  0
 16 17  2  0  0  0
 16  7  1  0  0  0
 26 27  2  0  0  0
 27 22  1  0  0  0
 31 32  1  0  0  0
 18 21  1  0  0  0
M  END
>  <minimizedAffinity>
14.23052

>  <minimizedRMSD>
1.97884

$$$$
1875258709 CSSS01454192624 MCULE-9430106091 MolPort-047-611-827 PubChem-166207265 Z1639155199


 34 39  0  0  0  0  0  0  0  0999 V2000
   15.6812   -9.6189   10.5367 C   0  0  0  0  0  0  0  0  0  0  0  0
   16.0413   -9.6266    9.2281 N   0  0  0  0  0  0  0  0  0  0  0  0
   17.1913   -8.9372    9.2246 C   0  0  0  0  0  0  0  0  0  0  0  0
   18.0164   -8.6869    8.1310 C   0  0  0  0  0  0  0  0  0  0  0  0
   19.2187   -7.9976    8.3680 C   0  0  0  0  0  0  0  0  0  0  0  0
   19.5665   -7.5938    9.6746 C   0  0  0  0  0  0  0  0  0  0  0  0
   18.7123   -7.8690   10.7571 C   0  0  0  0  0  0  0  0  0  0  0  0
   17.5148   -8.5380   10.4894 C   0  0  0  0  0  0  0  0  0  0  0  0
   16.5485   -8.9352   11.3471 N   0  0  0  0  0  0  0  0  0  0  0  0
   16.5589   -8.8655   12.8264 C   0  0  0  0  0  0  0  0  0  0  0  0
   17.9727   -9.2092   13.3356 C   0  0  0  0  0  0  0  0  0  0  0  0
   18.0217   -9.1586   14.8690 C   0  0  0  0  0  0  0  0  0  0  0  0
   17.6504   -7.7432   15.3377 C   0  0  0  0  0  0  0  0  0  0  0  0
   16.2323   -7.3881   14.8645 C   0  0  0  0  0  0  0  0  0  0  0  0
   15.2365   -8.4002   15.4486 C   0  0  0  0  0  0  0  0  0  0  0  0
   15.5929   -9.8154   14.9713 C   0  0  0  0  0  0  0  0  0  0  0  0
   17.0131  -10.1670   15.4409 C   0  0  0  0  0  0  0  0  0  0  0  0
   15.5400   -9.8552   13.4366 C   0  0  0  0  0  0  0  0  0  0  0  0
   16.1755   -7.4542   13.3299 C   0  0  0  0  0  0  0  0  0  0  0  0
   14.4885  -10.3895   11.0116 C   0  0  0  0  0  0  0  0  0  0  0  0
   14.8258  -11.7578   11.2078 O   0  0  0  0  0  0  0  0  0  0  0  0
   16.0500  -12.3022   10.8087 C   0  0  0  0  0  0  0  0  0  0  0  0
   16.1756  -12.8177    9.6636 O   0  0  0  0  0  0  0  0  0  0  0  0
   18.1334  -12.6362   13.9391 C   0  0  0  0  0  0  0  0  0  0  0  0
   19.3614  -12.1576   13.4672 C   0  0  0  0  0  0  0  0  0  0  0  0
   19.4898  -11.7503   12.1760 N   0  0  0  0  0  0  0  0  0  0  0  0
   18.4437  -11.7918   11.3084 C   0  0  0  0  0  0  0  0  0  0  0  0
   17.1951  -12.2630   11.7306 C   0  0  0  0  0  0  0  0  0  0  0  0
   17.0490  -12.6853   13.0558 C   0  0  0  0  0  0  0  0  0  0  0  0
   18.8539  -12.5748   16.3477 N   0  0  0  0  0  0  0  0  0  0  0  0
   17.9852  -13.0774   15.3364 C   0  0  0  0  0  0  0  0  0  0  0  0
   17.0885  -13.9045   15.6510 O   0  0  0  0  0  0  0  0  0  0  0  0
   18.7492  -12.8740   17.2798 H   0  0  0  0  0  0  0  0  0  0  0  0
   19.5588  -11.9284   16.1144 H   0  0  0  0  0  0  0  0  0  0  0  0
 30 31  1  0  0  0
 31 32  2  0  0  0
 31 24  1  0  0  0
 24 25  2  0  0  0
 25 26  1  0  0  0
 26 27  2  0  0  0
 27 28  1  0  0  0
 28 29  2  0  0  0
 28 22  1  0  0  0
 22 23  2  0  0  0
 22 21  1  0  0  0
 21 20  1  0  0  0
 20  1  1  0  0  0
  1  2  2  0  0  0
  2  3  1  0  0  0
  3  4  2  0  0  0
  4  5  1  0  0  0
  5  6  2  0  0  0
  6  7  1  0  0  0
  7  8  2  0  0  0
  8  9  1  0  0  0
  9 10  1  0  0  0
 10 11  1  0  0  0
 11 12  1  0  0  0
 12 13  1  0  0  0
 13 14  1  0  0  0
 14 15  1  0  0  0
 15 16  1  0  0  0
 16 17  1  0  0  0
 16 18  1  0  0  0
 14 19  1  0  0  0
 29 24  1  0  0  0
  9  1  1  0  0  0
 18 10  1  0  0  0
  8  3  1  0  0  0
 19 10  1  0  0  0
 17 12  1  0  0  0
 30 33  1  0  0  0
 30 34  1  0  0  0
M  END
>  <minimizedAffinity>
14.64859

>  <minimizedRMSD>
3.59497

$$$$
CSSS01607352943 MCULE-1543653813 MolPort-047-615-320 Z1383681498


 32 36  0  0  0  0  0  0  0  0999 V2000
   16.8014   -9.9375   11.4215 C   0  0  0  0  0  0  0  0  0  0  0  0
   17.3878   -9.3710   10.2801 C   0  0  0  0  0  0  0  0  0  0  0  0
   16.7215   -9.4786    9.0659 C   0  0  0  0  0  0  0  0  0  0  0  0
   17.6270   -8.8121    7.7973 S   0  0  0  0  0  0  0  0  0  0  0  0
   18.8744   -8.3649    8.8417 C   0  0  0  0  0  0  0  0  0  0  0  0
   18.6225   -8.7375   10.1164 C   0  0  0  0  0  0  0  0  0  0  0  0
   19.7961   -8.5419   10.9903 C   0  0  0  0  0  0  0  0  0  0  0  0
   20.8366   -7.9053   10.0422 C   0  0  0  0  0  0  0  0  0  0  0  0
   20.2346   -7.8532    8.6225 C   0  0  0  0  0  0  0  0  0  0  0  0
   15.5406  -10.1289    8.9512 N   0  0  0  0  0  0  0  0  0  0  0  0
   14.9790  -10.6778   10.0643 C   0  0  0  0  0  0  0  0  0  0  0  0
   15.6100  -10.5880   11.2731 N   0  0  0  0  0  0  0  0  0  0  0  0
   18.5619   -9.6905   15.2751 N   0  0  0  0  0  0  0  0  0  0  0  0
   17.6608   -8.6246   14.8154 C   0  0  0  0  0  0  0  0  0  0  0  0
   16.6700   -9.1850   13.8000 C   0  0  0  0  0  0  0  0  0  0  0  0
   17.4013   -9.8416   12.7197 N   0  0  0  0  0  0  0  0  0  0  0  0
   18.4429  -10.7951   13.0911 C   0  0  0  0  0  0  0  0  0  0  0  0
   19.3564  -10.1706   14.1424 C   0  0  0  0  0  0  0  0  0  0  0  0
   20.6213   -8.3365   15.7706 C   0  0  0  0  0  0  0  0  0  0  0  0
   19.4832   -9.2035   16.3157 C   0  0  0  0  0  0  0  0  0  0  0  0
   18.7628   -8.5121   17.4379 C   0  0  0  0  0  0  0  0  0  0  0  0
   19.4614   -7.5767   18.2526 N   0  0  0  0  0  0  0  0  0  0  0  0
   17.5516   -8.7603   17.6797 O   0  0  0  0  0  0  0  0  0  0  0  0
   20.4081   -7.3764   18.0712 H   0  0  0  0  0  0  0  0  0  0  0  0
   18.9978   -7.1300   18.9975 H   0  0  0  0  0  0  0  0  0  0  0  0
   13.7002  -11.4331    9.9510 C   0  0  0  0  0  0  0  0  0  0  0  0
   12.5807  -10.5558   10.2505 N   0  0  0  0  0  0  0  0  0  0  0  0
   11.8968  -10.2766    8.9885 C   0  0  0  0  0  0  0  0  0  0  0  0
   10.6389   -9.4325    9.2270 C   0  0  0  0  0  0  0  0  0  0  0  0
   10.6954   -8.6693   10.5538 C   0  0  0  0  0  0  0  0  0  0  0  0
   12.1097   -8.1715   10.8420 C   0  0  0  0  0  0  0  0  0  0  0  0
   13.1476   -9.3036   10.7605 C   0  0  0  0  0  0  0  0  0  0  0  0
 19 20  1  0  0  0
 20 13  1  0  0  0
 13 14  1  0  0  0
 14 15  1  0  0  0
 15 16  1  0  0  0
 16 17  1  0  0  0
 17 18  1  0  0  0
 16  1  1  0  0  0
  1  2  1  0  0  0
  2  3  2  0  0  0
  3  4  1  0  0  0
  4  5  1  0  0  0
  5  6  2  0  0  0
  6  7  1  0  0  0
  7  8  1  0  0  0
  8  9  1  0  0  0
  3 10  1  0  0  0
 10 11  2  0  0  0
 11 26  1  0  0  0
 26 27  1  0  0  0
 27 28  1  0  0  0
 28 29  1  0  0  0
 29 30  1  0  0  0
 30 31  1  0  0  0
 31 32  1  0  0  0
 11 12  1  0  0  0
 20 21  1  0  0  0
 21 22  1  0  0  0
 21 23  2  0  0  0
 18 13  1  0  0  0
 12  1  2  0  0  0
  6  2  1  0  0  0
 32 27  1  0  0  0
  9  5  1  0  0  0
 22 24  1  0  0  0
 22 25  1  0  0  0
M  END
>  <minimizedAffinity>
15.30412

>  <minimizedRMSD>
3.44933

$$$$
CSSS09767868701


 30 32  0  0  0  0  0  0  0  0999 V2000
   17.5737   -9.5085   10.3425 C   0  0  0  0  0  0  0  0  0  0  0  0
   17.7238  -10.7728    9.7489 C   0  0  0  0  0  0  0  0  0  0  0  0
   18.2995  -10.8761    8.4621 C   0  0  0  0  0  0  0  0  0  0  0  0
   18.7038   -9.7442    7.8102 N   0  0  0  0  0  0  0  0  0  0  0  0
   18.5426   -8.5432    8.4153 C   0  0  0  0  0  0  0  0  0  0  0  0
   18.8742   -7.3005    7.9462 C   0  0  0  0  0  0  0  0  0  0  0  0
   19.6117   -6.8905    6.4111 Cl  0  0  0  0  0  0  0  0  0  0  0  0
   18.4946   -6.4287    8.9624 C   0  0  0  0  0  0  0  0  0  0  0  0
   17.9623   -7.1529    9.9806 N   0  0  0  0  0  0  0  0  0  0  0  0
   18.0006   -8.4290    9.6301 N   0  0  0  0  0  0  0  0  0  0  0  0
   18.4673  -12.1961    7.8174 C   0  0  0  0  0  0  0  0  0  0  0  0
   19.7301  -12.5998    7.3567 C   0  0  0  0  0  0  0  0  0  0  0  0
   19.8979  -13.8459    6.7459 C   0  0  0  0  0  0  0  0  0  0  0  0
   18.8039  -14.7008    6.5900 C   0  0  0  0  0  0  0  0  0  0  0  0
   17.5420  -14.3098    7.0445 C   0  0  0  0  0  0  0  0  0  0  0  0
   17.3743  -13.0638    7.6552 C   0  0  0  0  0  0  0  0  0  0  0  0
   17.4323  -10.2278   12.7478 N   0  0  0  0  0  0  0  0  0  0  0  0
   16.9730   -9.3865   11.6873 C   0  0  0  0  0  0  0  0  0  0  0  0
   16.0588   -8.5462   11.9052 O   0  0  0  0  0  0  0  0  0  0  0  0
   18.1479  -10.8784   12.5638 H   0  0  0  0  0  0  0  0  0  0  0  0
   16.8754  -10.1535   14.0931 C   0  0  0  0  0  0  0  0  0  0  0  0
   17.9668  -10.2664   15.1610 C   0  0  0  0  0  0  0  0  0  0  0  0
   19.3236  -10.0625   14.4876 C   0  0  0  0  0  0  0  0  0  0  0  0
   17.7190   -9.2061   16.2097 C   0  0  0  0  0  0  0  0  0  0  0  0
   18.8019   -8.5042   16.8169 N   0  0  0  0  0  0  0  0  0  0  0  0
   16.5434   -8.9667   16.5967 O   0  0  0  0  0  0  0  0  0  0  0  0
   19.7263   -8.6790   16.5266 H   0  0  0  0  0  0  0  0  0  0  0  0
   18.6251   -7.8450   17.5264 H   0  0  0  0  0  0  0  0  0  0  0  0
   17.9939  -11.6249   17.3218 C   0  0  0  0  0  0  0  0  0  0  0  0
   17.9003  -11.6600   15.8017 C   0  0  0  0  0  0  0  0  0  0  0  0
 29 30  1  0  0  0
 30 22  1  0  0  0
 22 23  1  0  0  0
 22 21  1  0  0  0
 21 17  1  0  0  0
 17 18  1  0  0  0
 18 19  2  0  0  0
 18  1  1  0  0  0
  1  2  2  0  0  0
  2  3  1  0  0  0
  3  4  2  0  0  0
  4  5  1  0  0  0
  5  6  2  0  0  0
  6  7  1  0  0  0
  6  8  1  0  0  0
  8  9  2  0  0  0
  9 10  1  0  0  0
  3 11  1  0  0  0
 11 12  2  0  0  0
 12 13  1  0  0  0
 13 14  2  0  0  0
 14 15  1  0  0  0
 15 16  2  0  0  0
 22 24  1  0  0  0
 24 25  1  0  0  0
 24 26  2  0  0  0
 10  1  1  0  0  0
 16 11  1  0  0  0
 10  5  1  0  0  0
 17 20  1  0  0  0
 25 27  1  0  0  0
 25 28  1  0  0  0
M  END
>  <minimizedAffinity>
15.85183

>  <minimizedRMSD>
2.91252

$$$$
CSC028202052 13003073 CSSS00028202052 MCULE-3707400201 MolPort-009-427-026 PubChem-25662563 Z209987618 ZINC000013003073 ZINC13003073


 29 31  0  0  0  0  0  0  0  0999 V2000
   16.2971  -10.7077    9.5251 C   0  0  0  0  0  0  0  0  0  0  0  0
   16.5015  -10.2952    8.2470 N   0  0  0  0  0  0  0  0  0  0  0  0
   17.4164   -9.3410    7.9525 C   0  0  0  0  0  0  0  0  0  0  0  0
   17.6061   -8.9368    6.6279 C   0  0  0  0  0  0  0  0  0  0  0  0
   18.5510   -7.9515    6.3260 C   0  0  0  0  0  0  0  0  0  0  0  0
   19.3077   -7.3685    7.3472 C   0  0  0  0  0  0  0  0  0  0  0  0
   19.1216   -7.7693    8.6738 C   0  0  0  0  0  0  0  0  0  0  0  0
   18.1753   -8.7574    8.9833 C   0  0  0  0  0  0  0  0  0  0  0  0
   17.9557   -9.1888   10.2983 C   0  0  0  0  0  0  0  0  0  0  0  0
   18.6216   -8.6831   11.2456 O   0  0  0  0  0  0  0  0  0  0  0  0
   17.0211  -10.1577   10.5520 N   0  0  0  0  0  0  0  0  0  0  0  0
   15.0603  -11.9776    9.8211 S   0  0  0  0  0  0  0  0  0  0  0  0
   15.9341  -13.1780    8.7758 C   0  0  0  0  0  0  0  0  0  0  0  0
   12.6769  -16.7332    7.4309 C   0  0  0  0  0  0  0  0  0  0  0  0
   13.7397  -15.9481    8.1116 C   0  0  0  0  0  0  0  0  0  0  0  0
   14.4187  -16.3873    9.1867 N   0  0  0  0  0  0  0  0  0  0  0  0
   15.2519  -15.4427    9.5009 O   0  0  0  0  0  0  0  0  0  0  0  0
   15.1371  -14.4293    8.6776 C   0  0  0  0  0  0  0  0  0  0  0  0
   14.1583  -14.6849    7.7366 C   0  0  0  0  0  0  0  0  0  0  0  0
   16.7907  -10.5930   11.9290 C   0  0  0  0  0  0  0  0  0  0  0  0
   16.2504   -9.4421   12.7573 C   0  0  0  0  0  0  0  0  0  0  0  0
   16.8977   -9.4603   14.1284 C   0  0  0  0  0  0  0  0  0  0  0  0
   16.1928   -8.4895   15.0580 C   0  0  0  0  0  0  0  0  0  0  0  0
   16.2617   -8.9857   16.4925 C   0  0  0  0  0  0  0  0  0  0  0  0
   15.4848   -8.0842   17.3870 C   0  0  0  0  0  0  0  0  0  0  0  0
   15.8308   -7.9647   18.7627 N   0  0  0  0  0  0  0  0  0  0  0  0
   14.5078   -7.4379   16.9284 O   0  0  0  0  0  0  0  0  0  0  0  0
   16.5950   -8.4695   19.1237 H   0  0  0  0  0  0  0  0  0  0  0  0
   15.3058   -7.3772   19.3531 H   0  0  0  0  0  0  0  0  0  0  0  0
 14 15  1  0  0  0
 15 16  2  0  0  0
 16 17  1  0  0  0
 17 18  1  0  0  0
 18 13  1  0  0  0
 18 19  2  0  0  0
 13 12  1  0  0  0
 12  1  1  0  0  0
  1  2  2  0  0  0
  2  3  1  0  0  0
  3  4  2  0  0  0
  4  5  1  0  0  0
  5  6  2  0  0  0
  6  7  1  0  0  0
  7  8  2  0  0  0
  8  9  1  0  0  0
  8  3  1  0  0  0
  9 10  2  0  0  0
  9 11  1  0  0  0
 11 20  1  0  0  0
 11  1  1  0  0  0
 20 21  1  0  0  0
 21 22  1  0  0  0
 22 23  1  0  0  0
 23 24  1  0  0  0
 24 25  1  0  0  0
 25 26  1  0  0  0
 25 27  2  0  0  0
 19 15  1  0  0  0
 26 28  1  0  0  0
 26 29  1  0  0  0
M  END
>  <minimizedAffinity>
16.50049

>  <minimizedRMSD>
1.75602

$$$$
CSSS03511236457 Z4924751870


 34 38  0  0  0  0  0  0  0  0999 V2000
   20.4028   -8.5112    8.9451 C   0  0  0  0  0  0  0  0  0  0  0  0
   18.9940   -8.8662    9.2729 C   0  0  0  0  0  0  0  0  0  0  0  0
   17.7740   -9.0604    8.1209 S   0  0  0  0  0  0  0  0  0  0  0  0
   16.5837   -9.3898    9.2544 C   0  0  0  0  0  0  0  0  0  0  0  0
   15.2739   -9.6153    9.0012 N   0  0  0  0  0  0  0  0  0  0  0  0
   14.4232   -9.8343   10.0446 C   0  0  0  0  0  0  0  0  0  0  0  0
   14.9040   -9.8311   11.3250 N   0  0  0  0  0  0  0  0  0  0  0  0
   16.2214   -9.6118   11.6055 C   0  0  0  0  0  0  0  0  0  0  0  0
   17.1010   -9.3666   10.5373 C   0  0  0  0  0  0  0  0  0  0  0  0
   18.4752   -9.0544   10.5571 C   0  0  0  0  0  0  0  0  0  0  0  0
   19.2958   -8.8691   11.7894 C   0  0  0  0  0  0  0  0  0  0  0  0
   16.6668   -9.6692   12.9626 N   0  0  0  0  0  0  0  0  0  0  0  0
   17.2839  -10.9116   13.4311 C   0  0  0  0  0  0  0  0  0  0  0  0
   18.2160  -10.6266   14.5996 C   0  0  0  0  0  0  0  0  0  0  0  0
   17.4712   -9.9017   15.6709 C   0  0  0  0  0  0  0  0  0  0  0  0
   17.7607  -10.1445   16.9757 N   0  0  0  0  0  0  0  0  0  0  0  0
   17.1175   -9.5067   17.9908 C   0  0  0  0  0  0  0  0  0  0  0  0
   17.4352   -9.7792   19.1786 O   0  0  0  0  0  0  0  0  0  0  0  0
   16.1123   -8.5554   17.7030 C   0  0  0  0  0  0  0  0  0  0  0  0
   15.8059   -8.3049   16.3586 C   0  0  0  0  0  0  0  0  0  0  0  0
   16.4741   -8.9753   15.3361 C   0  0  0  0  0  0  0  0  0  0  0  0
   16.1158   -8.6862   13.9045 C   0  0  0  0  0  0  0  0  0  0  0  0
   18.4587  -10.8036   17.1939 H   0  0  0  0  0  0  0  0  0  0  0  0
   15.3697   -7.8158   18.7531 C   0  0  0  0  0  0  0  0  0  0  0  0
   14.1355   -7.6003   18.6169 O   0  0  0  0  0  0  0  0  0  0  0  0
   16.0231   -7.3367   19.9250 N   0  0  0  0  0  0  0  0  0  0  0  0
   16.9867   -7.4945   20.0506 H   0  0  0  0  0  0  0  0  0  0  0  0
   15.5110   -6.8478   20.6091 H   0  0  0  0  0  0  0  0  0  0  0  0
   12.9907  -10.0776    9.7933 C   0  0  0  0  0  0  0  0  0  0  0  0
   12.5807  -10.9917    8.8146 C   0  0  0  0  0  0  0  0  0  0  0  0
   11.2220  -11.2133    8.5859 C   0  0  0  0  0  0  0  0  0  0  0  0
   10.2811  -10.5138    9.3434 C   0  0  0  0  0  0  0  0  0  0  0  0
   10.6903   -9.6286   10.2911 N   0  0  0  0  0  0  0  0  0  0  0  0
   12.0099   -9.3988   10.5288 C   0  0  0  0  0  0  0  0  0  0  0  0
  1  2  1  0  0  0
  2  3  1  0  0  0
  3  4  1  0  0  0
  4  5  2  0  0  0
  5  6  1  0  0  0
  6  7  2  0  0  0
  7  8  1  0  0  0
  8 12  1  0  0  0
 12 13  1  0  0  0
 13 14  1  0  0  0
 14 15  1  0  0  0
 15 16  1  0  0  0
 16 17  1  0  0  0
 17 18  2  0  0  0
 17 19  1  0  0  0
 19 20  2  0  0  0
 20 21  1  0  0  0
 21 22  1  0  0  0
 19 24  1  0  0  0
 24 25  2  0  0  0
 24 26  1  0  0  0
  8  9  2  0  0  0
  9 10  1  0  0  0
 10 11  1  0  0  0
  6 29  1  0  0  0
 29 30  2  0  0  0
 30 31  1  0  0  0
 31 32  2  0  0  0
 32 33  1  0  0  0
 33 34  2  0  0  0
 10  2  2  0  0  0
 34 29  1  0  0  0
  9  4  1  0  0  0
 22 12  1  0  0  0
 21 15  2  0  0  0
 16 23  1  0  0  0
 26 27  1  0  0  0
 26 28  1  0  0  0
M  END
>  <minimizedAffinity>
17.23326

>  <minimizedRMSD>
1.82765

$$$$
CSC025842805 8803447 CSSS00025842805 MCULE-7122776838 MolPort-009-234-421 PubChem-42967413 Z15434773 ZINC000008803447


 37 41  0  0  0  0  0  0  0  0999 V2000
   16.7575   -9.3300   13.9613 C   0  0  0  0  0  0  0  0  0  0  0  0
   17.4513   -9.2081   12.8574 O   0  0  0  0  0  0  0  0  0  0  0  0
   16.6333   -9.5802   11.9008 C   0  0  0  0  0  0  0  0  0  0  0  0
   15.4326   -9.9325   12.4030 N   0  0  0  0  0  0  0  0  0  0  0  0
   15.5126   -9.7751   13.7149 N   0  0  0  0  0  0  0  0  0  0  0  0
   16.9614   -9.6149   10.4597 C   0  0  0  0  0  0  0  0  0  0  0  0
   17.6250   -8.5645    9.7937 C   0  0  0  0  0  0  0  0  0  0  0  0
   17.8977   -8.7002    8.4146 C   0  0  0  0  0  0  0  0  0  0  0  0
   18.5549   -7.6665    7.7288 C   0  0  0  0  0  0  0  0  0  0  0  0
   18.9389   -6.5049    8.4014 C   0  0  0  0  0  0  0  0  0  0  0  0
   18.6711   -6.3667    9.7638 C   0  0  0  0  0  0  0  0  0  0  0  0
   18.0183   -7.3900   10.4552 C   0  0  0  0  0  0  0  0  0  0  0  0
   17.5151   -9.8738    7.7530 C   0  0  0  0  0  0  0  0  0  0  0  0
   17.7611  -10.0200    6.5224 O   0  0  0  0  0  0  0  0  0  0  0  0
   16.8755  -10.8588    8.4493 N   0  0  0  0  0  0  0  0  0  0  0  0
   16.6134  -10.7221    9.7510 N   0  0  0  0  0  0  0  0  0  0  0  0
   16.4921  -12.1025    7.7906 C   0  0  0  0  0  0  0  0  0  0  0  0
   17.7059  -12.8899    7.4277 C   0  0  0  0  0  0  0  0  0  0  0  0
   18.9633  -12.4788    7.8827 C   0  0  0  0  0  0  0  0  0  0  0  0
   20.1084  -13.1916    7.5145 C   0  0  0  0  0  0  0  0  0  0  0  0
   19.9985  -14.3116    6.6856 C   0  0  0  0  0  0  0  0  0  0  0  0
   18.7427  -14.7201    6.2253 C   0  0  0  0  0  0  0  0  0  0  0  0
   17.5972  -14.0089    6.5940 C   0  0  0  0  0  0  0  0  0  0  0  0
   17.3858   -8.9587   15.5913 S   0  0  0  0  0  0  0  0  0  0  0  0
   15.8428   -8.1321   16.0770 C   0  0  0  0  0  0  0  0  0  0  0  0
   15.6260   -8.2947   17.5455 C   0  0  0  0  0  0  0  0  0  0  0  0
   16.4194   -9.0344   18.1864 O   0  0  0  0  0  0  0  0  0  0  0  0
   11.2164   -5.7157   20.0435 O   0  0  0  0  0  0  0  0  0  0  0  0
   12.2983   -6.3454   19.4441 C   0  0  0  0  0  0  0  0  0  0  0  0
   13.4465   -6.6204   20.1882 C   0  0  0  0  0  0  0  0  0  0  0  0
   14.5416   -7.2543   19.5923 C   0  0  0  0  0  0  0  0  0  0  0  0
   15.6671   -7.5076   20.3693 O   0  0  0  0  0  0  0  0  0  0  0  0
   14.4908   -7.6236   18.2279 C   0  0  0  0  0  0  0  0  0  0  0  0
   13.3260   -7.3399   17.4958 C   0  0  0  0  0  0  0  0  0  0  0  0
   12.2375   -6.7062   18.0980 C   0  0  0  0  0  0  0  0  0  0  0  0
   11.2574   -5.4733   20.9477 H   0  0  0  0  0  0  0  0  0  0  0  0
   15.6802   -7.2548   21.2714 H   0  0  0  0  0  0  0  0  0  0  0  0
 28 29  1  0  0  0
 29 30  2  0  0  0
 30 31  1  0  0  0
 31 32  1  0  0  0
 31 33  2  0  0  0
 33 26  1  0  0  0
 26 25  1  0  0  0
 25 24  1  0  0  0
 24  1  1  0  0  0
  1  2  1  0  0  0
  2  3  1  0  0  0
  3  6  1  0  0  0
  6  7  1  0  0  0
  7  8  1  0  0  0
  8  9  2  0  0  0
  9 10  1  0  0  0
 10 11  2  0  0  0
 11 12  1  0  0  0
  8 13  1  0  0  0
 13 14  2  0  0  0
 13 15  1  0  0  0
 15 17  1  0  0  0
 17 18  1  0  0  0
 18 19  2  0  0  0
 19 20  1  0  0  0
 20 21  2  0  0  0
 21 22  1  0  0  0
 22 23  2  0  0  0
 15 16  1  0  0  0
  3  4  2  0  0  0
  4  5  1  0  0  0
 26 27  2  0  0  0
 33 34  1  0  0  0
 34 35  2  0  0  0
 35 29  1  0  0  0
  5  1  2  0  0  0
 16  6  2  0  0  0
 12  7  2  0  0  0
 23 18  1  0  0  0
 28 36  1  0  0  0
 32 37  1  0  0  0
M  END
>  <minimizedAffinity>
17.39368

>  <minimizedRMSD>
2.48099

$$$$
CSC025842957 CSSS00025842957 MCULE-7580463010 MolPort-044-208-525 PubChem-4655570 Z15434687


 35 38  0  0  0  0  0  0  0  0999 V2000
   16.9511   -9.5772   10.6324 C   0  0  0  0  0  0  0  0  0  0  0  0
   17.5862   -8.5314    9.9335 C   0  0  0  0  0  0  0  0  0  0  0  0
   17.8533   -8.6983    8.5564 C   0  0  0  0  0  0  0  0  0  0  0  0
   18.4859   -7.6709    7.8392 C   0  0  0  0  0  0  0  0  0  0  0  0
   18.8525   -6.4852    8.4785 C   0  0  0  0  0  0  0  0  0  0  0  0
   18.5905   -6.3161    9.8387 C   0  0  0  0  0  0  0  0  0  0  0  0
   17.9617   -7.3325   10.5611 C   0  0  0  0  0  0  0  0  0  0  0  0
   17.4812   -9.8926    7.9268 C   0  0  0  0  0  0  0  0  0  0  0  0
   17.7121  -10.0623    6.6963 O   0  0  0  0  0  0  0  0  0  0  0  0
   16.8667  -10.8714    8.6541 N   0  0  0  0  0  0  0  0  0  0  0  0
   16.6188  -10.7088    9.9555 N   0  0  0  0  0  0  0  0  0  0  0  0
   16.7457   -9.1782   14.1230 C   0  0  0  0  0  0  0  0  0  0  0  0
   17.4270   -9.0562   13.0111 O   0  0  0  0  0  0  0  0  0  0  0  0
   16.6281   -9.5096   12.0739 C   0  0  0  0  0  0  0  0  0  0  0  0
   15.4529   -9.9148   12.5958 N   0  0  0  0  0  0  0  0  0  0  0  0
   15.5282   -9.7042   13.9006 N   0  0  0  0  0  0  0  0  0  0  0  0
   17.3532   -8.7056   15.7343 S   0  0  0  0  0  0  0  0  0  0  0  0
   15.7157   -8.1161   16.2534 C   0  0  0  0  0  0  0  0  0  0  0  0
   15.5429   -8.3253   17.7220 C   0  0  0  0  0  0  0  0  0  0  0  0
   16.2780   -9.1782   18.2868 O   0  0  0  0  0  0  0  0  0  0  0  0
   13.6601   -6.3294   20.4654 C   0  0  0  0  0  0  0  0  0  0  0  0
   14.7202   -7.0884   19.7323 C   0  0  0  0  0  0  0  0  0  0  0  0
   15.9586   -7.2906   20.4087 N   0  0  0  0  0  0  0  0  0  0  0  0
   14.5114   -7.5634   18.4829 C   0  0  0  0  0  0  0  0  0  0  0  0
   16.0867   -6.9353   21.3179 H   0  0  0  0  0  0  0  0  0  0  0  0
   16.6858   -7.7857   19.9667 H   0  0  0  0  0  0  0  0  0  0  0  0
   13.2352   -7.3311   17.8364 C   0  0  0  0  0  0  0  0  0  0  0  0
   12.2166   -7.1468   17.3190 N   0  0  0  0  0  0  0  0  0  0  0  0
   16.4856  -12.1332    8.0292 C   0  0  0  0  0  0  0  0  0  0  0  0
   17.6982  -12.8718    7.5735 C   0  0  0  0  0  0  0  0  0  0  0  0
   17.5686  -13.9714    6.7178 C   0  0  0  0  0  0  0  0  0  0  0  0
   18.7073  -14.6483    6.2703 C   0  0  0  0  0  0  0  0  0  0  0  0
   19.9769  -14.2231    6.6735 C   0  0  0  0  0  0  0  0  0  0  0  0
   20.1081  -13.1199    7.5226 C   0  0  0  0  0  0  0  0  0  0  0  0
   18.9697  -12.4427    7.9703 C   0  0  0  0  0  0  0  0  0  0  0  0
 21 22  1  0  0  0
 22 23  1  0  0  0
 22 24  2  0  0  0
 24 19  1  0  0  0
 19 18  1  0  0  0
 18 17  1  0  0  0
 17 12  1  0  0  0
 12 13  1  0  0  0
 13 14  1  0  0  0
 14  1  1  0  0  0
  1  2  1  0  0  0
  2  3  1  0  0  0
  3  4  2  0  0  0
  4  5  1  0  0  0
  5  6  2  0  0  0
  6  7  1  0  0  0
  3  8  1  0  0  0
  8  9  2  0  0  0
  8 10  1  0  0  0
 10 29  1  0  0  0
 29 30  1  0  0  0
 30 31  2  0  0  0
 31 32  1  0  0  0
 32 33  2  0  0  0
 33 34  1  0  0  0
 34 35  2  0  0  0
 10 11  1  0  0  0
 14 15  2  0  0  0
 15 16  1  0  0  0
 19 20  2  0  0  0
 24 27  1  0  0  0
 27 28  3  0  0  0
 16 12  2  0  0  0
 11  1  2  0  0  0
  7  2  2  0  0  0
 35 30  1  0  0  0
 23 25  1  0  0  0
 23 26  1  0  0  0
M  END
>  <minimizedAffinity>
17.89097

>  <minimizedRMSD>
2.26503

$$$$
143911816 CSSS00102419692 LN03247760 MCULE-1749444930 MCULE-5585969745 MCULE-9368398440 MolPort-039-193-855 PubChem-161596448 PubChem-163546764 PubChem-163631884 PubChem-163663168 PubChem-163958861 PubChem-164025725 PubChem-54761306 Z3952965739 ZINC000143911816


 31 35  0  0  0  0  0  0  0  0999 V2000
   20.0705   -9.0689   14.1880 C   0  0  0  0  0  0  0  0  0  0  0  0
   19.5822   -9.0298   12.9183 N   0  0  0  0  0  0  0  0  0  0  0  0
   18.3879   -9.5958   12.5940 C   0  0  0  0  0  0  0  0  0  0  0  0
   17.6598  -10.2175   13.5614 N   0  0  0  0  0  0  0  0  0  0  0  0
   18.1073  -10.2934   14.8422 C   0  0  0  0  0  0  0  0  0  0  0  0
   19.3249   -9.7056   15.1852 C   0  0  0  0  0  0  0  0  0  0  0  0
   17.8747   -9.5365   11.2067 C   0  0  0  0  0  0  0  0  0  0  0  0
   18.5265   -8.8451   10.1735 C   0  0  0  0  0  0  0  0  0  0  0  0
   19.6929   -8.1104   10.1540 C   0  0  0  0  0  0  0  0  0  0  0  0
   19.8077   -7.6760    8.8317 C   0  0  0  0  0  0  0  0  0  0  0  0
   18.7766   -8.1116    8.0671 N   0  0  0  0  0  0  0  0  0  0  0  0
   18.0136   -8.8198    8.9096 C   0  0  0  0  0  0  0  0  0  0  0  0
   16.8598   -9.4526    8.5826 N   0  0  0  0  0  0  0  0  0  0  0  0
   16.1827  -10.1412    9.5474 C   0  0  0  0  0  0  0  0  0  0  0  0
   16.6751  -10.1949   10.8675 C   0  0  0  0  0  0  0  0  0  0  0  0
   18.6233   -7.9449    7.1090 H   0  0  0  0  0  0  0  0  0  0  0  0
   21.8635   -7.1606   16.5065 C   0  0  0  0  0  0  0  0  0  0  0  0
   21.9043   -8.5252   15.8401 C   0  0  0  0  0  0  0  0  0  0  0  0
   23.3493   -9.0280   15.7383 C   0  0  0  0  0  0  0  0  0  0  0  0
   24.0839   -8.2471   14.8229 O   0  0  0  0  0  0  0  0  0  0  0  0
   23.5628   -8.5134   13.5426 C   0  0  0  0  0  0  0  0  0  0  0  0
   22.1647   -7.9101   13.4211 C   0  0  0  0  0  0  0  0  0  0  0  0
   21.3309   -8.4496   14.4943 N   0  0  0  0  0  0  0  0  0  0  0  0
   17.2656  -10.9458   15.8898 C   0  0  0  0  0  0  0  0  0  0  0  0
   17.9921  -11.4535   17.1159 C   0  0  0  0  0  0  0  0  0  0  0  0
   17.4795  -12.4328   16.0661 C   0  0  0  0  0  0  0  0  0  0  0  0
   15.5933  -10.3752   16.1496 S   0  0  0  0  0  0  0  0  0  0  0  0
   15.6300   -8.7974   16.9672 C   0  0  0  0  0  0  0  0  0  0  0  0
   14.7982  -11.3845   17.0262 N   0  0  0  0  0  0  0  0  0  0  0  0
   14.9081  -10.2260   14.8208 O   0  0  0  0  0  0  0  0  0  0  0  0
   15.1106  -11.6003   17.9345 H   0  0  0  0  0  0  0  0  0  0  0  0
 18 17  1  0  0  0
 18 19  1  0  0  0
 19 20  1  0  0  0
 20 21  1  0  0  0
 21 22  1  0  0  0
 22 23  1  0  0  0
 23  1  1  0  0  0
  1  2  2  0  0  0
  2  3  1  0  0  0
  3  4  2  0  0  0
  4  5  1  0  0  0
  5  6  2  0  0  0
  5 24  1  0  0  0
 24 25  1  0  0  0
 25 26  1  0  0  0
 27 24  1  0  0  0
 27 28  1  0  0  0
 27 29  2  0  0  0
 27 30  2  0  0  0
  3  7  1  0  0  0
  7  8  2  0  0  0
  8  9  1  0  0  0
  9 10  2  0  0  0
 10 11  1  0  0  0
 11 12  1  0  0  0
 12 13  2  0  0  0
 13 14  1  0  0  0
 14 15  2  0  0  0
 23 18  1  0  0  0
  6  1  1  0  0  0
 26 24  1  0  0  0
 15  7  1  0  0  0
 12  8  1  0  0  0
 29 31  1  0  0  0
 11 16  1  0  0  0
M  END
>  <minimizedAffinity>
18.74505

>  <minimizedRMSD>
1.66280

$$$$
14541106 CSSS00159485933 MCULE-1504568745 MolPort-004-984-204 PubChem-26145188 ZINC000014541106


 37 41  0  0  0  0  0  0  0  0999 V2000
   17.0676   -9.4293   15.2604 C   0  0  0  0  0  0  0  0  0  0  0  0
   16.9880   -8.3964   14.1839 C   0  0  0  0  0  0  0  0  0  0  0  0
   17.4454   -8.9802   12.9172 N   0  0  0  0  0  0  0  0  0  0  0  0
   18.6306   -9.8515   12.9263 C   0  0  0  0  0  0  0  0  0  0  0  0
   18.4456  -11.0446   13.8788 C   0  0  0  0  0  0  0  0  0  0  0  0
   17.7436  -10.6129   15.1304 C   0  0  0  0  0  0  0  0  0  0  0  0
   17.6042  -11.3155   16.2680 N   0  0  0  0  0  0  0  0  0  0  0  0
   16.8804  -10.6207   17.1347 N   0  0  0  0  0  0  0  0  0  0  0  0
   16.5404   -9.4537   16.5410 C   0  0  0  0  0  0  0  0  0  0  0  0
   18.1490  -12.6340   16.5418 C   0  0  0  0  0  0  0  0  0  0  0  0
   16.9228   -8.4705   11.6772 C   0  0  0  0  0  0  0  0  0  0  0  0
   16.2638   -7.3945   11.6816 O   0  0  0  0  0  0  0  0  0  0  0  0
   17.1105   -9.2026   10.3973 C   0  0  0  0  0  0  0  0  0  0  0  0
   17.7225   -8.6189    9.2652 C   0  0  0  0  0  0  0  0  0  0  0  0
   18.2456   -7.3160    9.2879 C   0  0  0  0  0  0  0  0  0  0  0  0
   18.8540   -6.7754    8.1522 C   0  0  0  0  0  0  0  0  0  0  0  0
   18.9511   -7.5314    6.9815 C   0  0  0  0  0  0  0  0  0  0  0  0
   18.4428   -8.8319    6.9442 C   0  0  0  0  0  0  0  0  0  0  0  0
   17.8325   -9.3801    8.0761 C   0  0  0  0  0  0  0  0  0  0  0  0
   17.3532  -10.6501    8.0310 N   0  0  0  0  0  0  0  0  0  0  0  0
   16.7584  -11.2372    9.1059 C   0  0  0  0  0  0  0  0  0  0  0  0
   16.6302  -10.5141   10.2983 C   0  0  0  0  0  0  0  0  0  0  0  0
   16.2592  -12.6258    9.0093 C   0  0  0  0  0  0  0  0  0  0  0  0
   16.2861  -13.3013    7.7817 C   0  0  0  0  0  0  0  0  0  0  0  0
   15.8163  -14.6144    7.7037 C   0  0  0  0  0  0  0  0  0  0  0  0
   15.3355  -15.2344    8.8144 N   0  0  0  0  0  0  0  0  0  0  0  0
   15.2969  -14.6047   10.0188 C   0  0  0  0  0  0  0  0  0  0  0  0
   15.7572  -13.2914   10.1376 C   0  0  0  0  0  0  0  0  0  0  0  0
   15.7255   -8.4163   17.1880 C   0  0  0  0  0  0  0  0  0  0  0  0
   15.7671   -8.2744   18.6085 N   0  0  0  0  0  0  0  0  0  0  0  0
   14.9954   -7.6571   16.4953 O   0  0  0  0  0  0  0  0  0  0  0  0
   16.3509   -8.8720   19.1293 H   0  0  0  0  0  0  0  0  0  0  0  0
   14.9763   -7.2772   19.3112 C   0  0  0  0  0  0  0  0  0  0  0  0
   13.6192   -7.8519   19.6804 C   0  0  0  0  0  0  0  0  0  0  0  0
   12.4968   -6.8726   19.3658 C   0  0  0  0  0  0  0  0  0  0  0  0
   12.1954   -6.8947   18.0027 O   0  0  0  0  0  0  0  0  0  0  0  0
   10.9379   -7.4951   17.9287 C   0  0  0  0  0  0  0  0  0  0  0  0
  1  2  1  0  0  0
  2  3  1  0  0  0
  3  4  1  0  0  0
  4  5  1  0  0  0
  5  6  1  0  0  0
  6  7  1  0  0  0
  7  8  1  0  0  0
  8  9  2  0  0  0
  9 29  1  0  0  0
 29 30  1  0  0  0
 30 33  1  0  0  0
 33 34  1  0  0  0
 34 35  1  0  0  0
 35 36  1  0  0  0
 36 37  1  0  0  0
 29 31  2  0  0  0
  7 10  1  0  0  0
  3 11  1  0  0  0
 11 12  2  0  0  0
 11 13  1  0  0  0
 13 14  1  0  0  0
 14 15  2  0  0  0
 15 16  1  0  0  0
 16 17  2  0  0  0
 17 18  1  0  0  0
 18 19  2  0  0  0
 19 20  1  0  0  0
 20 21  2  0  0  0
 21 23  1  0  0  0
 23 24  2  0  0  0
 24 25  1  0  0  0
 25 26  2  0  0  0
 26 27  1  0  0  0
 27 28  2  0  0  0
 21 22  1  0  0  0
  6  1  2  0  0  0
 22 13  2  0  0  0
  9  1  1  0  0  0
 19 14  1  0  0  0
 28 23  1  0  0  0
 30 32  1  0  0  0
M  END
>  <minimizedAffinity>
18.78521

>  <minimizedRMSD>
1.18205

$$$$
CSSS00160802780 LN00385505 MCULE-2680466200 MolPort-035-700-923 PubChem-135639705


 41 45  0  0  0  0  0  0  0  0999 V2000
   18.8512   -8.5572    8.5210 C   0  0  0  0  0  0  0  0  0  0  0  0
   19.0788   -7.7665    7.2526 C   0  0  0  0  0  0  0  0  0  0  0  0
   18.0196   -7.2622    6.4806 C   0  0  0  0  0  0  0  0  0  0  0  0
   16.6981   -7.4601    6.8625 O   0  0  0  0  0  0  0  0  0  0  0  0
   18.2808   -6.5616    5.3502 N   0  0  0  0  0  0  0  0  0  0  0  0
   19.5523   -6.3275    4.9415 C   0  0  0  0  0  0  0  0  0  0  0  0
   19.7698   -5.5996    3.7691 C   0  0  0  0  0  0  0  0  0  0  0  0
   21.0746   -5.3528    3.3467 C   0  0  0  0  0  0  0  0  0  0  0  0
   22.1468   -5.8325    4.0955 C   0  0  0  0  0  0  0  0  0  0  0  0
   21.8959   -6.5569    5.2620 C   0  0  0  0  0  0  0  0  0  0  0  0
   20.6158   -6.7999    5.6758 N   0  0  0  0  0  0  0  0  0  0  0  0
   20.3919   -7.5137    6.8227 C   0  0  0  0  0  0  0  0  0  0  0  0
   21.3640   -7.9490    7.5032 O   0  0  0  0  0  0  0  0  0  0  0  0
   16.5029   -7.9426    7.6416 H   0  0  0  0  0  0  0  0  0  0  0  0
   18.3489   -9.9448    8.2677 C   0  0  0  0  0  0  0  0  0  0  0  0
   19.2248  -10.8714    7.8677 C   0  0  0  0  0  0  0  0  0  0  0  0
   18.7958  -12.2451    7.5898 C   0  0  0  0  0  0  0  0  0  0  0  0
   19.6979  -13.1928    7.0987 C   0  0  0  0  0  0  0  0  0  0  0  0
   19.2762  -14.5100    6.8876 C   0  0  0  0  0  0  0  0  0  0  0  0
   17.9577  -14.8790    7.1774 C   0  0  0  0  0  0  0  0  0  0  0  0
   17.0571  -13.9311    7.6752 C   0  0  0  0  0  0  0  0  0  0  0  0
   17.4751  -12.6125    7.8755 C   0  0  0  0  0  0  0  0  0  0  0  0
   16.5910  -11.6572    8.3829 O   0  0  0  0  0  0  0  0  0  0  0  0
   16.8685  -10.2528    8.3278 C   0  0  0  0  0  0  0  0  0  0  0  0
   18.0429   -7.8193    9.5863 C   0  0  0  0  0  0  0  0  0  0  0  0
   16.3435   -8.7872   11.1822 N   0  0  0  0  0  0  0  0  0  0  0  0
   17.6888   -8.7365   10.7066 C   0  0  0  0  0  0  0  0  0  0  0  0
   18.5737   -9.4835   11.2031 O   0  0  0  0  0  0  0  0  0  0  0  0
   15.6785   -8.1682   10.8029 H   0  0  0  0  0  0  0  0  0  0  0  0
   15.9282   -9.7260   12.2097 C   0  0  0  0  0  0  0  0  0  0  0  0
   17.1346  -10.5083   12.6927 C   0  0  0  0  0  0  0  0  0  0  0  0
   19.0603   -8.3678   17.5858 O   0  0  0  0  0  0  0  0  0  0  0  0
   18.5834   -8.8876   16.3890 C   0  0  0  0  0  0  0  0  0  0  0  0
   19.4691   -9.5037   15.4993 C   0  0  0  0  0  0  0  0  0  0  0  0
   18.9984  -10.0283   14.2918 C   0  0  0  0  0  0  0  0  0  0  0  0
   17.6400   -9.9341   13.9696 C   0  0  0  0  0  0  0  0  0  0  0  0
   16.7521   -9.3234   14.8621 C   0  0  0  0  0  0  0  0  0  0  0  0
   17.2214   -8.7982   16.0701 C   0  0  0  0  0  0  0  0  0  0  0  0
   16.3323   -8.1920   16.9485 O   0  0  0  0  0  0  0  0  0  0  0  0
   19.9718   -8.4304   17.7937 H   0  0  0  0  0  0  0  0  0  0  0  0
   15.4230   -8.1352   16.7297 H   0  0  0  0  0  0  0  0  0  0  0  0
 32 33  1  0  0  0
 33 34  2  0  0  0
 34 35  1  0  0  0
 35 36  2  0  0  0
 36 31  1  0  0  0
 36 37  1  0  0  0
 31 30  1  0  0  0
 30 26  1  0  0  0
 26 27  1  0  0  0
 27 28  2  0  0  0
 27 25  1  0  0  0
  1 25  1  0  0  0
  1 15  1  0  0  0
  1  2  1  0  0  0
 15 16  2  0  0  0
 16 17  1  0  0  0
 17 18  2  0  0  0
 18 19  1  0  0  0
 19 20  2  0  0  0
 20 21  1  0  0  0
 21 22  2  0  0  0
 22 23  1  0  0  0
 22 17  1  0  0  0
 23 24  1  0  0  0
 24 15  1  0  0  0
  2  3  2  0  0  0
  3  4  1  0  0  0
  3  5  1  0  0  0
  5  6  2  0  0  0
  6  7  1  0  0  0
  7  8  2  0  0  0
  8  9  1  0  0  0
  9 10  2  0  0  0
 10 11  1  0  0  0
 11 12  1  0  0  0
 11  6  1  0  0  0
 12 13  2  0  0  0
 12  2  1  0  0  0
 37 38  2  0  0  0
 38 39  1  0  0  0
 38 33  1  0  0  0
 32 40  1  0  0  0
 26 29  1  0  0  0
  4 14  1  0  0  0
 39 41  1  0  0  0
M  END
>  <minimizedAffinity>
18.78726

>  <minimizedRMSD>
4.02853

$$$$
1545221164 CSSS00654922906 MCULE-6943057299 MolPort-047-565-021 Z4607589140


 35 38  0  0  0  0  0  0  0  0999 V2000
   20.6759   -8.4499   10.6887 C   0  0  0  0  0  0  0  0  0  0  0  0
   19.4721   -8.3887    9.8170 C   0  0  0  0  0  0  0  0  0  0  0  0
   19.4958   -7.8476    8.5758 N   0  0  0  0  0  0  0  0  0  0  0  0
   18.3152   -8.0209    8.0477 O   0  0  0  0  0  0  0  0  0  0  0  0
   17.5405   -8.6517    8.8907 C   0  0  0  0  0  0  0  0  0  0  0  0
   16.2609   -9.0379    8.6740 N   0  0  0  0  0  0  0  0  0  0  0  0
   15.5938   -9.7253    9.6505 C   0  0  0  0  0  0  0  0  0  0  0  0
   16.2469  -10.0154   10.8734 C   0  0  0  0  0  0  0  0  0  0  0  0
   17.5749   -9.6049   11.1048 C   0  0  0  0  0  0  0  0  0  0  0  0
   18.2077   -8.9121   10.0557 C   0  0  0  0  0  0  0  0  0  0  0  0
   14.1987  -10.1587    9.4237 C   0  0  0  0  0  0  0  0  0  0  0  0
   13.9306  -11.2896    8.6387 C   0  0  0  0  0  0  0  0  0  0  0  0
   12.6146  -11.7006    8.4131 C   0  0  0  0  0  0  0  0  0  0  0  0
   11.5537  -10.9869    8.9751 C   0  0  0  0  0  0  0  0  0  0  0  0
   11.8018   -9.8652    9.7775 C   0  0  0  0  0  0  0  0  0  0  0  0
   13.1243   -9.4482    9.9828 C   0  0  0  0  0  0  0  0  0  0  0  0
   10.6611   -9.0664   10.3378 C   0  0  0  0  0  0  0  0  0  0  0  0
   11.0848   -7.7732   10.5804 F   0  0  0  0  0  0  0  0  0  0  0  0
    9.6066   -9.0361    9.4414 F   0  0  0  0  0  0  0  0  0  0  0  0
   10.2160   -9.6261   11.5230 F   0  0  0  0  0  0  0  0  0  0  0  0
   18.1878   -9.8958   12.4162 C   0  0  0  0  0  0  0  0  0  0  0  0
   19.2874   -9.3768   12.7420 O   0  0  0  0  0  0  0  0  0  0  0  0
   17.5140  -10.7746   13.3264 N   0  0  0  0  0  0  0  0  0  0  0  0
   16.7758  -11.3170   12.9659 H   0  0  0  0  0  0  0  0  0  0  0  0
   17.8248  -10.9308   14.7197 C   0  0  0  0  0  0  0  0  0  0  0  0
   18.1369  -12.2003   15.2278 C   0  0  0  0  0  0  0  0  0  0  0  0
   18.1867  -13.3934   14.3355 C   0  0  0  0  0  0  0  0  0  0  0  0
   18.4201  -12.3519   16.5474 N   0  0  0  0  0  0  0  0  0  0  0  0
   18.3871  -11.2944   17.3975 C   0  0  0  0  0  0  0  0  0  0  0  0
   18.6872  -11.4749   18.7407 O   0  0  0  0  0  0  0  0  0  0  0  0
   18.0522  -10.0625   16.9373 N   0  0  0  0  0  0  0  0  0  0  0  0
   17.7598   -9.8577   15.6268 C   0  0  0  0  0  0  0  0  0  0  0  0
   17.3650   -8.5916   15.2125 O   0  0  0  0  0  0  0  0  0  0  0  0
   18.9185  -12.3253   19.0589 H   0  0  0  0  0  0  0  0  0  0  0  0
   17.3270   -7.8874   15.8294 H   0  0  0  0  0  0  0  0  0  0  0  0
  1  2  1  0  0  0
  2  3  2  0  0  0
  3  4  1  0  0  0
  4  5  1  0  0  0
  5  6  2  0  0  0
  6  7  1  0  0  0
  7  8  2  0  0  0
  8  9  1  0  0  0
  9 21  1  0  0  0
 21 22  2  0  0  0
 21 23  1  0  0  0
 23 25  1  0  0  0
 25 26  2  0  0  0
 26 27  1  0  0  0
 26 28  1  0  0  0
 28 29  2  0  0  0
 29 30  1  0  0  0
 29 31  1  0  0  0
 31 32  2  0  0  0
 32 33  1  0  0  0
  9 10  2  0  0  0
  7 11  1  0  0  0
 11 12  2  0  0  0
 12 13  1  0  0  0
 13 14  2  0  0  0
 14 15  1  0  0  0
 15 16  2  0  0  0
 15 17  1  0  0  0
 17 18  1  0  0  0
 17 19  1  0  0  0
 17 20  1  0  0  0
 10  2  1  0  0  0
 16 11  1  0  0  0
 10  5  1  0  0  0
 32 25  1  0  0  0
 23 24  1  0  0  0
 30 34  1  0  0  0
 33 35  1  0  0  0
M  END
>  <minimizedAffinity>
19.18101

>  <minimizedRMSD>
3.00989

$$$$
CSSS00132949882 LN01191740 MolPort-001-671-248 PubChem-9618023 ZINC00998625


 32 35  0  0  0  0  0  0  0  0999 V2000
   17.0779   -8.5573   12.8284 N   0  0  0  0  0  0  0  0  0  0  0  0
   16.0433   -8.1824   12.0548 C   0  0  0  0  0  0  0  0  0  0  0  0
   14.8637   -8.4954   12.6247 N   0  0  0  0  0  0  0  0  0  0  0  0
   15.1369   -9.0658   13.7903 N   0  0  0  0  0  0  0  0  0  0  0  0
   16.4783   -9.0932   13.9077 C   0  0  0  0  0  0  0  0  0  0  0  0
   18.5036   -8.3782   12.5712 C   0  0  0  0  0  0  0  0  0  0  0  0
   18.9081  -10.5058   11.3955 C   0  0  0  0  0  0  0  0  0  0  0  0
   19.1906   -9.6993   12.4151 C   0  0  0  0  0  0  0  0  0  0  0  0
   16.1655   -7.5161   10.7237 C   0  0  0  0  0  0  0  0  0  0  0  0
   16.4568   -8.4987    9.6909 N   0  0  0  0  0  0  0  0  0  0  0  0
   15.6377   -9.4739    9.3093 N   0  0  0  0  0  0  0  0  0  0  0  0
   16.1919  -10.2095    8.3453 N   0  0  0  0  0  0  0  0  0  0  0  0
   17.4021   -9.6643    8.1213 C   0  0  0  0  0  0  0  0  0  0  0  0
   18.3832  -10.0597    7.2177 C   0  0  0  0  0  0  0  0  0  0  0  0
   19.5731   -9.3046    7.1951 C   0  0  0  0  0  0  0  0  0  0  0  0
   19.7434   -8.1975    8.0611 C   0  0  0  0  0  0  0  0  0  0  0  0
   18.7270   -7.8280    8.9635 C   0  0  0  0  0  0  0  0  0  0  0  0
   17.5683   -8.6007    8.9527 C   0  0  0  0  0  0  0  0  0  0  0  0
   17.3357   -9.7539   15.3372 S   0  0  0  0  0  0  0  0  0  0  0  0
   17.4708   -8.1242   16.1360 C   0  0  0  0  0  0  0  0  0  0  0  0
   16.1808   -7.7449   16.7779 C   0  0  0  0  0  0  0  0  0  0  0  0
   15.5543   -6.7336   16.3646 O   0  0  0  0  0  0  0  0  0  0  0  0
   15.6677   -8.5197   17.8606 N   0  0  0  0  0  0  0  0  0  0  0  0
   16.1749   -9.3002   18.1814 H   0  0  0  0  0  0  0  0  0  0  0  0
   14.4545   -8.1869   18.4732 N   0  0  0  0  0  0  0  0  0  0  0  0
   14.0078   -8.9014   19.4532 C   0  0  0  0  0  0  0  0  0  0  0  0
   12.7400   -8.5814   20.1176 C   0  0  0  0  0  0  0  0  0  0  0  0
   11.9611   -7.4890   19.7153 C   0  0  0  0  0  0  0  0  0  0  0  0
   10.7604   -7.2229   20.3774 C   0  0  0  0  0  0  0  0  0  0  0  0
   10.3560   -8.0203   21.4025 N   0  0  0  0  0  0  0  0  0  0  0  0
   11.0964   -9.0862   21.8097 C   0  0  0  0  0  0  0  0  0  0  0  0
   12.3033   -9.3855   21.1729 C   0  0  0  0  0  0  0  0  0  0  0  0
  7  8  2  0  0  0
  8  6  1  0  0  0
  6  1  1  0  0  0
  1  2  1  0  0  0
  2  9  1  0  0  0
  2  3  2  0  0  0
  9 10  1  0  0  0
 10 11  1  0  0  0
 11 12  2  0  0  0
 12 13  1  0  0  0
 13 14  2  0  0  0
 14 15  1  0  0  0
 15 16  2  0  0  0
 16 17  1  0  0  0
 17 18  2  0  0  0
 18 10  1  0  0  0
 18 13  1  0  0  0
  3  4  1  0  0  0
  4  5  2  0  0  0
  5 19  1  0  0  0
  5  1  1  0  0  0
 19 20  1  0  0  0
 20 21  1  0  0  0
 21 22  2  0  0  0
 21 23  1  0  0  0
 23 25  1  0  0  0
 25 26  2  0  0  0
 26 27  1  0  0  0
 27 28  2  0  0  0
 28 29  1  0  0  0
 29 30  2  0  0  0
 30 31  1  0  0  0
 31 32  2  0  0  0
 32 27  1  0  0  0
 23 24  1  0  0  0
M  END
>  <minimizedAffinity>
19.34255

>  <minimizedRMSD>
0.47468

$$$$
CSSS08395793442


 33 38  0  0  0  0  0  0  0  0999 V2000
   17.4200   -7.1207   12.2173 C   0  0  0  0  0  0  0  0  0  0  0  0
   17.6292   -8.3577   13.0846 C   0  0  0  0  0  0  0  0  0  0  0  0
   16.3580   -8.6422   13.7476 N   0  0  0  0  0  0  0  0  0  0  0  0
   15.3309   -7.6498   13.4878 C   0  0  0  0  0  0  0  0  0  0  0  0
   16.0191   -6.6737   12.5805 C   0  0  0  0  0  0  0  0  0  0  0  0
   15.2644   -5.5861   11.8485 C   0  0  0  0  0  0  0  0  0  0  0  0
   15.9996   -5.2705   13.1421 C   0  0  0  0  0  0  0  0  0  0  0  0
   16.1568   -9.7206   14.6768 C   0  0  0  0  0  0  0  0  0  0  0  0
   15.1494   -9.6926   15.4355 O   0  0  0  0  0  0  0  0  0  0  0  0
   17.0904  -10.8719   14.7527 C   0  0  0  0  0  0  0  0  0  0  0  0
   17.4424  -11.5556   13.6209 N   0  0  0  0  0  0  0  0  0  0  0  0
   18.2840  -12.6354   13.6456 C   0  0  0  0  0  0  0  0  0  0  0  0
   18.8234  -13.0917   14.8587 C   0  0  0  0  0  0  0  0  0  0  0  0
   18.4599  -12.3993   16.0074 C   0  0  0  0  0  0  0  0  0  0  0  0
   17.6206  -11.3263   15.9686 C   0  0  0  0  0  0  0  0  0  0  0  0
   17.4235  -10.8220   17.1967 N   0  0  0  0  0  0  0  0  0  0  0  0
   18.1604  -11.6090   18.0188 C   0  0  0  0  0  0  0  0  0  0  0  0
   18.8279  -12.6122   17.3141 C   0  0  0  0  0  0  0  0  0  0  0  0
   16.8659  -10.0499   17.4460 H   0  0  0  0  0  0  0  0  0  0  0  0
   19.7931   -7.3474   10.6537 O   0  0  0  0  0  0  0  0  0  0  0  0
   18.6963   -7.5797   10.0765 C   0  0  0  0  0  0  0  0  0  0  0  0
   17.4743   -7.5153   10.8170 N   0  0  0  0  0  0  0  0  0  0  0  0
   16.6337   -7.7477   10.3601 H   0  0  0  0  0  0  0  0  0  0  0  0
   18.6898   -7.9228    8.6412 C   0  0  0  0  0  0  0  0  0  0  0  0
   19.5290   -7.2650    7.7827 N   0  0  0  0  0  0  0  0  0  0  0  0
   19.5676   -7.5383    6.4400 C   0  0  0  0  0  0  0  0  0  0  0  0
   18.7310   -8.5220    5.8851 C   0  0  0  0  0  0  0  0  0  0  0  0
   17.8818   -9.1850    6.7626 C   0  0  0  0  0  0  0  0  0  0  0  0
   17.8538   -8.9037    8.0944 C   0  0  0  0  0  0  0  0  0  0  0  0
   16.9047   -9.7448    8.6367 C   0  0  0  0  0  0  0  0  0  0  0  0
   16.4083  -10.4885    7.6167 N   0  0  0  0  0  0  0  0  0  0  0  0
   16.9997  -10.1515    6.4747 N   0  0  0  0  0  0  0  0  0  0  0  0
   16.8232  -10.5384    5.5868 H   0  0  0  0  0  0  0  0  0  0  0  0
 20 21  2  0  0  0
 21 22  1  0  0  0
 22  1  1  0  0  0
  1  2  1  0  0  0
  2  3  1  0  0  0
  3  4  1  0  0  0
  4  5  1  0  0  0
  5  6  1  0  0  0
  6  7  1  0  0  0
  3  8  1  0  0  0
  8  9  2  0  0  0
  8 10  1  0  0  0
 10 11  2  0  0  0
 11 12  1  0  0  0
 12 13  2  0  0  0
 13 14  1  0  0  0
 14 15  2  0  0  0
 15 16  1  0  0  0
 16 17  1  0  0  0
 17 18  2  0  0  0
 21 24  1  0  0  0
 24 25  2  0  0  0
 25 26  1  0  0  0
 26 27  2  0  0  0
 27 28  1  0  0  0
 28 29  2  0  0  0
 29 30  1  0  0  0
 30 31  2  0  0  0
 31 32  1  0  0  0
  5  1  1  0  0  0
  7  5  1  0  0  0
 15 10  1  0  0  0
 29 24  1  0  0  0
 18 14  1  0  0  0
 32 28  1  0  0  0
 22 23  1  0  0  0
 16 19  1  0  0  0
 32 33  1  0  0  0
M  END
>  <minimizedAffinity>
20.15499

>  <minimizedRMSD>
1.99447

$$$$
CSC026220470 11000125 CSSS00026220470 MCULE-9093558404 MolPort-005-766-262 PubChem-41767380 Z226188760 ZINC000011000125 ZINC11000125


 30 33  0  0  0  0  0  0  0  0999 V2000
   18.6273   -6.8207   10.6600 C   0  0  0  0  0  0  0  0  0  0  0  0
   18.3081   -7.7000    9.5033 C   0  0  0  0  0  0  0  0  0  0  0  0
   18.5964   -7.3604    8.2245 N   0  0  0  0  0  0  0  0  0  0  0  0
   18.2694   -8.3701    7.4651 O   0  0  0  0  0  0  0  0  0  0  0  0
   17.7911   -9.3404    8.1990 C   0  0  0  0  0  0  0  0  0  0  0  0
   17.3865  -10.5568    7.7627 N   0  0  0  0  0  0  0  0  0  0  0  0
   16.9439  -11.4761    8.6713 C   0  0  0  0  0  0  0  0  0  0  0  0
   16.9056  -11.1495   10.0471 C   0  0  0  0  0  0  0  0  0  0  0  0
   17.3157   -9.8796   10.5009 C   0  0  0  0  0  0  0  0  0  0  0  0
   17.7720   -8.9808    9.5184 C   0  0  0  0  0  0  0  0  0  0  0  0
   16.5092  -12.8011    8.2071 C   0  0  0  0  0  0  0  0  0  0  0  0
   15.4278  -13.5127    8.6866 C   0  0  0  0  0  0  0  0  0  0  0  0
   15.4201  -14.6852    7.9518 C   0  0  0  0  0  0  0  0  0  0  0  0
   16.4912  -14.6111    7.0782 C   0  0  0  0  0  0  0  0  0  0  0  0
   17.1154  -13.4728    7.2613 O   0  0  0  0  0  0  0  0  0  0  0  0
   17.2149   -9.5709   11.9412 C   0  0  0  0  0  0  0  0  0  0  0  0
   16.6116   -8.5375   12.3329 O   0  0  0  0  0  0  0  0  0  0  0  0
   17.7592  -10.4917   12.8956 N   0  0  0  0  0  0  0  0  0  0  0  0
   18.1926  -11.3039   12.5470 H   0  0  0  0  0  0  0  0  0  0  0  0
   17.7211  -10.3214   14.3156 C   0  0  0  0  0  0  0  0  0  0  0  0
   17.5046   -9.1445   14.9362 N   0  0  0  0  0  0  0  0  0  0  0  0
   17.5264   -9.2878   16.2892 C   0  0  0  0  0  0  0  0  0  0  0  0
   17.7498  -10.5793   16.7687 C   0  0  0  0  0  0  0  0  0  0  0  0
   17.9375  -11.5654   15.4142 S   0  0  0  0  0  0  0  0  0  0  0  0
   17.2845   -8.1337   17.2001 C   0  0  0  0  0  0  0  0  0  0  0  0
   15.8469   -8.0707   17.5864 C   0  0  0  0  0  0  0  0  0  0  0  0
   15.4822   -7.9502   18.9562 N   0  0  0  0  0  0  0  0  0  0  0  0
   14.9536   -8.1560   16.7041 O   0  0  0  0  0  0  0  0  0  0  0  0
   16.1801   -7.8834   19.6474 H   0  0  0  0  0  0  0  0  0  0  0  0
   14.5319   -7.9336   19.2129 H   0  0  0  0  0  0  0  0  0  0  0  0
  1  2  1  0  0  0
  2  3  2  0  0  0
  3  4  1  0  0  0
  4  5  1  0  0  0
  5  6  2  0  0  0
  6  7  1  0  0  0
  7  8  2  0  0  0
  7 11  1  0  0  0
  8  9  1  0  0  0
  9 16  1  0  0  0
  9 10  2  0  0  0
 16 17  2  0  0  0
 16 18  1  0  0  0
 18 20  1  0  0  0
 20 21  2  0  0  0
 21 22  1  0  0  0
 22 25  1  0  0  0
 22 23  2  0  0  0
 25 26  1  0  0  0
 26 27  1  0  0  0
 26 28  2  0  0  0
 23 24  1  0  0  0
 24 20  1  0  0  0
 10  2  1  0  0  0
 10  5  1  0  0  0
 11 12  2  0  0  0
 12 13  1  0  0  0
 13 14  2  0  0  0
 14 15  1  0  0  0
 15 11  1  0  0  0
 18 19  1  0  0  0
 27 29  1  0  0  0
 27 30  1  0  0  0
M  END
>  <minimizedAffinity>
20.62262

>  <minimizedRMSD>
0.98080

$$$$
CSC026192247 2648218 CSSS00026192247 MCULE-5861967755 MolPort-004-271-235 PubChem-2111329 Z24578613 ZINC000002648218


 35 38  0  0  0  0  0  0  0  0999 V2000
   17.2215   -8.9604   14.3816 C   0  0  0  0  0  0  0  0  0  0  0  0
   17.6705   -9.6696   13.3373 N   0  0  0  0  0  0  0  0  0  0  0  0
   18.7623  -10.5467   13.3282 N   0  0  0  0  0  0  0  0  0  0  0  0
   16.8806   -9.2991   12.3094 C   0  0  0  0  0  0  0  0  0  0  0  0
   15.9720   -8.3924   12.7320 N   0  0  0  0  0  0  0  0  0  0  0  0
   16.1868   -8.1783   14.0246 N   0  0  0  0  0  0  0  0  0  0  0  0
   19.2546  -10.7285   14.1612 H   0  0  0  0  0  0  0  0  0  0  0  0
   19.0375  -10.9815   12.4889 H   0  0  0  0  0  0  0  0  0  0  0  0
   16.9708   -9.8145   10.9121 C   0  0  0  0  0  0  0  0  0  0  0  0
   17.6245   -9.1142    9.8681 C   0  0  0  0  0  0  0  0  0  0  0  0
   17.6464   -9.6803    8.5693 C   0  0  0  0  0  0  0  0  0  0  0  0
   18.2881   -9.0148    7.5207 C   0  0  0  0  0  0  0  0  0  0  0  0
   18.9143   -7.7875    7.7464 C   0  0  0  0  0  0  0  0  0  0  0  0
   18.9029   -7.2215    9.0223 C   0  0  0  0  0  0  0  0  0  0  0  0
   18.2637   -7.8810   10.0748 C   0  0  0  0  0  0  0  0  0  0  0  0
   17.0511  -10.8772    8.3344 N   0  0  0  0  0  0  0  0  0  0  0  0
   16.4198  -11.5745    9.3165 C   0  0  0  0  0  0  0  0  0  0  0  0
   16.3757  -11.0454   10.6114 C   0  0  0  0  0  0  0  0  0  0  0  0
   15.7938  -12.8787    9.0112 C   0  0  0  0  0  0  0  0  0  0  0  0
   15.0464  -13.5649    9.9826 C   0  0  0  0  0  0  0  0  0  0  0  0
   14.4619  -14.7995    9.6863 C   0  0  0  0  0  0  0  0  0  0  0  0
   14.6190  -15.3599    8.4164 C   0  0  0  0  0  0  0  0  0  0  0  0
   13.9993  -16.6732    8.1021 C   0  0  0  0  0  0  0  0  0  0  0  0
   15.3622  -14.6871    7.4433 C   0  0  0  0  0  0  0  0  0  0  0  0
   15.9462  -13.4525    7.7396 C   0  0  0  0  0  0  0  0  0  0  0  0
   17.9131   -9.0199   16.0329 S   0  0  0  0  0  0  0  0  0  0  0  0
   16.3418   -9.5564   16.7746 C   0  0  0  0  0  0  0  0  0  0  0  0
   15.7079   -8.2748   18.8510 N   0  0  0  0  0  0  0  0  0  0  0  0
   15.6632   -8.4049   17.4300 C   0  0  0  0  0  0  0  0  0  0  0  0
   15.0739   -7.5426   16.7248 O   0  0  0  0  0  0  0  0  0  0  0  0
   16.1755   -8.9616   19.3792 H   0  0  0  0  0  0  0  0  0  0  0  0
   15.0838   -7.1589   19.5406 C   0  0  0  0  0  0  0  0  0  0  0  0
   13.7055   -7.5663   20.0174 C   0  0  0  0  0  0  0  0  0  0  0  0
   12.9629   -6.5156   21.8070 C   0  0  0  0  0  0  0  0  0  0  0  0
   13.6956   -7.6331   21.4095 O   0  0  0  0  0  0  0  0  0  0  0  0
 34 35  1  0  0  0
 35 33  1  0  0  0
 33 32  1  0  0  0
 32 28  1  0  0  0
 28 29  1  0  0  0
 29 27  1  0  0  0
 27 26  1  0  0  0
 26  1  1  0  0  0
  1  2  1  0  0  0
  2  3  1  0  0  0
  2  4  1  0  0  0
  4  9  1  0  0  0
  9 10  1  0  0  0
 10 11  1  0  0  0
 11 12  2  0  0  0
 12 13  1  0  0  0
 13 14  2  0  0  0
 14 15  1  0  0  0
 11 16  1  0  0  0
 16 17  2  0  0  0
 17 19  1  0  0  0
 19 20  2  0  0  0
 20 21  1  0  0  0
 21 22  2  0  0  0
 22 23  1  0  0  0
 22 24  1  0  0  0
 24 25  2  0  0  0
 17 18  1  0  0  0
  4  5  2  0  0  0
  5  6  1  0  0  0
 29 30  2  0  0  0
  6  1  2  0  0  0
 18  9  2  0  0  0
 15 10  2  0  0  0
 25 19  1  0  0  0
 28 31  1  0  0  0
  3  7  1  0  0  0
  3  8  1  0  0  0
M  END
>  <minimizedAffinity>
21.04518

>  <minimizedRMSD>
1.56170

$$$$
CSC027000694 14187030 CSSS00027000694 MCULE-6624245843 MolPort-003-344-495 PubChem-17464990 Z147199876 ZINC000014187030


 31 34  0  0  0  0  0  0  0  0999 V2000
   17.2793   -9.7716   10.6449 C   0  0  0  0  0  0  0  0  0  0  0  0
   17.8103   -8.8275    9.7313 C   0  0  0  0  0  0  0  0  0  0  0  0
   17.9358   -9.1901    8.3671 C   0  0  0  0  0  0  0  0  0  0  0  0
   18.4551   -8.2809    7.4409 C   0  0  0  0  0  0  0  0  0  0  0  0
   18.8517   -7.0074    7.8531 C   0  0  0  0  0  0  0  0  0  0  0  0
   18.7336   -6.6387    9.1947 C   0  0  0  0  0  0  0  0  0  0  0  0
   18.2153   -7.5419   10.1260 C   0  0  0  0  0  0  0  0  0  0  0  0
   17.5521  -10.4233    7.9484 N   0  0  0  0  0  0  0  0  0  0  0  0
   17.0422  -11.3507    8.8026 C   0  0  0  0  0  0  0  0  0  0  0  0
   16.9016  -11.0296   10.1580 C   0  0  0  0  0  0  0  0  0  0  0  0
   16.6394  -12.6802    8.2946 C   0  0  0  0  0  0  0  0  0  0  0  0
   15.6016  -13.4031    8.9070 C   0  0  0  0  0  0  0  0  0  0  0  0
   15.2288  -14.6595    8.4208 C   0  0  0  0  0  0  0  0  0  0  0  0
   15.8900  -15.2060    7.3183 C   0  0  0  0  0  0  0  0  0  0  0  0
   16.9226  -14.4956    6.7007 C   0  0  0  0  0  0  0  0  0  0  0  0
   17.2953  -13.2391    7.1869 C   0  0  0  0  0  0  0  0  0  0  0  0
   17.7314  -10.3601   13.0562 N   0  0  0  0  0  0  0  0  0  0  0  0
   17.0920   -9.5067   12.0962 C   0  0  0  0  0  0  0  0  0  0  0  0
   16.3784   -8.5449   12.4901 O   0  0  0  0  0  0  0  0  0  0  0  0
   18.2901  -11.0932   12.7103 H   0  0  0  0  0  0  0  0  0  0  0  0
   17.3666   -9.2445   16.4688 C   0  0  0  0  0  0  0  0  0  0  0  0
   17.4374   -9.0602   15.1225 N   0  0  0  0  0  0  0  0  0  0  0  0
   17.6209  -10.2292   14.4767 C   0  0  0  0  0  0  0  0  0  0  0  0
   17.6957  -11.5160   15.5444 S   0  0  0  0  0  0  0  0  0  0  0  0
   17.4830  -10.5607   16.9174 C   0  0  0  0  0  0  0  0  0  0  0  0
   17.1450   -8.1040   17.4021 C   0  0  0  0  0  0  0  0  0  0  0  0
   15.2491   -8.0900   19.0661 N   0  0  0  0  0  0  0  0  0  0  0  0
   15.6961   -7.9680   17.7212 C   0  0  0  0  0  0  0  0  0  0  0  0
   14.8629   -7.7790   16.7973 O   0  0  0  0  0  0  0  0  0  0  0  0
   15.9001   -8.2379   19.7897 H   0  0  0  0  0  0  0  0  0  0  0  0
   14.2888   -8.0265   19.2733 H   0  0  0  0  0  0  0  0  0  0  0  0
 27 28  1  0  0  0
 28 26  1  0  0  0
 26 21  1  0  0  0
 21 22  1  0  0  0
 22 23  2  0  0  0
 23 17  1  0  0  0
 17 18  1  0  0  0
 18  1  1  0  0  0
  1  2  1  0  0  0
  2  3  1  0  0  0
  3  4  2  0  0  0
  4  5  1  0  0  0
  5  6  2  0  0  0
  6  7  1  0  0  0
  3  8  1  0  0  0
  8  9  2  0  0  0
  9 11  1  0  0  0
 11 12  2  0  0  0
 12 13  1  0  0  0
 13 14  2  0  0  0
 14 15  1  0  0  0
 15 16  2  0  0  0
  9 10  1  0  0  0
 18 19  2  0  0  0
 23 24  1  0  0  0
 24 25  1  0  0  0
 28 29  2  0  0  0
 25 21  2  0  0  0
 10  1  2  0  0  0
  7  2  2  0  0  0
 16 11  1  0  0  0
 27 30  1  0  0  0
 27 31  1  0  0  0
 17 20  1  0  0  0
M  END
>  <minimizedAffinity>
22.73689

>  <minimizedRMSD>
0.92905

$$$$
CSC026692585 42925592 CSSS00026692585 MCULE-2359215071 MolPort-020-112-961 PubChem-56812716 Z407300798 ZINC000042925592 ZINC42925592


 28 30  0  0  0  0  0  0  0  0999 V2000
   19.2713   -6.2814    9.8340 C   0  0  0  0  0  0  0  0  0  0  0  0
   18.6851   -7.2574    8.8767 C   0  0  0  0  0  0  0  0  0  0  0  0
   18.3867   -6.9360    7.5954 N   0  0  0  0  0  0  0  0  0  0  0  0
   17.8179   -7.9763    7.0505 O   0  0  0  0  0  0  0  0  0  0  0  0
   17.7340   -8.9446    7.9245 C   0  0  0  0  0  0  0  0  0  0  0  0
   17.1684  -10.1592    7.7292 N   0  0  0  0  0  0  0  0  0  0  0  0
   17.1284  -11.0543    8.7630 C   0  0  0  0  0  0  0  0  0  0  0  0
   17.6845  -10.7010   10.0169 C   0  0  0  0  0  0  0  0  0  0  0  0
   18.2838   -9.4414   10.2184 C   0  0  0  0  0  0  0  0  0  0  0  0
   18.2812   -8.5640    9.1183 C   0  0  0  0  0  0  0  0  0  0  0  0
   16.5069  -12.3811    8.5639 C   0  0  0  0  0  0  0  0  0  0  0  0
   15.6397  -12.9231    9.5271 C   0  0  0  0  0  0  0  0  0  0  0  0
   15.0564  -14.1781    9.3306 C   0  0  0  0  0  0  0  0  0  0  0  0
   15.3343  -14.9035    8.1694 C   0  0  0  0  0  0  0  0  0  0  0  0
   16.1952  -14.3742    7.2047 C   0  0  0  0  0  0  0  0  0  0  0  0
   16.7785  -13.1191    7.4013 C   0  0  0  0  0  0  0  0  0  0  0  0
   18.8865   -9.1424   11.5330 C   0  0  0  0  0  0  0  0  0  0  0  0
   19.9165   -8.4234   11.6210 O   0  0  0  0  0  0  0  0  0  0  0  0
   18.3254   -9.7229   12.7128 N   0  0  0  0  0  0  0  0  0  0  0  0
   17.5362  -10.3053   12.6283 H   0  0  0  0  0  0  0  0  0  0  0  0
   18.8835   -9.4806   14.0340 C   0  0  0  0  0  0  0  0  0  0  0  0
   18.2433  -10.4151   15.0486 C   0  0  0  0  0  0  0  0  0  0  0  0
   16.7469  -10.1572   15.1713 C   0  0  0  0  0  0  0  0  0  0  0  0
   16.4767   -8.9098   15.9437 C   0  0  0  0  0  0  0  0  0  0  0  0
   16.6733   -8.8813   17.3531 N   0  0  0  0  0  0  0  0  0  0  0  0
   16.0596   -7.8831   15.3482 O   0  0  0  0  0  0  0  0  0  0  0  0
   16.9997   -9.6837   17.8209 H   0  0  0  0  0  0  0  0  0  0  0  0
   16.4829   -8.0591   17.8602 H   0  0  0  0  0  0  0  0  0  0  0  0
  1  2  1  0  0  0
  2  3  2  0  0  0
  3  4  1  0  0  0
  4  5  1  0  0  0
  5  6  2  0  0  0
  6  7  1  0  0  0
  7  8  2  0  0  0
  7 11  1  0  0  0
  8  9  1  0  0  0
  9 17  1  0  0  0
  9 10  2  0  0  0
 17 18  2  0  0  0
 17 19  1  0  0  0
 19 21  1  0  0  0
 21 22  1  0  0  0
 22 23  1  0  0  0
 23 24  1  0  0  0
 24 25  1  0  0  0
 24 26  2  0  0  0
 10  2  1  0  0  0
 10  5  1  0  0  0
 11 12  2  0  0  0
 12 13  1  0  0  0
 13 14  2  0  0  0
 14 15  1  0  0  0
 15 16  2  0  0  0
 16 11  1  0  0  0
 19 20  1  0  0  0
 25 27  1  0  0  0
 25 28  1  0  0  0
M  END
>  <minimizedAffinity>
23.17347

>  <minimizedRMSD>
1.31154

$$$$
14743958 CSSS09880946309 MCULE-5982246868 MolPort-004-987-210 PubChem-26223354


 37 42  0  0  0  0  0  0  0  0999 V2000
   16.4173   -9.2090   16.5790 C   0  0  0  0  0  0  0  0  0  0  0  0
   16.8405  -10.3440   17.1814 N   0  0  0  0  0  0  0  0  0  0  0  0
   17.6441  -10.9727   16.3342 N   0  0  0  0  0  0  0  0  0  0  0  0
   17.7444  -10.2613   15.1974 C   0  0  0  0  0  0  0  0  0  0  0  0
   16.9635   -9.1421   15.3084 C   0  0  0  0  0  0  0  0  0  0  0  0
   16.8312   -8.1112   14.2331 C   0  0  0  0  0  0  0  0  0  0  0  0
   17.3982   -8.6332   12.9827 N   0  0  0  0  0  0  0  0  0  0  0  0
   18.6337   -9.4296   13.0373 C   0  0  0  0  0  0  0  0  0  0  0  0
   18.4528  -10.6586   13.9398 C   0  0  0  0  0  0  0  0  0  0  0  0
   16.8941   -8.1547   11.7237 C   0  0  0  0  0  0  0  0  0  0  0  0
   16.2081   -7.0962   11.6966 O   0  0  0  0  0  0  0  0  0  0  0  0
   17.1233   -8.9091   10.4634 C   0  0  0  0  0  0  0  0  0  0  0  0
   16.6619  -10.2279   10.3818 C   0  0  0  0  0  0  0  0  0  0  0  0
   16.8271  -10.9754    9.2102 C   0  0  0  0  0  0  0  0  0  0  0  0
   17.4383  -10.4050    8.1362 N   0  0  0  0  0  0  0  0  0  0  0  0
   17.8994   -9.1278    8.1636 C   0  0  0  0  0  0  0  0  0  0  0  0
   18.5257   -8.5957    7.0328 C   0  0  0  0  0  0  0  0  0  0  0  0
   19.0156   -7.2877    7.0520 C   0  0  0  0  0  0  0  0  0  0  0  0
   18.8834   -6.5073    8.2028 C   0  0  0  0  0  0  0  0  0  0  0  0
   18.2579   -7.0316    9.3369 C   0  0  0  0  0  0  0  0  0  0  0  0
   17.7530   -8.3419    9.3324 C   0  0  0  0  0  0  0  0  0  0  0  0
   16.3456  -12.3709    9.1333 C   0  0  0  0  0  0  0  0  0  0  0  0
   16.4459  -13.0920    7.9356 C   0  0  0  0  0  0  0  0  0  0  0  0
   16.0044  -14.3768    7.8658 N   0  0  0  0  0  0  0  0  0  0  0  0
   15.4565  -15.0014    8.9422 C   0  0  0  0  0  0  0  0  0  0  0  0
   15.3353  -14.3253   10.1570 C   0  0  0  0  0  0  0  0  0  0  0  0
   15.7822  -13.0067   10.2491 C   0  0  0  0  0  0  0  0  0  0  0  0
   15.5370   -8.0609   18.6231 N   0  0  0  0  0  0  0  0  0  0  0  0
   15.5066   -8.2415   17.2065 C   0  0  0  0  0  0  0  0  0  0  0  0
   14.7032   -7.5750   16.4993 O   0  0  0  0  0  0  0  0  0  0  0  0
   16.1714   -8.5905   19.1582 H   0  0  0  0  0  0  0  0  0  0  0  0
   14.4476   -7.5661   20.7294 C   0  0  0  0  0  0  0  0  0  0  0  0
   14.6604   -7.1195   19.2987 C   0  0  0  0  0  0  0  0  0  0  0  0
   18.2425  -12.2721   16.5972 C   0  0  0  0  0  0  0  0  0  0  0  0
   18.8957  -12.8054   15.3364 C   0  0  0  0  0  0  0  0  0  0  0  0
   18.3053  -14.1606   15.0096 C   0  0  0  0  0  0  0  0  0  0  0  0
   17.8486  -12.9336   14.2497 C   0  0  0  0  0  0  0  0  0  0  0  0
 32 33  1  0  0  0
 33 28  1  0  0  0
 28 29  1  0  0  0
 29 30  2  0  0  0
 29  1  1  0  0  0
  1  2  2  0  0  0
  2  3  1  0  0  0
  3  4  1  0  0  0
  4  5  2  0  0  0
  5  6  1  0  0  0
  6  7  1  0  0  0
  7  8  1  0  0  0
  8  9  1  0  0  0
  7 10  1  0  0  0
 10 11  2  0  0  0
 10 12  1  0  0  0
 12 13  2  0  0  0
 13 14  1  0  0  0
 14 15  2  0  0  0
 15 16  1  0  0  0
 16 17  2  0  0  0
 17 18  1  0  0  0
 18 19  2  0  0  0
 19 20  1  0  0  0
 20 21  2  0  0  0
 14 22  1  0  0  0
 22 23  2  0  0  0
 23 24  1  0  0  0
 24 25  2  0  0  0
 25 26  1  0  0  0
 26 27  2  0  0  0
  3 34  1  0  0  0
 34 35  1  0  0  0
 35 36  1  0  0  0
 36 37  1  0  0  0
  5  1  1  0  0  0
  9  4  1  0  0  0
 21 12  1  0  0  0
 21 16  1  0  0  0
 27 22  1  0  0  0
 37 35  1  0  0  0
 28 31  1  0  0  0
M  END
>  <minimizedAffinity>
23.88232

>  <minimizedRMSD>
1.32708

$$$$
CSSS00574382026 Z5017127087


 32 35  0  0  0  0  0  0  0  0999 V2000
   17.6653   -9.9245   10.6160 C   0  0  0  0  0  0  0  0  0  0  0  0
   17.1049  -11.1576   10.2595 C   0  0  0  0  0  0  0  0  0  0  0  0
   16.9402  -11.5134    8.9157 C   0  0  0  0  0  0  0  0  0  0  0  0
   17.3309  -10.6448    7.9445 N   0  0  0  0  0  0  0  0  0  0  0  0
   17.8776   -9.4365    8.2343 C   0  0  0  0  0  0  0  0  0  0  0  0
   18.2565   -8.5858    7.1918 C   0  0  0  0  0  0  0  0  0  0  0  0
   18.8168   -7.3380    7.4716 C   0  0  0  0  0  0  0  0  0  0  0  0
   19.1823   -6.5175    6.4579 F   0  0  0  0  0  0  0  0  0  0  0  0
   18.9998   -6.9351    8.7957 C   0  0  0  0  0  0  0  0  0  0  0  0
   18.6239   -7.7799    9.8429 C   0  0  0  0  0  0  0  0  0  0  0  0
   18.0605   -9.0398    9.5822 C   0  0  0  0  0  0  0  0  0  0  0  0
   16.3490  -12.8175    8.5462 C   0  0  0  0  0  0  0  0  0  0  0  0
   15.5378  -13.5241    9.4499 C   0  0  0  0  0  0  0  0  0  0  0  0
   14.9831  -14.7562    9.0919 C   0  0  0  0  0  0  0  0  0  0  0  0
   15.2340  -15.2941    7.8272 C   0  0  0  0  0  0  0  0  0  0  0  0
   16.0391  -14.6002    6.9205 C   0  0  0  0  0  0  0  0  0  0  0  0
   16.5938  -13.3681    7.2785 C   0  0  0  0  0  0  0  0  0  0  0  0
   16.7450   -9.9687   12.9646 N   0  0  0  0  0  0  0  0  0  0  0  0
   17.8066   -9.6221   12.0648 C   0  0  0  0  0  0  0  0  0  0  0  0
   18.8655   -9.1099   12.5189 O   0  0  0  0  0  0  0  0  0  0  0  0
   16.0417  -10.5664   12.6221 H   0  0  0  0  0  0  0  0  0  0  0  0
   17.7145  -11.6491   15.1006 C   0  0  0  0  0  0  0  0  0  0  0  0
   17.0718  -10.3319   15.3722 C   0  0  0  0  0  0  0  0  0  0  0  0
   16.9450   -9.9128   16.6579 N   0  0  0  0  0  0  0  0  0  0  0  0
   16.3664   -8.7212   16.9531 C   0  0  0  0  0  0  0  0  0  0  0  0
   16.2550   -8.3131   18.2750 O   0  0  0  0  0  0  0  0  0  0  0  0
   15.8885   -7.9323   15.9574 N   0  0  0  0  0  0  0  0  0  0  0  0
   15.9902   -8.3055   14.6554 C   0  0  0  0  0  0  0  0  0  0  0  0
   15.4344   -7.4931   13.6747 O   0  0  0  0  0  0  0  0  0  0  0  0
   16.6201   -9.5184   14.3224 C   0  0  0  0  0  0  0  0  0  0  0  0
   16.5848   -8.8574   18.9627 H   0  0  0  0  0  0  0  0  0  0  0  0
   15.0184   -6.6882   13.9134 H   0  0  0  0  0  0  0  0  0  0  0  0
 22 23  1  0  0  0
 23 24  2  0  0  0
 24 25  1  0  0  0
 25 26  1  0  0  0
 25 27  2  0  0  0
 27 28  1  0  0  0
 28 29  1  0  0  0
 28 30  2  0  0  0
 30 18  1  0  0  0
 18 19  1  0  0  0
 19 20  2  0  0  0
 19  1  1  0  0  0
  1  2  2  0  0  0
  2  3  1  0  0  0
  3  4  2  0  0  0
  4  5  1  0  0  0
  5  6  2  0  0  0
  6  7  1  0  0  0
  7  8  1  0  0  0
  7  9  2  0  0  0
  9 10  1  0  0  0
 10 11  2  0  0  0
  3 12  1  0  0  0
 12 13  2  0  0  0
 13 14  1  0  0  0
 14 15  2  0  0  0
 15 16  1  0  0  0
 16 17  2  0  0  0
 30 23  1  0  0  0
 11  1  1  0  0  0
 17 12  1  0  0  0
 11  5  1  0  0  0
 26 31  1  0  0  0
 29 32  1  0  0  0
 18 21  1  0  0  0
M  END
>  <minimizedAffinity>
24.33506

>  <minimizedRMSD>
0.97945

$$$$
11995754 CSSS00159459788 MCULE-8137582830 MolPort-005-027-914 PubChem-42340564 ZINC000011995754


 37 41  0  0  0  0  0  0  0  0999 V2000
   17.0806  -10.4309   15.2132 N   0  0  0  0  0  0  0  0  0  0  0  0
   16.6131  -10.0043   13.8988 C   0  0  0  0  0  0  0  0  0  0  0  0
   17.5182   -8.9189   13.3274 C   0  0  0  0  0  0  0  0  0  0  0  0
   18.8049   -9.4791   12.9208 N   0  0  0  0  0  0  0  0  0  0  0  0
   19.7820   -9.8391   13.9444 C   0  0  0  0  0  0  0  0  0  0  0  0
   19.4064  -11.1595   14.5967 C   0  0  0  0  0  0  0  0  0  0  0  0
   18.2722  -10.9588   15.5453 C   0  0  0  0  0  0  0  0  0  0  0  0
   18.3257  -11.2668   16.8552 N   0  0  0  0  0  0  0  0  0  0  0  0
   17.1494  -10.9417   17.3757 N   0  0  0  0  0  0  0  0  0  0  0  0
   16.4011  -10.4410   16.3733 C   0  0  0  0  0  0  0  0  0  0  0  0
   19.1590   -9.5894   11.5306 C   0  0  0  0  0  0  0  0  0  0  0  0
   20.3224   -9.9549   11.2092 O   0  0  0  0  0  0  0  0  0  0  0  0
   18.1677   -9.3551   10.4611 C   0  0  0  0  0  0  0  0  0  0  0  0
   17.0020  -10.1251   10.5211 C   0  0  0  0  0  0  0  0  0  0  0  0
   16.0717  -10.0747    9.4898 C   0  0  0  0  0  0  0  0  0  0  0  0
   14.8343  -10.8929    9.5667 C   0  0  0  0  0  0  0  0  0  0  0  0
   16.3074   -9.3046    8.4000 N   0  0  0  0  0  0  0  0  0  0  0  0
   17.4203   -8.5338    8.2921 C   0  0  0  0  0  0  0  0  0  0  0  0
   17.5945   -7.7677    7.1382 C   0  0  0  0  0  0  0  0  0  0  0  0
   18.7039   -6.9395    7.0044 C   0  0  0  0  0  0  0  0  0  0  0  0
   18.8862   -6.1364    5.7678 C   0  0  0  0  0  0  0  0  0  0  0  0
   19.6303   -6.8459    8.0395 C   0  0  0  0  0  0  0  0  0  0  0  0
   19.4847   -7.6025    9.2065 C   0  0  0  0  0  0  0  0  0  0  0  0
   20.4874   -7.3457   10.2788 C   0  0  0  0  0  0  0  0  0  0  0  0
   18.3858   -8.5016    9.3390 C   0  0  0  0  0  0  0  0  0  0  0  0
   15.0039   -9.9426   16.5472 C   0  0  0  0  0  0  0  0  0  0  0  0
   14.9861   -8.8079   17.4598 N   0  0  0  0  0  0  0  0  0  0  0  0
   15.4011   -7.4944   17.0704 C   0  0  0  0  0  0  0  0  0  0  0  0
   15.7439   -7.2700   15.8774 O   0  0  0  0  0  0  0  0  0  0  0  0
   14.6757   -8.9501   18.3832 H   0  0  0  0  0  0  0  0  0  0  0  0
   15.4177   -6.4016   18.0585 C   0  0  0  0  0  0  0  0  0  0  0  0
   15.0130   -6.6347   19.3816 C   0  0  0  0  0  0  0  0  0  0  0  0
   15.0249   -5.5962   20.3169 C   0  0  0  0  0  0  0  0  0  0  0  0
   15.4431   -4.3176   19.9362 C   0  0  0  0  0  0  0  0  0  0  0  0
   15.8495   -4.0774   18.6214 C   0  0  0  0  0  0  0  0  0  0  0  0
   16.2535   -2.8381   18.2532 F   0  0  0  0  0  0  0  0  0  0  0  0
   15.8380   -5.1158   17.6863 C   0  0  0  0  0  0  0  0  0  0  0  0
  1  2  1  0  0  0
  2  3  1  0  0  0
  3  4  1  0  0  0
  4  5  1  0  0  0
  5  6  1  0  0  0
  6  7  1  0  0  0
  7  8  2  0  0  0
  8  9  1  0  0  0
  9 10  2  0  0  0
 10 26  1  0  0  0
 26 27  1  0  0  0
 27 28  1  0  0  0
 28 29  2  0  0  0
 28 31  1  0  0  0
 31 32  2  0  0  0
 32 33  1  0  0  0
 33 34  2  0  0  0
 34 35  1  0  0  0
 35 36  1  0  0  0
 35 37  2  0  0  0
  4 11  1  0  0  0
 11 12  2  0  0  0
 11 13  1  0  0  0
 13 14  2  0  0  0
 14 15  1  0  0  0
 15 16  1  0  0  0
 15 17  2  0  0  0
 17 18  1  0  0  0
 18 19  2  0  0  0
 19 20  1  0  0  0
 20 21  1  0  0  0
 20 22  2  0  0  0
 22 23  1  0  0  0
 23 24  1  0  0  0
 23 25  2  0  0  0
  7  1  1  0  0  0
 37 31  1  0  0  0
 25 13  1  0  0  0
 10  1  1  0  0  0
 25 18  1  0  0  0
 27 30  1  0  0  0
M  END
>  <minimizedAffinity>
30.94090

>  <minimizedRMSD>
0.53406

$$$$
1857707910 CSSS02495344256 MCULE-3877321507 MolPort-047-532-838 PubChem-154566965


 37 40  0  0  0  0  0  0  0  0999 V2000
   16.6591  -10.9519   11.8006 C   0  0  0  0  0  0  0  0  0  0  0  0
   16.6644  -12.2081   11.9095 O   0  0  0  0  0  0  0  0  0  0  0  0
   17.4754  -10.1526   12.6790 N   0  0  0  0  0  0  0  0  0  0  0  0
   17.3123   -8.7073   12.7832 C   0  0  0  0  0  0  0  0  0  0  0  0
   15.9903   -8.3758   13.4544 C   0  0  0  0  0  0  0  0  0  0  0  0
   15.8737   -6.8774   13.6786 C   0  0  0  0  0  0  0  0  0  0  0  0
   16.7449   -6.4504   14.7676 N   0  0  0  0  0  0  0  0  0  0  0  0
   16.5693   -6.8332   16.1376 C   0  0  0  0  0  0  0  0  0  0  0  0
   17.4326   -6.4775   16.9826 O   0  0  0  0  0  0  0  0  0  0  0  0
   15.3754   -7.5800   16.5847 C   0  0  0  0  0  0  0  0  0  0  0  0
   14.1577   -7.1586   16.1405 N   0  0  0  0  0  0  0  0  0  0  0  0
   12.9937   -7.7100   16.5718 C   0  0  0  0  0  0  0  0  0  0  0  0
   13.0151   -8.7367   17.5116 C   0  0  0  0  0  0  0  0  0  0  0  0
   14.2416   -9.1998   17.9819 C   0  0  0  0  0  0  0  0  0  0  0  0
   15.4386   -8.6503   17.5159 C   0  0  0  0  0  0  0  0  0  0  0  0
   16.6296   -9.2147   17.9907 O   0  0  0  0  0  0  0  0  0  0  0  0
   17.8262   -9.2992   17.2292 C   0  0  0  0  0  0  0  0  0  0  0  0
   18.8557  -10.1258   17.9798 C   0  0  0  0  0  0  0  0  0  0  0  0
   18.4496  -11.5248   18.0246 N   0  0  0  0  0  0  0  0  0  0  0  0
   18.5064  -12.3986   16.8928 C   0  0  0  0  0  0  0  0  0  0  0  0
   18.0739  -13.5756   16.9983 O   0  0  0  0  0  0  0  0  0  0  0  0
   19.0594  -11.9371   15.5852 C   0  0  0  0  0  0  0  0  0  0  0  0
   17.9391  -11.4321   14.6992 C   0  0  0  0  0  0  0  0  0  0  0  0
   18.5308  -10.7663   13.4718 C   0  0  0  0  0  0  0  0  0  0  0  0
   17.5024   -5.8613   14.5475 H   0  0  0  0  0  0  0  0  0  0  0  0
   18.1190  -11.8875   18.8780 H   0  0  0  0  0  0  0  0  0  0  0  0
   18.7996   -9.9693    9.5664 C   0  0  0  0  0  0  0  0  0  0  0  0
   17.4826   -9.4708    9.0840 C   0  0  0  0  0  0  0  0  0  0  0  0
   17.3186   -8.7794    7.9304 N   0  0  0  0  0  0  0  0  0  0  0  0
   16.0382   -8.5658    7.7791 O   0  0  0  0  0  0  0  0  0  0  0  0
   15.3796   -9.0927    8.7792 C   0  0  0  0  0  0  0  0  0  0  0  0
   14.0355   -9.1107    8.9517 N   0  0  0  0  0  0  0  0  0  0  0  0
   13.5205   -9.7472   10.0465 C   0  0  0  0  0  0  0  0  0  0  0  0
   12.0498   -9.7852   10.2542 C   0  0  0  0  0  0  0  0  0  0  0  0
   14.3756  -10.3702   10.9834 C   0  0  0  0  0  0  0  0  0  0  0  0
   15.7716  -10.3328   10.8021 C   0  0  0  0  0  0  0  0  0  0  0  0
   16.2423   -9.6774    9.6580 C   0  0  0  0  0  0  0  0  0  0  0  0
 27 28  1  0  0  0
 28 29  2  0  0  0
 29 30  1  0  0  0
 30 31  1  0  0  0
 31 32  2  0  0  0
 32 33  1  0  0  0
 33 34  1  0  0  0
 33 35  2  0  0  0
 35 36  1  0  0  0
 36  1  1  0  0  0
  1  2  2  0  0  0
  1  3  1  0  0  0
  3  4  1  0  0  0
  4  5  1  0  0  0
  5  6  1  0  0  0
  6  7  1  0  0  0
  7  8  1  0  0  0
  8  9  2  0  0  0
  8 10  1  0  0  0
 10 11  2  0  0  0
 11 12  1  0  0  0
 12 13  2  0  0  0
 13 14  1  0  0  0
 14 15  2  0  0  0
 15 16  1  0  0  0
 16 17  1  0  0  0
 17 18  1  0  0  0
 18 19  1  0  0  0
 19 20  1  0  0  0
 20 21  2  0  0  0
 20 22  1  0  0  0
 22 23  1  0  0  0
 23 24  1  0  0  0
 36 37  2  0  0  0
 37 28  1  0  0  0
 37 31  1  0  0  0
 24  3  1  0  0  0
 15 10  1  0  0  0
  7 25  1  0  0  0
 19 26  1  0  0  0
M  END
>  <minimizedAffinity>
33.18873

>  <minimizedRMSD>
2.59951

$$$$
CSSS00160453428 MCULE-3089636558 MolPort-046-810-453 PubChem-145892644 Z1273205452


 32 36  0  0  0  0  0  0  0  0999 V2000
   16.9027  -10.9457   15.2677 C   0  0  0  0  0  0  0  0  0  0  0  0
   16.0106   -9.8143   15.0720 N   0  0  0  0  0  0  0  0  0  0  0  0
   16.2834   -8.8503   14.0408 C   0  0  0  0  0  0  0  0  0  0  0  0
   17.3575   -8.9230   13.3825 O   0  0  0  0  0  0  0  0  0  0  0  0
   15.2984   -7.7548   13.7363 C   0  0  0  0  0  0  0  0  0  0  0  0
   15.8472   -6.3635   14.0812 C   0  0  0  0  0  0  0  0  0  0  0  0
   16.8792   -5.8865   13.0583 C   0  0  0  0  0  0  0  0  0  0  0  0
   16.2832   -5.9281   11.6562 C   0  0  0  0  0  0  0  0  0  0  0  0
   15.7942   -7.2762   11.3779 N   0  0  0  0  0  0  0  0  0  0  0  0
   14.7908   -7.8179   12.2926 C   0  0  0  0  0  0  0  0  0  0  0  0
   16.2475   -8.0690   10.2602 C   0  0  0  0  0  0  0  0  0  0  0  0
   17.3261   -7.6949    9.4352 C   0  0  0  0  0  0  0  0  0  0  0  0
   18.1388   -6.5552    9.5169 C   0  0  0  0  0  0  0  0  0  0  0  0
   19.1293   -6.5132    8.5300 C   0  0  0  0  0  0  0  0  0  0  0  0
   18.9848   -7.8995    7.5672 S   0  0  0  0  0  0  0  0  0  0  0  0
   17.6828   -8.5321    8.4000 C   0  0  0  0  0  0  0  0  0  0  0  0
   17.0425   -9.6966    8.1467 N   0  0  0  0  0  0  0  0  0  0  0  0
   16.0031  -10.0559    8.9479 C   0  0  0  0  0  0  0  0  0  0  0  0
   15.6201   -9.2527    9.9839 N   0  0  0  0  0  0  0  0  0  0  0  0
   14.7998   -9.7553   15.8826 C   0  0  0  0  0  0  0  0  0  0  0  0
   14.9387   -8.7314   16.9583 C   0  0  0  0  0  0  0  0  0  0  0  0
   14.1640   -7.6151   16.9319 N   0  0  0  0  0  0  0  0  0  0  0  0
   14.2872   -6.6588   17.8867 C   0  0  0  0  0  0  0  0  0  0  0  0
   13.4861   -5.5143   17.8406 C   0  0  0  0  0  0  0  0  0  0  0  0
   13.6163   -4.5300   18.8253 C   0  0  0  0  0  0  0  0  0  0  0  0
   14.5470   -4.6871   19.8576 C   0  0  0  0  0  0  0  0  0  0  0  0
   15.3520   -5.8294   19.9099 C   0  0  0  0  0  0  0  0  0  0  0  0
   15.2272   -6.8198   18.9256 C   0  0  0  0  0  0  0  0  0  0  0  0
   16.0106   -7.9817   18.9348 C   0  0  0  0  0  0  0  0  0  0  0  0
   16.8627   -8.1800   19.8425 O   0  0  0  0  0  0  0  0  0  0  0  0
   15.8503   -8.9070   17.9526 N   0  0  0  0  0  0  0  0  0  0  0  0
   16.4048   -9.7204   17.9608 H   0  0  0  0  0  0  0  0  0  0  0  0
  1  2  1  0  0  0
  2 20  1  0  0  0
 20 21  1  0  0  0
 21 22  2  0  0  0
 22 23  1  0  0  0
 23 24  2  0  0  0
 24 25  1  0  0  0
 25 26  2  0  0  0
 26 27  1  0  0  0
 27 28  2  0  0  0
 28 29  1  0  0  0
 29 30  2  0  0  0
 29 31  1  0  0  0
  2  3  1  0  0  0
  3  4  2  0  0  0
  3  5  1  0  0  0
  5  6  1  0  0  0
  6  7  1  0  0  0
  7  8  1  0  0  0
  8  9  1  0  0  0
  9 10  1  0  0  0
  9 11  1  0  0  0
 11 12  2  0  0  0
 12 13  1  0  0  0
 13 14  2  0  0  0
 14 15  1  0  0  0
 15 16  1  0  0  0
 16 17  2  0  0  0
 17 18  1  0  0  0
 18 19  2  0  0  0
 31 21  1  0  0  0
 10  5  1  0  0  0
 19 11  1  0  0  0
 28 23  1  0  0  0
 16 12  1  0  0  0
 31 32  1  0  0  0
M  END
>  <minimizedAffinity>
35.92785

>  <minimizedRMSD>
0.96343

$$$$
CSSS00160802783 LN00385038 MCULE-6353033677 MolPort-035-700-726 PubChem-135639651


 41 45  0  0  0  0  0  0  0  0999 V2000
   16.1377  -12.4453    9.5441 C   0  0  0  0  0  0  0  0  0  0  0  0
   16.4019  -11.0713    8.9712 C   0  0  0  0  0  0  0  0  0  0  0  0
   15.5060  -10.0031    9.1402 C   0  0  0  0  0  0  0  0  0  0  0  0
   14.3180  -10.1698    9.8425 O   0  0  0  0  0  0  0  0  0  0  0  0
   15.7991   -8.7857    8.6209 N   0  0  0  0  0  0  0  0  0  0  0  0
   16.9508   -8.5671    7.9393 C   0  0  0  0  0  0  0  0  0  0  0  0
   17.2121   -7.2929    7.4304 C   0  0  0  0  0  0  0  0  0  0  0  0
   18.3957   -7.0623    6.7318 C   0  0  0  0  0  0  0  0  0  0  0  0
   19.3049   -8.1016    6.5484 C   0  0  0  0  0  0  0  0  0  0  0  0
   19.0156   -9.3634    7.0710 C   0  0  0  0  0  0  0  0  0  0  0  0
   17.8545   -9.5892    7.7565 N   0  0  0  0  0  0  0  0  0  0  0  0
   17.5910  -10.8340    8.2624 C   0  0  0  0  0  0  0  0  0  0  0  0
   18.4166  -11.7772    8.0989 O   0  0  0  0  0  0  0  0  0  0  0  0
   14.1025  -11.0056   10.2070 H   0  0  0  0  0  0  0  0  0  0  0  0
   15.1863  -13.2572    8.7199 C   0  0  0  0  0  0  0  0  0  0  0  0
   14.6768  -12.7054    7.5372 C   0  0  0  0  0  0  0  0  0  0  0  0
   13.7895  -13.4349    6.7394 C   0  0  0  0  0  0  0  0  0  0  0  0
   13.4028  -14.7217    7.1239 C   0  0  0  0  0  0  0  0  0  0  0  0
   12.5423  -15.4380    6.3522 N   0  0  0  0  0  0  0  0  0  0  0  0
   12.1526  -16.6945    6.7013 C   0  0  0  0  0  0  0  0  0  0  0  0
   12.6325  -17.2806    7.8765 C   0  0  0  0  0  0  0  0  0  0  0  0
   13.5154  -16.5655    8.6892 C   0  0  0  0  0  0  0  0  0  0  0  0
   13.9096  -15.2802    8.3171 C   0  0  0  0  0  0  0  0  0  0  0  0
   14.7977  -14.5485    9.1085 C   0  0  0  0  0  0  0  0  0  0  0  0
   15.7920  -12.4501   11.0327 C   0  0  0  0  0  0  0  0  0  0  0  0
   17.6082  -12.5923   12.7819 N   0  0  0  0  0  0  0  0  0  0  0  0
   16.8822  -11.8164   11.8267 C   0  0  0  0  0  0  0  0  0  0  0  0
   17.1769  -10.6083   11.6249 O   0  0  0  0  0  0  0  0  0  0  0  0
   17.2820  -13.4936   13.0066 H   0  0  0  0  0  0  0  0  0  0  0  0
   18.8113  -12.0998   13.4350 C   0  0  0  0  0  0  0  0  0  0  0  0
   18.9520  -10.6056   13.1886 C   0  0  0  0  0  0  0  0  0  0  0  0
   19.1103   -7.8184   18.1309 O   0  0  0  0  0  0  0  0  0  0  0  0
   19.0649   -8.4997   16.9214 C   0  0  0  0  0  0  0  0  0  0  0  0
   20.2134   -8.5776   16.1278 C   0  0  0  0  0  0  0  0  0  0  0  0
   20.1764   -9.2587   14.9077 C   0  0  0  0  0  0  0  0  0  0  0  0
   18.9910   -9.8672   14.4799 C   0  0  0  0  0  0  0  0  0  0  0  0
   17.8441   -9.7955   15.2769 C   0  0  0  0  0  0  0  0  0  0  0  0
   17.8781   -9.1113   16.4954 C   0  0  0  0  0  0  0  0  0  0  0  0
   16.7316   -9.0407   17.2763 O   0  0  0  0  0  0  0  0  0  0  0  0
   19.9069   -7.4117   18.4099 H   0  0  0  0  0  0  0  0  0  0  0  0
   15.9411   -9.4517   16.9862 H   0  0  0  0  0  0  0  0  0  0  0  0
 32 33  1  0  0  0
 33 34  2  0  0  0
 34 35  1  0  0  0
 35 36  2  0  0  0
 36 31  1  0  0  0
 36 37  1  0  0  0
 31 30  1  0  0  0
 30 26  1  0  0  0
 26 27  1  0  0  0
 27 28  2  0  0  0
 27 25  1  0  0  0
  1 25  1  0  0  0
  1 15  1  0  0  0
  1  2  1  0  0  0
 15 16  2  0  0  0
 16 17  1  0  0  0
 17 18  2  0  0  0
 18 19  1  0  0  0
 19 20  2  0  0  0
 20 21  1  0  0  0
 21 22  2  0  0  0
 22 23  1  0  0  0
 23 24  2  0  0  0
 23 18  1  0  0  0
 24 15  1  0  0  0
  2  3  2  0  0  0
  3  4  1  0  0  0
  3  5  1  0  0  0
  5  6  2  0  0  0
  6  7  1  0  0  0
  7  8  2  0  0  0
  8  9  1  0  0  0
  9 10  2  0  0  0
 10 11  1  0  0  0
 11 12  1  0  0  0
 11  6  1  0  0  0
 12 13  2  0  0  0
 12  2  1  0  0  0
 37 38  2  0  0  0
 38 39  1  0  0  0
 38 33  1  0  0  0
 32 40  1  0  0  0
 26 29  1  0  0  0
  4 14  1  0  0  0
 39 41  1  0  0  0
M  END
>  <minimizedAffinity>
37.59313

>  <minimizedRMSD>
3.15653

$$$$
263586055 CSSS00160767863 MolPort-039-195-126 PubChem-121541784 ZINC000263586055


 39 43  0  0  0  0  0  0  0  0999 V2000
   16.1876   -7.7762   13.2550 C   0  0  0  0  0  0  0  0  0  0  0  0
   14.7052   -7.9350   13.4149 C   0  0  0  0  0  0  0  0  0  0  0  0
   17.0316   -7.9258   14.3070 C   0  0  0  0  0  0  0  0  0  0  0  0
   18.5253   -7.8536   14.1580 C   0  0  0  0  0  0  0  0  0  0  0  0
   19.0811   -7.7558   13.0319 O   0  0  0  0  0  0  0  0  0  0  0  0
   19.3705   -7.8387   15.3671 C   0  0  0  0  0  0  0  0  0  0  0  0
   18.8481   -8.2369   16.5269 C   0  0  0  0  0  0  0  0  0  0  0  0
   19.4194   -7.9680   17.7621 O   0  0  0  0  0  0  0  0  0  0  0  0
   18.4328   -8.1826   18.7128 C   0  0  0  0  0  0  0  0  0  0  0  0
   17.2656   -8.6453   18.1284 C   0  0  0  0  0  0  0  0  0  0  0  0
   16.1617   -8.9946   18.9088 C   0  0  0  0  0  0  0  0  0  0  0  0
   15.0239   -9.5390   18.3217 O   0  0  0  0  0  0  0  0  0  0  0  0
   16.2302   -8.8006   20.2993 C   0  0  0  0  0  0  0  0  0  0  0  0
   15.0536   -9.1446   21.1523 C   0  0  0  0  0  0  0  0  0  0  0  0
   17.4092   -8.2954   20.8943 C   0  0  0  0  0  0  0  0  0  0  0  0
   17.4393   -8.1030   22.2733 O   0  0  0  0  0  0  0  0  0  0  0  0
   18.5442   -7.9834   20.1000 C   0  0  0  0  0  0  0  0  0  0  0  0
   17.4867   -8.8580   16.6574 C   0  0  0  0  0  0  0  0  0  0  0  0
   17.5640  -10.3470   16.3492 C   0  0  0  0  0  0  0  0  0  0  0  0
   16.5426   -8.1753   15.7009 C   0  0  0  0  0  0  0  0  0  0  0  0
   15.3938   -7.8162   16.0768 O   0  0  0  0  0  0  0  0  0  0  0  0
   14.9896   -9.6638   17.3937 H   0  0  0  0  0  0  0  0  0  0  0  0
   16.6871   -8.3108   22.7918 H   0  0  0  0  0  0  0  0  0  0  0  0
   19.8028   -7.4715   20.7088 C   0  0  0  0  0  0  0  0  0  0  0  0
   20.8819   -6.8600   19.8811 C   0  0  0  0  0  0  0  0  0  0  0  0
   19.9847   -7.5398   21.9531 O   0  0  0  0  0  0  0  0  0  0  0  0
   16.7012   -7.4889   11.9488 N   0  0  0  0  0  0  0  0  0  0  0  0
   17.3990   -6.7997   11.8623 H   0  0  0  0  0  0  0  0  0  0  0  0
   15.0592   -7.4217   10.1568 C   0  0  0  0  0  0  0  0  0  0  0  0
   16.2442   -8.1636   10.7435 C   0  0  0  0  0  0  0  0  0  0  0  0
   17.3593   -8.2500    9.7509 C   0  0  0  0  0  0  0  0  0  0  0  0
   18.2137   -9.2949    9.6716 N   0  0  0  0  0  0  0  0  0  0  0  0
   19.0789   -9.0310    8.6953 N   0  0  0  0  0  0  0  0  0  0  0  0
   18.7322   -7.8280    8.2025 C   0  0  0  0  0  0  0  0  0  0  0  0
   19.3575   -7.1380    7.1682 C   0  0  0  0  0  0  0  0  0  0  0  0
   18.8235   -5.8846    6.8221 C   0  0  0  0  0  0  0  0  0  0  0  0
   17.7040   -5.3662    7.5050 C   0  0  0  0  0  0  0  0  0  0  0  0
   17.1196   -6.1121    8.5395 C   0  0  0  0  0  0  0  0  0  0  0  0
   17.6696   -7.3164    8.8356 N   0  0  0  0  0  0  0  0  0  0  0  0
 30 29  1  0  0  0
 30 27  1  0  0  0
 27  1  1  0  0  0
  1  2  1  0  0  0
  1  3  2  0  0  0
  3  4  1  0  0  0
  4  5  2  0  0  0
  4  6  1  0  0  0
  6  7  2  0  0  0
  7  8  1  0  0  0
  8  9  1  0  0  0
  9 10  2  0  0  0
 10 11  1  0  0  0
 11 12  1  0  0  0
 11 13  2  0  0  0
 13 14  1  0  0  0
 13 15  1  0  0  0
 15 16  1  0  0  0
 15 17  2  0  0  0
 17 24  1  0  0  0
 24 25  1  0  0  0
 24 26  2  0  0  0
 10 18  1  0  0  0
 18 19  1  0  0  0
 18 20  1  0  0  0
 20 21  2  0  0  0
 30 31  1  0  0  0
 31 32  2  0  0  0
 32 33  1  0  0  0
 33 34  2  0  0  0
 34 35  1  0  0  0
 35 36  2  0  0  0
 36 37  1  0  0  0
 37 38  2  0  0  0
 38 39  1  0  0  0
 20  3  1  0  0  0
 39 31  1  0  0  0
 18  7  1  0  0  0
 39 34  1  0  0  0
 17  9  1  0  0  0
 27 28  1  0  0  0
 12 22  1  0  0  0
 16 23  1  0  0  0
M  END
>  <minimizedAffinity>
54.49246

>  <minimizedRMSD>
1.57657

$$$$
