CHEMBL1172720 PubChem-46837263


 32 35  0  0  0  0  0  0  0  0999 V2000
   18.8728  -11.8315   13.9610 C   0  0  0  0  0  0  0  0  0  0  0  0
   18.0161  -10.8900   14.7395 C   0  0  0  0  0  0  0  0  0  0  0  0
   18.0361  -10.9644   16.1351 C   0  0  0  0  0  0  0  0  0  0  0  0
   17.2485  -10.0997   16.8989 C   0  0  0  0  0  0  0  0  0  0  0  0
   16.4303   -9.1486   16.2752 C   0  0  0  0  0  0  0  0  0  0  0  0
   16.4112   -9.0748   14.8754 C   0  0  0  0  0  0  0  0  0  0  0  0
   17.1968   -9.9372   14.1040 C   0  0  0  0  0  0  0  0  0  0  0  0
   15.6002   -8.2366   17.0818 C   0  0  0  0  0  0  0  0  0  0  0  0
   14.8790   -7.3757   16.5081 O   0  0  0  0  0  0  0  0  0  0  0  0
   15.6195   -8.3366   18.5142 N   0  0  0  0  0  0  0  0  0  0  0  0
   16.2019   -9.0309   18.8990 H   0  0  0  0  0  0  0  0  0  0  0  0
   14.8805   -7.5325   19.4436 C   0  0  0  0  0  0  0  0  0  0  0  0
   13.7137   -6.8488   19.0717 C   0  0  0  0  0  0  0  0  0  0  0  0
   13.0255   -6.0676   20.0031 C   0  0  0  0  0  0  0  0  0  0  0  0
   13.4965   -5.9682   21.3144 C   0  0  0  0  0  0  0  0  0  0  0  0
   14.6510   -6.6601   21.7058 C   0  0  0  0  0  0  0  0  0  0  0  0
   15.3457   -7.4263   20.7586 C   0  0  0  0  0  0  0  0  0  0  0  0
   15.1876   -6.5113   23.0998 C   0  0  0  0  0  0  0  0  0  0  0  0
   16.3127   -5.7086   23.0726 F   0  0  0  0  0  0  0  0  0  0  0  0
   14.2381   -5.9314   23.9233 F   0  0  0  0  0  0  0  0  0  0  0  0
   15.5270   -7.7479   23.6210 F   0  0  0  0  0  0  0  0  0  0  0  0
   17.1448   -9.8238   12.6692 C   0  0  0  0  0  0  0  0  0  0  0  0
   17.1026   -9.7289   11.4681 C   0  0  0  0  0  0  0  0  0  0  0  0
   17.0547   -9.6148   10.0362 C   0  0  0  0  0  0  0  0  0  0  0  0
   16.1693  -10.2595    9.1833 C   0  0  0  0  0  0  0  0  0  0  0  0
   16.4495   -9.8901    7.9034 N   0  0  0  0  0  0  0  0  0  0  0  0
   17.4886   -9.0395    8.0238 C   0  0  0  0  0  0  0  0  0  0  0  0
   18.1478   -8.3822    6.9921 C   0  0  0  0  0  0  0  0  0  0  0  0
   19.2105   -7.5383    7.3527 C   0  0  0  0  0  0  0  0  0  0  0  0
   19.5641   -7.3893    8.7083 C   0  0  0  0  0  0  0  0  0  0  0  0
   18.8700   -8.0677    9.6661 N   0  0  0  0  0  0  0  0  0  0  0  0
   17.8675   -8.8600    9.2917 N   0  0  0  0  0  0  0  0  0  0  0  0
  1  2  1  0  0  0
  2  3  2  0  0  0
  3  4  1  0  0  0
  4  5  2  0  0  0
  5  8  1  0  0  0
  5  6  1  0  0  0
  8  9  2  0  0  0
  8 10  1  0  0  0
 10 12  1  0  0  0
 12 13  2  0  0  0
 13 14  1  0  0  0
 14 15  2  0  0  0
 15 16  1  0  0  0
 16 18  1  0  0  0
 16 17  2  0  0  0
 18 19  1  0  0  0
 18 20  1  0  0  0
 18 21  1  0  0  0
 17 12  1  0  0  0
  6  7  2  0  0  0
  7 22  1  0  0  0
  7  2  1  0  0  0
 22 23  3  0  0  0
 23 24  1  0  0  0
 24 25  2  0  0  0
 25 26  1  0  0  0
 26 27  2  0  0  0
 27 28  1  0  0  0
 28 29  2  0  0  0
 29 30  1  0  0  0
 30 31  2  0  0  0
 31 32  1  0  0  0
 32 24  1  0  0  0
 32 27  1  0  0  0
 10 11  1  0  0  0
M  END
>  <minimizedAffinity>
-12.39303

>  <minimizedRMSD>
0.50603

$$$$
CHEMBL4160549 PubChem-145956669


 30 34  0  0  0  0  0  0  0  0999 V2000
   17.4186   -7.5443   12.0950 C   0  0  0  0  0  0  0  0  0  0  0  0
   16.7366   -6.8337   13.1016 C   0  0  0  0  0  0  0  0  0  0  0  0
   16.5109   -7.4787   14.3143 C   0  0  0  0  0  0  0  0  0  0  0  0
   16.9384   -8.7543   14.5434 C   0  0  0  0  0  0  0  0  0  0  0  0
   17.6394   -9.4862   13.5874 C   0  0  0  0  0  0  0  0  0  0  0  0
   17.8771   -8.8637   12.3492 C   0  0  0  0  0  0  0  0  0  0  0  0
   16.6094   -9.1052   15.7933 N   0  0  0  0  0  0  0  0  0  0  0  0
   15.9778   -8.0085   16.2894 C   0  0  0  0  0  0  0  0  0  0  0  0
   15.9103   -6.9758   15.4092 N   0  0  0  0  0  0  0  0  0  0  0  0
   17.0220  -10.3106   16.4970 C   0  0  0  0  0  0  0  0  0  0  0  0
   15.5042   -7.8874   17.6364 N   0  0  0  0  0  0  0  0  0  0  0  0
   15.6650   -7.0317   18.0960 H   0  0  0  0  0  0  0  0  0  0  0  0
   14.8169   -8.9069   18.3695 C   0  0  0  0  0  0  0  0  0  0  0  0
   14.1800   -9.9729   17.7157 C   0  0  0  0  0  0  0  0  0  0  0  0
   13.4803  -10.9335   18.4512 C   0  0  0  0  0  0  0  0  0  0  0  0
   13.4001  -10.8259   19.8424 C   0  0  0  0  0  0  0  0  0  0  0  0
   14.0170   -9.7559   20.4969 C   0  0  0  0  0  0  0  0  0  0  0  0
   14.7185   -8.7962   19.7607 C   0  0  0  0  0  0  0  0  0  0  0  0
   12.8181  -12.0659   17.7534 C   0  0  0  0  0  0  0  0  0  0  0  0
   17.6685   -6.9040   10.8745 O   0  0  0  0  0  0  0  0  0  0  0  0
   18.9233   -7.0247    8.8412 N   0  0  0  0  0  0  0  0  0  0  0  0
   19.2417   -7.6135    7.6438 C   0  0  0  0  0  0  0  0  0  0  0  0
   18.6064   -8.7539    7.2394 N   0  0  0  0  0  0  0  0  0  0  0  0
   17.6627   -9.2770    8.0584 C   0  0  0  0  0  0  0  0  0  0  0  0
   17.3294   -8.7153    9.2463 C   0  0  0  0  0  0  0  0  0  0  0  0
   17.9783   -7.5558    9.6734 C   0  0  0  0  0  0  0  0  0  0  0  0
   16.2906   -9.4798    9.7522 C   0  0  0  0  0  0  0  0  0  0  0  0
   16.0529  -10.4763    8.8566 N   0  0  0  0  0  0  0  0  0  0  0  0
   16.8897  -10.3438    7.8343 N   0  0  0  0  0  0  0  0  0  0  0  0
   16.9120  -11.2135    6.6716 C   0  0  0  0  0  0  0  0  0  0  0  0
 21 22  2  0  0  0
 22 23  1  0  0  0
 23 24  2  0  0  0
 24 25  1  0  0  0
 25 26  2  0  0  0
 26 20  1  0  0  0
 20  1  1  0  0  0
  1  2  2  0  0  0
  2  3  1  0  0  0
  3  4  2  0  0  0
  4  5  1  0  0  0
  5  6  2  0  0  0
  4  7  1  0  0  0
  7  8  1  0  0  0
  8  9  2  0  0  0
  8 11  1  0  0  0
 11 13  1  0  0  0
 13 14  2  0  0  0
 14 15  1  0  0  0
 15 16  2  0  0  0
 16 17  1  0  0  0
 17 18  2  0  0  0
 15 19  1  0  0  0
  7 10  1  0  0  0
 25 27  1  0  0  0
 27 28  2  0  0  0
 28 29  1  0  0  0
 29 30  1  0  0  0
 26 21  1  0  0  0
  6  1  1  0  0  0
 18 13  1  0  0  0
 29 24  1  0  0  0
  9  3  1  0  0  0
 11 12  1  0  0  0
M  END
>  <minimizedAffinity>
33.18160

>  <minimizedRMSD>
0.50850

$$$$
CHEMBL5080347 PubChem-72949733


 34 39  0  0  0  0  0  0  0  0999 V2000
   19.2734  -11.4874   13.9525 C   0  0  0  0  0  0  0  0  0  0  0  0
   18.3046  -10.6972   14.7673 C   0  0  0  0  0  0  0  0  0  0  0  0
   17.3308   -9.8752   14.1678 C   0  0  0  0  0  0  0  0  0  0  0  0
   16.4434   -9.1531   14.9722 C   0  0  0  0  0  0  0  0  0  0  0  0
   16.5138   -9.2395   16.3686 C   0  0  0  0  0  0  0  0  0  0  0  0
   17.4846  -10.0595   16.9577 C   0  0  0  0  0  0  0  0  0  0  0  0
   18.3744  -10.7837   16.1607 C   0  0  0  0  0  0  0  0  0  0  0  0
   15.5777   -8.4743   17.2080 C   0  0  0  0  0  0  0  0  0  0  0  0
   14.4375   -7.9152   16.7196 N   0  0  0  0  0  0  0  0  0  0  0  0
   13.9111   -7.3310   17.8047 C   0  0  0  0  0  0  0  0  0  0  0  0
   14.7101   -7.5390   18.8848 C   0  0  0  0  0  0  0  0  0  0  0  0
   15.7815   -8.2643   18.5366 N   0  0  0  0  0  0  0  0  0  0  0  0
   14.3962   -7.0391   20.1451 C   0  0  0  0  0  0  0  0  0  0  0  0
   13.2035   -6.2937   20.2814 C   0  0  0  0  0  0  0  0  0  0  0  0
   12.3780   -6.0823   19.1469 C   0  0  0  0  0  0  0  0  0  0  0  0
   12.7281   -6.6042   17.8882 C   0  0  0  0  0  0  0  0  0  0  0  0
   16.5288   -8.5688   19.1007 H   0  0  0  0  0  0  0  0  0  0  0  0
   12.8300   -5.7536   21.5591 N   0  0  0  0  0  0  0  0  0  0  0  0
   11.7224   -5.0401   21.8327 C   0  0  0  0  0  0  0  0  0  0  0  0
   11.7851   -4.7363   23.1732 C   0  0  0  0  0  0  0  0  0  0  0  0
   12.9005   -5.2431   23.7304 N   0  0  0  0  0  0  0  0  0  0  0  0
   13.5247   -5.8653   22.7101 C   0  0  0  0  0  0  0  0  0  0  0  0
   10.7680   -3.9543   23.9240 C   0  0  0  0  0  0  0  0  0  0  0  0
   17.2217   -9.7557   12.7369 C   0  0  0  0  0  0  0  0  0  0  0  0
   17.1319   -9.6567   11.5389 C   0  0  0  0  0  0  0  0  0  0  0  0
   17.0272   -9.5379   10.1104 C   0  0  0  0  0  0  0  0  0  0  0  0
   16.0796  -10.1429    9.2965 C   0  0  0  0  0  0  0  0  0  0  0  0
   16.3196   -9.7831    8.0059 N   0  0  0  0  0  0  0  0  0  0  0  0
   17.3979   -8.9776    8.0812 C   0  0  0  0  0  0  0  0  0  0  0  0
   17.8379   -8.8161    9.3316 N   0  0  0  0  0  0  0  0  0  0  0  0
   18.8882   -8.0675    9.6622 N   0  0  0  0  0  0  0  0  0  0  0  0
   19.5682   -7.4169    8.6753 C   0  0  0  0  0  0  0  0  0  0  0  0
   19.1502   -7.5484    7.3363 C   0  0  0  0  0  0  0  0  0  0  0  0
   18.0389   -8.3467    7.0220 C   0  0  0  0  0  0  0  0  0  0  0  0
  1  2  1  0  0  0
  2  3  2  0  0  0
  3  4  1  0  0  0
  3 24  1  0  0  0
  4  5  2  0  0  0
  5  6  1  0  0  0
  5  8  1  0  0  0
  6  7  2  0  0  0
  7  2  1  0  0  0
  8  9  2  0  0  0
  9 10  1  0  0  0
 10 11  2  0  0  0
 11 12  1  0  0  0
 11 13  1  0  0  0
 12  8  1  0  0  0
 13 14  2  0  0  0
 14 15  1  0  0  0
 14 18  1  0  0  0
 15 16  2  0  0  0
 16 10  1  0  0  0
 18 19  1  0  0  0
 19 20  2  0  0  0
 20 21  1  0  0  0
 20 23  1  0  0  0
 21 22  2  0  0  0
 22 18  1  0  0  0
 24 25  3  0  0  0
 25 26  1  0  0  0
 26 27  2  0  0  0
 27 28  1  0  0  0
 28 29  2  0  0  0
 29 30  1  0  0  0
 30 31  1  0  0  0
 30 26  1  0  0  0
 31 32  2  0  0  0
 32 33  1  0  0  0
 33 34  2  0  0  0
 34 29  1  0  0  0
 12 17  1  0  0  0
M  END
>  <minimizedAffinity>
-12.70531

>  <minimizedRMSD>
0.55382

$$$$
CHEMBL2336032 PubChem-71624675 ZINC000095590119


 27 30  0  0  0  0  0  0  0  0999 V2000
   18.6062  -12.0748   13.9335 C   0  0  0  0  0  0  0  0  0  0  0  0
   17.8369  -11.0601   14.7113 C   0  0  0  0  0  0  0  0  0  0  0  0
   17.6925  -11.2411   16.0898 C   0  0  0  0  0  0  0  0  0  0  0  0
   16.9791  -10.3130   16.8522 C   0  0  0  0  0  0  0  0  0  0  0  0
   16.4009   -9.1912   16.2442 C   0  0  0  0  0  0  0  0  0  0  0  0
   16.5460   -9.0105   14.8617 C   0  0  0  0  0  0  0  0  0  0  0  0
   17.2588   -9.9353   14.0918 C   0  0  0  0  0  0  0  0  0  0  0  0
   15.6480   -8.2134   17.0487 C   0  0  0  0  0  0  0  0  0  0  0  0
   14.9122   -7.3608   16.4799 O   0  0  0  0  0  0  0  0  0  0  0  0
   15.7533   -8.2280   18.4761 N   0  0  0  0  0  0  0  0  0  0  0  0
   16.3508   -8.8867   18.8984 H   0  0  0  0  0  0  0  0  0  0  0  0
   15.0139   -7.3094   19.3291 C   0  0  0  0  0  0  0  0  0  0  0  0
   13.5592   -7.7424   19.4335 C   0  0  0  0  0  0  0  0  0  0  0  0
   13.2941   -8.0424   20.8949 C   0  0  0  0  0  0  0  0  0  0  0  0
   14.3930   -7.3451   21.6611 C   0  0  0  0  0  0  0  0  0  0  0  0
   15.5842   -7.3524   20.7324 C   0  0  0  0  0  0  0  0  0  0  0  0
   17.3817   -9.7081   12.6748 C   0  0  0  0  0  0  0  0  0  0  0  0
   17.4849   -9.5187   11.4885 C   0  0  0  0  0  0  0  0  0  0  0  0
   17.6083   -9.2941   10.0766 C   0  0  0  0  0  0  0  0  0  0  0  0
   16.7320   -9.9251    9.1722 C   0  0  0  0  0  0  0  0  0  0  0  0
   16.8513   -9.7108    7.8288 N   0  0  0  0  0  0  0  0  0  0  0  0
   17.8283   -8.8807    7.3881 C   0  0  0  0  0  0  0  0  0  0  0  0
   18.1171   -8.5329    6.0884 C   0  0  0  0  0  0  0  0  0  0  0  0
   19.2055   -7.6652    6.2494 C   0  0  0  0  0  0  0  0  0  0  0  0
   19.5162   -7.5286    7.5627 N   0  0  0  0  0  0  0  0  0  0  0  0
   18.6647   -8.2770    8.2327 N   0  0  0  0  0  0  0  0  0  0  0  0
   18.6032   -8.4443    9.5749 C   0  0  0  0  0  0  0  0  0  0  0  0
  1  2  1  0  0  0
  2  3  2  0  0  0
  3  4  1  0  0  0
  4  5  2  0  0  0
  5  8  1  0  0  0
  5  6  1  0  0  0
  8  9  2  0  0  0
  8 10  1  0  0  0
 10 12  1  0  0  0
 12 13  1  0  0  0
 13 14  1  0  0  0
 14 15  1  0  0  0
 15 16  1  0  0  0
 16 12  1  0  0  0
  6  7  2  0  0  0
  7 17  1  0  0  0
  7  2  1  0  0  0
 17 18  3  0  0  0
 18 19  1  0  0  0
 19 20  1  0  0  0
 20 21  2  0  0  0
 21 22  1  0  0  0
 22 23  2  0  0  0
 23 24  1  0  0  0
 24 25  2  0  0  0
 25 26  1  0  0  0
 26 27  1  0  0  0
 26 22  1  0  0  0
 27 19  2  0  0  0
 10 11  1  0  0  0
M  END
>  <minimizedAffinity>
-11.23394

>  <minimizedRMSD>
0.55524

$$$$
CHEMBL4207577 PubChem-138377179


 27 29  0  0  0  0  0  0  0  0999 V2000
   16.8311   -9.8681   13.8922 C   0  0  0  0  0  0  0  0  0  0  0  0
   16.2439   -9.1265   14.9279 C   0  0  0  0  0  0  0  0  0  0  0  0
   16.4839   -9.4291   16.2713 C   0  0  0  0  0  0  0  0  0  0  0  0
   17.3349  -10.5004   16.5942 C   0  0  0  0  0  0  0  0  0  0  0  0
   17.9375  -11.2359   15.5729 C   0  0  0  0  0  0  0  0  0  0  0  0
   17.6987  -10.9346   14.2293 C   0  0  0  0  0  0  0  0  0  0  0  0
   18.5717  -11.8875   13.0368 Cl  0  0  0  0  0  0  0  0  0  0  0  0
   17.6874  -10.9498   18.2562 Cl  0  0  0  0  0  0  0  0  0  0  0  0
   15.7032   -8.4546   17.5144 S   0  0  0  0  0  0  0  0  0  0  0  0
   14.9311   -7.3348   16.8745 O   0  0  0  0  0  0  0  0  0  0  0  0
   16.7436   -7.8701   18.4274 O   0  0  0  0  0  0  0  0  0  0  0  0
   14.6125   -9.4377   18.4245 N   0  0  0  0  0  0  0  0  0  0  0  0
   13.9086   -9.8319   17.8004 H   0  0  0  0  0  0  0  0  0  0  0  0
   14.1551   -8.8684   19.1366 H   0  0  0  0  0  0  0  0  0  0  0  0
   16.9395  -10.2920   11.3957 N   0  0  0  0  0  0  0  0  0  0  0  0
   16.5106   -9.4844   12.4973 C   0  0  0  0  0  0  0  0  0  0  0  0
   15.7774   -8.4805   12.2849 O   0  0  0  0  0  0  0  0  0  0  0  0
   17.2568  -11.2039   11.5876 H   0  0  0  0  0  0  0  0  0  0  0  0
   16.9355   -9.8632   10.0570 N   0  0  0  0  0  0  0  0  0  0  0  0
   16.1317  -10.3533    9.0856 C   0  0  0  0  0  0  0  0  0  0  0  0
   16.4320   -9.8359    7.8636 N   0  0  0  0  0  0  0  0  0  0  0  0
   17.4747   -9.0195    8.1104 C   0  0  0  0  0  0  0  0  0  0  0  0
   17.7940   -9.0399    9.4361 C   0  0  0  0  0  0  0  0  0  0  0  0
   18.8956   -8.3520    9.9446 C   0  0  0  0  0  0  0  0  0  0  0  0
   19.6551   -7.5898    9.0383 C   0  0  0  0  0  0  0  0  0  0  0  0
   19.3112   -7.5506    7.6683 C   0  0  0  0  0  0  0  0  0  0  0  0
   18.2087   -8.2806    7.1859 C   0  0  0  0  0  0  0  0  0  0  0  0
 19 20  1  0  0  0
 20 21  2  0  0  0
 21 22  1  0  0  0
 22 23  2  0  0  0
 23 24  1  0  0  0
 24 25  2  0  0  0
 25 26  1  0  0  0
 26 27  2  0  0  0
 19 15  1  0  0  0
 15 16  1  0  0  0
 16 17  2  0  0  0
 16  1  1  0  0  0
  1  2  2  0  0  0
  2  3  1  0  0  0
  3  9  1  0  0  0
  9 10  2  0  0  0
  9 11  2  0  0  0
  9 12  1  0  0  0
  3  4  2  0  0  0
  4  5  1  0  0  0
  5  6  2  0  0  0
  6  7  1  0  0  0
  4  8  1  0  0  0
 23 19  1  0  0  0
  6  1  1  0  0  0
 27 22  1  0  0  0
 15 18  1  0  0  0
 12 13  1  0  0  0
 12 14  1  0  0  0
M  END
>  <minimizedAffinity>
-4.50514

>  <minimizedRMSD>
0.55983

$$$$
CHEMBL4207577 PubChem-138377179


 27 29  0  0  0  0  0  0  0  0999 V2000
   16.8311   -9.8682   13.8921 C   0  0  0  0  0  0  0  0  0  0  0  0
   16.2439   -9.1266   14.9278 C   0  0  0  0  0  0  0  0  0  0  0  0
   16.4838   -9.4293   16.2713 C   0  0  0  0  0  0  0  0  0  0  0  0
   17.3348  -10.5006   16.5942 C   0  0  0  0  0  0  0  0  0  0  0  0
   17.9374  -11.2361   15.5728 C   0  0  0  0  0  0  0  0  0  0  0  0
   17.6987  -10.9348   14.2293 C   0  0  0  0  0  0  0  0  0  0  0  0
   18.5717  -11.8877   13.0368 Cl  0  0  0  0  0  0  0  0  0  0  0  0
   17.6874  -10.9500   18.2562 Cl  0  0  0  0  0  0  0  0  0  0  0  0
   15.7032   -8.4548   17.5143 S   0  0  0  0  0  0  0  0  0  0  0  0
   16.7437   -7.8703   18.4273 O   0  0  0  0  0  0  0  0  0  0  0  0
   14.9313   -7.3349   16.8744 O   0  0  0  0  0  0  0  0  0  0  0  0
   14.6124   -9.4377   18.4244 N   0  0  0  0  0  0  0  0  0  0  0  0
   15.1276  -10.2011   18.8627 H   0  0  0  0  0  0  0  0  0  0  0  0
   13.9005   -9.8209   17.8025 H   0  0  0  0  0  0  0  0  0  0  0  0
   16.9393  -10.2921   11.3956 N   0  0  0  0  0  0  0  0  0  0  0  0
   16.5106   -9.4845   12.4972 C   0  0  0  0  0  0  0  0  0  0  0  0
   15.7774   -8.4805   12.2848 O   0  0  0  0  0  0  0  0  0  0  0  0
   17.2566  -11.2041   11.5875 H   0  0  0  0  0  0  0  0  0  0  0  0
   16.9354   -9.8634   10.0569 N   0  0  0  0  0  0  0  0  0  0  0  0
   16.1317  -10.3535    9.0854 C   0  0  0  0  0  0  0  0  0  0  0  0
   16.4321   -9.8360    7.8635 N   0  0  0  0  0  0  0  0  0  0  0  0
   17.4747   -9.0197    8.1104 C   0  0  0  0  0  0  0  0  0  0  0  0
   17.7939   -9.0400    9.4361 C   0  0  0  0  0  0  0  0  0  0  0  0
   18.8954   -8.3520    9.9446 C   0  0  0  0  0  0  0  0  0  0  0  0
   19.6549   -7.5896    9.0384 C   0  0  0  0  0  0  0  0  0  0  0  0
   19.3110   -7.5505    7.6684 C   0  0  0  0  0  0  0  0  0  0  0  0
   18.2086   -8.2805    7.1860 C   0  0  0  0  0  0  0  0  0  0  0  0
 19 20  1  0  0  0
 20 21  2  0  0  0
 21 22  1  0  0  0
 22 23  2  0  0  0
 23 24  1  0  0  0
 24 25  2  0  0  0
 25 26  1  0  0  0
 26 27  2  0  0  0
 19 15  1  0  0  0
 15 16  1  0  0  0
 16 17  2  0  0  0
 16  1  1  0  0  0
  1  2  2  0  0  0
  2  3  1  0  0  0
  3  9  1  0  0  0
  9 10  2  0  0  0
  9 11  2  0  0  0
  9 12  1  0  0  0
  3  4  2  0  0  0
  4  5  1  0  0  0
  5  6  2  0  0  0
  6  7  1  0  0  0
  4  8  1  0  0  0
 23 19  1  0  0  0
  6  1  1  0  0  0
 27 22  1  0  0  0
 15 18  1  0  0  0
 12 13  1  0  0  0
 12 14  1  0  0  0
M  END
>  <minimizedAffinity>
-4.50524

>  <minimizedRMSD>
0.55996

$$$$
CHEMBL1346358 4130189 MCULE-2409713388 MolPort-000-009-890 PubChem-3167046 ZINC000004130189 ZINC04130189


 28 31  0  0  0  0  0  0  0  0999 V2000
   16.5929   -8.9131   13.7471 C   0  0  0  0  0  0  0  0  0  0  0  0
   17.1310   -7.6811   13.8160 N   0  0  0  0  0  0  0  0  0  0  0  0
   16.8349   -7.0854   12.6712 N   0  0  0  0  0  0  0  0  0  0  0  0
   16.1275   -7.9793   11.9553 C   0  0  0  0  0  0  0  0  0  0  0  0
   15.9763   -9.1064   12.6071 O   0  0  0  0  0  0  0  0  0  0  0  0
   16.7133  -10.1340   15.0486 S   0  0  0  0  0  0  0  0  0  0  0  0
   15.0715   -9.7269   15.7173 C   0  0  0  0  0  0  0  0  0  0  0  0
   15.6459   -8.8924   18.0275 N   0  0  0  0  0  0  0  0  0  0  0  0
   15.1748   -8.6156   16.7024 C   0  0  0  0  0  0  0  0  0  0  0  0
   14.8697   -7.4463   16.3477 O   0  0  0  0  0  0  0  0  0  0  0  0
   15.9144   -9.8206   18.2159 H   0  0  0  0  0  0  0  0  0  0  0  0
   14.9429   -4.0796   19.8960 Cl  0  0  0  0  0  0  0  0  0  0  0  0
   15.4690   -5.7405   20.0612 C   0  0  0  0  0  0  0  0  0  0  0  0
   16.0081   -6.1862   21.2707 C   0  0  0  0  0  0  0  0  0  0  0  0
   16.4269   -7.5133   21.4009 C   0  0  0  0  0  0  0  0  0  0  0  0
   16.3052   -8.3943   20.3218 C   0  0  0  0  0  0  0  0  0  0  0  0
   15.7662   -7.9562   19.1069 C   0  0  0  0  0  0  0  0  0  0  0  0
   15.3478   -6.6221   18.9832 C   0  0  0  0  0  0  0  0  0  0  0  0
   15.6049   -7.7229   10.5840 C   0  0  0  0  0  0  0  0  0  0  0  0
   16.3342   -8.5282    9.6165 N   0  0  0  0  0  0  0  0  0  0  0  0
   15.9831   -9.7502    9.2292 N   0  0  0  0  0  0  0  0  0  0  0  0
   16.8803  -10.2568    8.3831 N   0  0  0  0  0  0  0  0  0  0  0  0
   17.8292   -9.3115    8.2489 C   0  0  0  0  0  0  0  0  0  0  0  0
   18.9951   -9.3472    7.4901 C   0  0  0  0  0  0  0  0  0  0  0  0
   19.8296   -8.2126    7.5462 C   0  0  0  0  0  0  0  0  0  0  0  0
   19.4810   -7.0980    8.3466 C   0  0  0  0  0  0  0  0  0  0  0  0
   18.2926   -7.0999    9.1038 C   0  0  0  0  0  0  0  0  0  0  0  0
   17.4960   -8.2389    9.0164 C   0  0  0  0  0  0  0  0  0  0  0  0
 12 13  1  0  0  0
 13 14  2  0  0  0
 14 15  1  0  0  0
 15 16  2  0  0  0
 16 17  1  0  0  0
 17  8  1  0  0  0
 17 18  2  0  0  0
  8  9  1  0  0  0
  9 10  2  0  0  0
  9  7  1  0  0  0
  7  6  1  0  0  0
  6  1  1  0  0  0
  1  2  2  0  0  0
  2  3  1  0  0  0
  3  4  2  0  0  0
  4 19  1  0  0  0
  4  5  1  0  0  0
 19 20  1  0  0  0
 20 21  1  0  0  0
 21 22  2  0  0  0
 22 23  1  0  0  0
 23 24  2  0  0  0
 24 25  1  0  0  0
 25 26  2  0  0  0
 26 27  1  0  0  0
 27 28  2  0  0  0
 28 20  1  0  0  0
 28 23  1  0  0  0
  5  1  1  0  0  0
 18 13  1  0  0  0
  8 11  1  0  0  0
M  END
>  <minimizedAffinity>
18.93880

>  <minimizedRMSD>
0.56697

$$$$
CHEMBL5267533 PubChem-69676454


 32 35  0  0  0  0  0  0  0  0999 V2000
   15.8792   -6.8951   13.2308 C   0  0  0  0  0  0  0  0  0  0  0  0
   16.1332   -8.3428   13.6357 C   0  0  0  0  0  0  0  0  0  0  0  0
   17.5969   -8.7467   13.4043 C   0  0  0  0  0  0  0  0  0  0  0  0
   17.8269  -10.2074   13.8064 C   0  0  0  0  0  0  0  0  0  0  0  0
   17.3733  -10.4605   15.2417 C   0  0  0  0  0  0  0  0  0  0  0  0
   15.9075  -10.0720   15.4018 C   0  0  0  0  0  0  0  0  0  0  0  0
   15.7360   -8.6735   15.0176 N   0  0  0  0  0  0  0  0  0  0  0  0
   15.2870   -7.7292   16.0150 C   0  0  0  0  0  0  0  0  0  0  0  0
   15.4864   -6.4934   15.8781 O   0  0  0  0  0  0  0  0  0  0  0  0
   17.9967   -8.5373   12.0137 N   0  0  0  0  0  0  0  0  0  0  0  0
   18.7325   -7.9067   11.8396 H   0  0  0  0  0  0  0  0  0  0  0  0
   17.3939   -9.1847   10.8859 C   0  0  0  0  0  0  0  0  0  0  0  0
   16.3669  -10.0739   11.0395 N   0  0  0  0  0  0  0  0  0  0  0  0
   15.7911  -10.6891    9.9593 C   0  0  0  0  0  0  0  0  0  0  0  0
   16.2345  -10.4247    8.6942 N   0  0  0  0  0  0  0  0  0  0  0  0
   17.2523   -9.5433    8.5394 C   0  0  0  0  0  0  0  0  0  0  0  0
   17.8361   -8.9235    9.5949 C   0  0  0  0  0  0  0  0  0  0  0  0
   18.8250   -8.0988    9.1126 C   0  0  0  0  0  0  0  0  0  0  0  0
   18.7667   -8.2878    7.7276 C   0  0  0  0  0  0  0  0  0  0  0  0
   17.8011   -9.1746    7.3750 N   0  0  0  0  0  0  0  0  0  0  0  0
   17.5595   -9.4775    6.4699 H   0  0  0  0  0  0  0  0  0  0  0  0
   14.6363   -8.2039   17.2722 C   0  0  0  0  0  0  0  0  0  0  0  0
   15.6467   -8.4029   18.3002 N   0  0  0  0  0  0  0  0  0  0  0  0
   16.5870   -8.2131   18.0788 H   0  0  0  0  0  0  0  0  0  0  0  0
   15.3343   -8.8617   19.6169 C   0  0  0  0  0  0  0  0  0  0  0  0
   16.3686   -9.0388   20.5418 C   0  0  0  0  0  0  0  0  0  0  0  0
   16.0876   -9.4885   21.8355 C   0  0  0  0  0  0  0  0  0  0  0  0
   14.7692   -9.7634   22.2096 C   0  0  0  0  0  0  0  0  0  0  0  0
   13.7315   -9.5886   21.2900 C   0  0  0  0  0  0  0  0  0  0  0  0
   14.0121   -9.1390   19.9964 C   0  0  0  0  0  0  0  0  0  0  0  0
   12.0806   -9.9328   21.7574 Cl  0  0  0  0  0  0  0  0  0  0  0  0
   17.3871   -9.7076   22.9868 Cl  0  0  0  0  0  0  0  0  0  0  0  0
  2  1  1  0  0  0
  2  3  1  0  0  0
  3  4  1  0  0  0
  4  5  1  0  0  0
  5  6  1  0  0  0
  6  7  1  0  0  0
  7  8  1  0  0  0
  8  9  2  0  0  0
  8 22  1  0  0  0
 22 23  1  0  0  0
 23 25  1  0  0  0
 25 26  2  0  0  0
 26 27  1  0  0  0
 27 28  2  0  0  0
 28 29  1  0  0  0
 29 30  2  0  0  0
 29 31  1  0  0  0
 27 32  1  0  0  0
  3 10  1  0  0  0
 10 12  1  0  0  0
 12 13  2  0  0  0
 13 14  1  0  0  0
 14 15  2  0  0  0
 15 16  1  0  0  0
 16 17  2  0  0  0
 17 18  1  0  0  0
 18 19  2  0  0  0
 19 20  1  0  0  0
  7  2  1  0  0  0
 30 25  1  0  0  0
 17 12  1  0  0  0
 20 16  1  0  0  0
 23 24  1  0  0  0
 10 11  1  0  0  0
 20 21  1  0  0  0
M  END
>  <minimizedAffinity>
24.49833

>  <minimizedRMSD>
0.56895

$$$$
CHEMBL4169073 PubChem-145954847


 30 34  0  0  0  0  0  0  0  0999 V2000
   17.4212   -7.5739   12.0865 C   0  0  0  0  0  0  0  0  0  0  0  0
   16.7316   -6.8507   13.0789 C   0  0  0  0  0  0  0  0  0  0  0  0
   16.5130   -7.4738   14.3044 C   0  0  0  0  0  0  0  0  0  0  0  0
   16.9542   -8.7399   14.5588 C   0  0  0  0  0  0  0  0  0  0  0  0
   17.6631   -9.4830   13.6173 C   0  0  0  0  0  0  0  0  0  0  0  0
   17.8940   -8.8829   12.3669 C   0  0  0  0  0  0  0  0  0  0  0  0
   16.6294   -9.0691   15.8156 N   0  0  0  0  0  0  0  0  0  0  0  0
   15.9862   -7.9696   16.2900 C   0  0  0  0  0  0  0  0  0  0  0  0
   15.9074   -6.9555   15.3893 N   0  0  0  0  0  0  0  0  0  0  0  0
   17.0551  -10.2555   16.5434 C   0  0  0  0  0  0  0  0  0  0  0  0
   15.5129   -7.8262   17.6349 N   0  0  0  0  0  0  0  0  0  0  0  0
   15.6653   -6.9597   18.0768 H   0  0  0  0  0  0  0  0  0  0  0  0
   14.8369   -8.8374   18.3896 C   0  0  0  0  0  0  0  0  0  0  0  0
   14.7379   -8.6981   19.7782 C   0  0  0  0  0  0  0  0  0  0  0  0
   14.0474   -9.6495   20.5352 C   0  0  0  0  0  0  0  0  0  0  0  0
   13.4426  -10.7403   19.9041 C   0  0  0  0  0  0  0  0  0  0  0  0
   13.5205  -10.8752   18.5153 C   0  0  0  0  0  0  0  0  0  0  0  0
   14.2107   -9.9236   17.7589 C   0  0  0  0  0  0  0  0  0  0  0  0
   12.7097  -11.7519   20.7090 C   0  0  0  0  0  0  0  0  0  0  0  0
   17.6642   -6.9555   10.8535 O   0  0  0  0  0  0  0  0  0  0  0  0
   18.9270   -7.0965    8.8265 N   0  0  0  0  0  0  0  0  0  0  0  0
   19.2597   -7.7049    7.6429 C   0  0  0  0  0  0  0  0  0  0  0  0
   18.6468   -8.8654    7.2616 N   0  0  0  0  0  0  0  0  0  0  0  0
   17.7106   -9.3880    8.0891 C   0  0  0  0  0  0  0  0  0  0  0  0
   17.3634   -8.8072    9.2639 C   0  0  0  0  0  0  0  0  0  0  0  0
   17.9895   -7.6270    9.6675 C   0  0  0  0  0  0  0  0  0  0  0  0
   16.3374   -9.5799    9.7834 C   0  0  0  0  0  0  0  0  0  0  0  0
   16.1208  -10.5996    8.9089 N   0  0  0  0  0  0  0  0  0  0  0  0
   16.9580  -10.4735    7.8861 N   0  0  0  0  0  0  0  0  0  0  0  0
   16.9998  -11.3676    6.7425 C   0  0  0  0  0  0  0  0  0  0  0  0
 21 22  2  0  0  0
 22 23  1  0  0  0
 23 24  2  0  0  0
 24 25  1  0  0  0
 25 26  2  0  0  0
 26 20  1  0  0  0
 20  1  1  0  0  0
  1  2  2  0  0  0
  2  3  1  0  0  0
  3  4  2  0  0  0
  4  5  1  0  0  0
  5  6  2  0  0  0
  4  7  1  0  0  0
  7  8  1  0  0  0
  8  9  2  0  0  0
  8 11  1  0  0  0
 11 13  1  0  0  0
 13 14  2  0  0  0
 14 15  1  0  0  0
 15 16  2  0  0  0
 16 17  1  0  0  0
 17 18  2  0  0  0
 16 19  1  0  0  0
  7 10  1  0  0  0
 25 27  1  0  0  0
 27 28  2  0  0  0
 28 29  1  0  0  0
 29 30  1  0  0  0
 26 21  1  0  0  0
  6  1  1  0  0  0
 18 13  1  0  0  0
 29 24  1  0  0  0
  9  3  1  0  0  0
 11 12  1  0  0  0
M  END
>  <minimizedAffinity>
34.94831

>  <minimizedRMSD>
0.59547

$$$$
CHEMBL4165904 PubChem-145954493


 30 34  0  0  0  0  0  0  0  0999 V2000
   17.4237   -7.5723   12.0875 C   0  0  0  0  0  0  0  0  0  0  0  0
   16.7439   -6.8509   13.0880 C   0  0  0  0  0  0  0  0  0  0  0  0
   16.5455   -7.4727   14.3175 C   0  0  0  0  0  0  0  0  0  0  0  0
   16.9971   -8.7358   14.5683 C   0  0  0  0  0  0  0  0  0  0  0  0
   17.6970   -9.4770   13.6187 C   0  0  0  0  0  0  0  0  0  0  0  0
   17.9075   -8.8782   12.3639 C   0  0  0  0  0  0  0  0  0  0  0  0
   16.6913   -9.0643   15.8301 N   0  0  0  0  0  0  0  0  0  0  0  0
   16.0486   -7.9673   16.3110 C   0  0  0  0  0  0  0  0  0  0  0  0
   15.9520   -6.9555   15.4096 N   0  0  0  0  0  0  0  0  0  0  0  0
   17.1335  -10.2468   16.5542 C   0  0  0  0  0  0  0  0  0  0  0  0
   15.5931   -7.8239   17.6621 N   0  0  0  0  0  0  0  0  0  0  0  0
   15.7418   -6.9539   18.0984 H   0  0  0  0  0  0  0  0  0  0  0  0
   14.9399   -8.8398   18.4305 C   0  0  0  0  0  0  0  0  0  0  0  0
   14.3171   -9.9356   17.8131 C   0  0  0  0  0  0  0  0  0  0  0  0
   13.6492  -10.8919   18.5830 C   0  0  0  0  0  0  0  0  0  0  0  0
   13.5902  -10.7524   19.9723 C   0  0  0  0  0  0  0  0  0  0  0  0
   14.1914   -9.6524   20.5903 C   0  0  0  0  0  0  0  0  0  0  0  0
   14.8597   -8.6961   19.8198 C   0  0  0  0  0  0  0  0  0  0  0  0
   12.6810  -12.0561   21.0227 Br  0  0  0  0  0  0  0  0  0  0  0  0
   17.6462   -6.9551   10.8500 O   0  0  0  0  0  0  0  0  0  0  0  0
   18.8811   -7.0941    8.8059 N   0  0  0  0  0  0  0  0  0  0  0  0
   19.2001   -7.7032    7.6188 C   0  0  0  0  0  0  0  0  0  0  0  0
   18.5874   -8.8671    7.2481 N   0  0  0  0  0  0  0  0  0  0  0  0
   17.6652   -9.3925    8.0897 C   0  0  0  0  0  0  0  0  0  0  0  0
   17.3318   -8.8112    9.2682 C   0  0  0  0  0  0  0  0  0  0  0  0
   17.9581   -7.6273    9.6608 C   0  0  0  0  0  0  0  0  0  0  0  0
   16.3169   -9.5876    9.8035 C   0  0  0  0  0  0  0  0  0  0  0  0
   16.0928  -10.6099    8.9338 N   0  0  0  0  0  0  0  0  0  0  0  0
   16.9149  -10.4819    7.8992 N   0  0  0  0  0  0  0  0  0  0  0  0
   16.9449  -11.3778    6.7568 C   0  0  0  0  0  0  0  0  0  0  0  0
 21 22  2  0  0  0
 22 23  1  0  0  0
 23 24  2  0  0  0
 24 25  1  0  0  0
 25 26  2  0  0  0
 26 20  1  0  0  0
 20  1  1  0  0  0
  1  2  2  0  0  0
  2  3  1  0  0  0
  3  4  2  0  0  0
  4  5  1  0  0  0
  5  6  2  0  0  0
  4  7  1  0  0  0
  7  8  1  0  0  0
  8  9  2  0  0  0
  8 11  1  0  0  0
 11 13  1  0  0  0
 13 14  2  0  0  0
 14 15  1  0  0  0
 15 16  2  0  0  0
 16 17  1  0  0  0
 17 18  2  0  0  0
 16 19  1  0  0  0
  7 10  1  0  0  0
 25 27  1  0  0  0
 27 28  2  0  0  0
 28 29  1  0  0  0
 29 30  1  0  0  0
 26 21  1  0  0  0
  6  1  1  0  0  0
 18 13  1  0  0  0
 29 24  1  0  0  0
  9  3  1  0  0  0
 11 12  1  0  0  0
M  END
>  <minimizedAffinity>
35.46715

>  <minimizedRMSD>
0.60183

$$$$
CHEMBL4169626 PubChem-145956253


 33 37  0  0  0  0  0  0  0  0999 V2000
   17.4180   -7.5230   12.1018 C   0  0  0  0  0  0  0  0  0  0  0  0
   16.7548   -6.8153   13.1230 C   0  0  0  0  0  0  0  0  0  0  0  0
   16.5622   -7.4596   14.3418 C   0  0  0  0  0  0  0  0  0  0  0  0
   17.0042   -8.7316   14.5631 C   0  0  0  0  0  0  0  0  0  0  0  0
   17.6880   -9.4603   13.5922 C   0  0  0  0  0  0  0  0  0  0  0  0
   17.8920   -8.8385   12.3476 C   0  0  0  0  0  0  0  0  0  0  0  0
   16.7075   -9.0823   15.8212 N   0  0  0  0  0  0  0  0  0  0  0  0
   16.0799   -7.9891   16.3300 C   0  0  0  0  0  0  0  0  0  0  0  0
   15.9842   -6.9587   15.4498 N   0  0  0  0  0  0  0  0  0  0  0  0
   17.1455  -10.2829   16.5175 C   0  0  0  0  0  0  0  0  0  0  0  0
   15.6391   -7.8682   17.6881 N   0  0  0  0  0  0  0  0  0  0  0  0
   15.7922   -7.0055   18.1370 H   0  0  0  0  0  0  0  0  0  0  0  0
   14.9948   -8.8971   18.4467 C   0  0  0  0  0  0  0  0  0  0  0  0
   14.9317   -8.7772   19.8386 C   0  0  0  0  0  0  0  0  0  0  0  0
   14.2635   -9.7394   20.6096 C   0  0  0  0  0  0  0  0  0  0  0  0
   13.6721  -10.8394   19.9722 C   0  0  0  0  0  0  0  0  0  0  0  0
   13.7167  -10.9564   18.5808 C   0  0  0  0  0  0  0  0  0  0  0  0
   14.3686   -9.9838   17.8191 C   0  0  0  0  0  0  0  0  0  0  0  0
   14.2546   -9.6366   22.1072 C   0  0  0  0  0  0  0  0  0  0  0  0
   15.3672  -10.2805   22.6157 F   0  0  0  0  0  0  0  0  0  0  0  0
   13.1146  -10.2267   22.6252 F   0  0  0  0  0  0  0  0  0  0  0  0
   14.2813   -8.3096   22.5001 F   0  0  0  0  0  0  0  0  0  0  0  0
   17.6346   -6.8834   10.8748 O   0  0  0  0  0  0  0  0  0  0  0  0
   18.8375   -7.0031    8.8104 N   0  0  0  0  0  0  0  0  0  0  0  0
   19.1266   -7.5922    7.6057 C   0  0  0  0  0  0  0  0  0  0  0  0
   18.4837   -8.7344    7.2185 N   0  0  0  0  0  0  0  0  0  0  0  0
   17.5624   -9.2587    8.0617 C   0  0  0  0  0  0  0  0  0  0  0  0
   17.2581   -8.6967    9.2572 C   0  0  0  0  0  0  0  0  0  0  0  0
   17.9152   -7.5355    9.6667 C   0  0  0  0  0  0  0  0  0  0  0  0
   16.2341   -9.4631    9.7900 C   0  0  0  0  0  0  0  0  0  0  0  0
   15.9759  -10.4608    8.9014 N   0  0  0  0  0  0  0  0  0  0  0  0
   16.7861  -10.3273    7.8581 N   0  0  0  0  0  0  0  0  0  0  0  0
   16.7809  -11.1980    6.6960 C   0  0  0  0  0  0  0  0  0  0  0  0
 24 25  2  0  0  0
 25 26  1  0  0  0
 26 27  2  0  0  0
 27 28  1  0  0  0
 28 29  2  0  0  0
 29 23  1  0  0  0
 23  1  1  0  0  0
  1  2  2  0  0  0
  2  3  1  0  0  0
  3  4  2  0  0  0
  4  5  1  0  0  0
  5  6  2  0  0  0
  4  7  1  0  0  0
  7  8  1  0  0  0
  8  9  2  0  0  0
  8 11  1  0  0  0
 11 13  1  0  0  0
 13 14  2  0  0  0
 14 15  1  0  0  0
 15 16  2  0  0  0
 16 17  1  0  0  0
 17 18  2  0  0  0
 15 19  1  0  0  0
 19 20  1  0  0  0
 19 21  1  0  0  0
 19 22  1  0  0  0
  7 10  1  0  0  0
 28 30  1  0  0  0
 30 31  2  0  0  0
 31 32  1  0  0  0
 32 33  1  0  0  0
 29 24  1  0  0  0
  6  1  1  0  0  0
 18 13  1  0  0  0
 32 27  1  0  0  0
  9  3  1  0  0  0
 11 12  1  0  0  0
M  END
>  <minimizedAffinity>
36.02913

>  <minimizedRMSD>
0.61149

$$$$
CHEMBL4963639 647854798 MCULE-9895569941 MolPort-046-444-545 PubChem-137982969 Z2233953561


 29 32  0  0  0  0  0  0  0  0999 V2000
   17.2646   -9.5258   10.5057 C   0  0  0  0  0  0  0  0  0  0  0  0
   18.1682   -8.8626    9.6714 C   0  0  0  0  0  0  0  0  0  0  0  0
   19.2665   -8.1503    9.9828 N   0  0  0  0  0  0  0  0  0  0  0  0
   19.7384   -7.7487    8.7703 C   0  0  0  0  0  0  0  0  0  0  0  0
   18.9733   -8.1869    7.7354 N   0  0  0  0  0  0  0  0  0  0  0  0
   17.9925   -8.8848    8.3298 C   0  0  0  0  0  0  0  0  0  0  0  0
   16.9587   -9.5341    7.7408 N   0  0  0  0  0  0  0  0  0  0  0  0
   16.0680  -10.1866    8.5452 C   0  0  0  0  0  0  0  0  0  0  0  0
   16.2245  -10.1787    9.9073 N   0  0  0  0  0  0  0  0  0  0  0  0
   19.1959   -7.9386    6.3352 C   0  0  0  0  0  0  0  0  0  0  0  0
   18.3911   -8.5453    5.3576 C   0  0  0  0  0  0  0  0  0  0  0  0
   18.6145   -8.2985    4.0001 C   0  0  0  0  0  0  0  0  0  0  0  0
   19.6454   -7.4420    3.6063 C   0  0  0  0  0  0  0  0  0  0  0  0
   20.4529   -6.8325    4.5697 C   0  0  0  0  0  0  0  0  0  0  0  0
   20.2291   -7.0797    5.9272 C   0  0  0  0  0  0  0  0  0  0  0  0
   17.3829   -9.5478   11.9328 N   0  0  0  0  0  0  0  0  0  0  0  0
   16.7545   -8.9985   12.4550 H   0  0  0  0  0  0  0  0  0  0  0  0
   18.3709  -10.3287   12.6615 C   0  0  0  0  0  0  0  0  0  0  0  0
   16.8274   -9.5407   16.0337 C   0  0  0  0  0  0  0  0  0  0  0  0
   17.1544  -10.7004   16.7514 C   0  0  0  0  0  0  0  0  0  0  0  0
   17.8766  -11.7299   16.1406 C   0  0  0  0  0  0  0  0  0  0  0  0
   18.2787  -11.6063   14.8081 C   0  0  0  0  0  0  0  0  0  0  0  0
   17.9636  -10.4508   14.0868 C   0  0  0  0  0  0  0  0  0  0  0  0
   17.2345   -9.4246   14.6964 C   0  0  0  0  0  0  0  0  0  0  0  0
   16.0353   -8.3376   18.0960 N   0  0  0  0  0  0  0  0  0  0  0  0
   16.0630   -8.4576   16.6764 C   0  0  0  0  0  0  0  0  0  0  0  0
   15.4258   -7.6261   15.9764 O   0  0  0  0  0  0  0  0  0  0  0  0
   15.5224   -7.6113   18.5187 H   0  0  0  0  0  0  0  0  0  0  0  0
   16.5290   -8.9810   18.6541 H   0  0  0  0  0  0  0  0  0  0  0  0
 25 26  1  0  0  0
 26 27  2  0  0  0
 26 19  1  0  0  0
 19 20  2  0  0  0
 20 21  1  0  0  0
 21 22  2  0  0  0
 22 23  1  0  0  0
 23 18  1  0  0  0
 18 16  1  0  0  0
 16  1  1  0  0  0
  1  2  2  0  0  0
  2  3  1  0  0  0
  3  4  2  0  0  0
  4  5  1  0  0  0
  5  6  1  0  0  0
  6  7  2  0  0  0
  7  8  1  0  0  0
  8  9  2  0  0  0
  5 10  1  0  0  0
 10 11  2  0  0  0
 11 12  1  0  0  0
 12 13  2  0  0  0
 13 14  1  0  0  0
 14 15  2  0  0  0
 23 24  2  0  0  0
 24 19  1  0  0  0
  9  1  1  0  0  0
 15 10  1  0  0  0
  6  2  1  0  0  0
 25 28  1  0  0  0
 25 29  1  0  0  0
 16 17  1  0  0  0
M  END
>  <minimizedAffinity>
-9.43614

>  <minimizedRMSD>
0.62317

$$$$
CHEMBL4963639 647854798 MCULE-9895569941 MolPort-046-444-545 PubChem-137982969 Z2233953561


 29 32  0  0  0  0  0  0  0  0999 V2000
   17.2645   -9.5258   10.5057 C   0  0  0  0  0  0  0  0  0  0  0  0
   18.1680   -8.8627    9.6715 C   0  0  0  0  0  0  0  0  0  0  0  0
   19.2664   -8.1504    9.9829 N   0  0  0  0  0  0  0  0  0  0  0  0
   19.7384   -7.7487    8.7704 C   0  0  0  0  0  0  0  0  0  0  0  0
   18.9732   -8.1868    7.7355 N   0  0  0  0  0  0  0  0  0  0  0  0
   17.9925   -8.8848    8.3299 C   0  0  0  0  0  0  0  0  0  0  0  0
   16.9586   -9.5340    7.7409 N   0  0  0  0  0  0  0  0  0  0  0  0
   16.0680  -10.1866    8.5452 C   0  0  0  0  0  0  0  0  0  0  0  0
   16.2243  -10.1787    9.9073 N   0  0  0  0  0  0  0  0  0  0  0  0
   19.1959   -7.9387    6.3353 C   0  0  0  0  0  0  0  0  0  0  0  0
   20.2289   -7.0795    5.9274 C   0  0  0  0  0  0  0  0  0  0  0  0
   20.4527   -6.8323    4.5699 C   0  0  0  0  0  0  0  0  0  0  0  0
   19.6456   -7.4419    3.6064 C   0  0  0  0  0  0  0  0  0  0  0  0
   18.6147   -8.2985    4.0002 C   0  0  0  0  0  0  0  0  0  0  0  0
   18.3913   -8.5454    5.3577 C   0  0  0  0  0  0  0  0  0  0  0  0
   17.3827   -9.5479   11.9328 N   0  0  0  0  0  0  0  0  0  0  0  0
   16.7543   -8.9986   12.4550 H   0  0  0  0  0  0  0  0  0  0  0  0
   18.3706  -10.3291   12.6615 C   0  0  0  0  0  0  0  0  0  0  0  0
   16.8275   -9.5406   16.0337 C   0  0  0  0  0  0  0  0  0  0  0  0
   17.1546  -10.7003   16.7515 C   0  0  0  0  0  0  0  0  0  0  0  0
   17.8767  -11.7298   16.1409 C   0  0  0  0  0  0  0  0  0  0  0  0
   18.2787  -11.6064   14.8083 C   0  0  0  0  0  0  0  0  0  0  0  0
   17.9634  -10.4510   14.0869 C   0  0  0  0  0  0  0  0  0  0  0  0
   17.2344   -9.4247   14.6963 C   0  0  0  0  0  0  0  0  0  0  0  0
   16.0352   -8.3376   18.0960 N   0  0  0  0  0  0  0  0  0  0  0  0
   16.0631   -8.4574   16.6765 C   0  0  0  0  0  0  0  0  0  0  0  0
   15.4261   -7.6259   15.9763 O   0  0  0  0  0  0  0  0  0  0  0  0
   15.5223   -7.6113   18.5187 H   0  0  0  0  0  0  0  0  0  0  0  0
   16.5288   -8.9811   18.6541 H   0  0  0  0  0  0  0  0  0  0  0  0
 25 26  1  0  0  0
 26 27  2  0  0  0
 26 19  1  0  0  0
 19 20  2  0  0  0
 20 21  1  0  0  0
 21 22  2  0  0  0
 22 23  1  0  0  0
 23 18  1  0  0  0
 18 16  1  0  0  0
 16  1  1  0  0  0
  1  2  2  0  0  0
  2  3  1  0  0  0
  3  4  2  0  0  0
  4  5  1  0  0  0
  5  6  1  0  0  0
  6  7  2  0  0  0
  7  8  1  0  0  0
  8  9  2  0  0  0
  5 10  1  0  0  0
 10 11  2  0  0  0
 11 12  1  0  0  0
 12 13  2  0  0  0
 13 14  1  0  0  0
 14 15  2  0  0  0
 23 24  2  0  0  0
 24 19  1  0  0  0
  9  1  1  0  0  0
 15 10  1  0  0  0
  6  2  1  0  0  0
 25 28  1  0  0  0
 25 29  1  0  0  0
 16 17  1  0  0  0
M  END
>  <minimizedAffinity>
-9.43645

>  <minimizedRMSD>
0.62317

$$$$
CHEMBL1172720 PubChem-46837263


 32 35  0  0  0  0  0  0  0  0999 V2000
   18.7647  -11.9700   13.9237 C   0  0  0  0  0  0  0  0  0  0  0  0
   17.9519  -11.0003   14.7144 C   0  0  0  0  0  0  0  0  0  0  0  0
   17.9689  -11.0927   16.1090 C   0  0  0  0  0  0  0  0  0  0  0  0
   17.2217  -10.2024   16.8840 C   0  0  0  0  0  0  0  0  0  0  0  0
   16.4471   -9.2077   16.2727 C   0  0  0  0  0  0  0  0  0  0  0  0
   16.4304   -9.1164   14.8738 C   0  0  0  0  0  0  0  0  0  0  0  0
   17.1762  -10.0038   14.0913 C   0  0  0  0  0  0  0  0  0  0  0  0
   15.6594   -8.2689   17.0910 C   0  0  0  0  0  0  0  0  0  0  0  0
   14.9590   -7.3842   16.5275 O   0  0  0  0  0  0  0  0  0  0  0  0
   15.6964   -8.3696   18.5231 N   0  0  0  0  0  0  0  0  0  0  0  0
   16.2634   -9.0808   18.8997 H   0  0  0  0  0  0  0  0  0  0  0  0
   14.9949   -7.5440   19.4626 C   0  0  0  0  0  0  0  0  0  0  0  0
   13.7569   -6.9587   19.1589 C   0  0  0  0  0  0  0  0  0  0  0  0
   13.0990   -6.1676   20.1036 C   0  0  0  0  0  0  0  0  0  0  0  0
   13.6764   -5.9517   21.3571 C   0  0  0  0  0  0  0  0  0  0  0  0
   14.9214   -6.5152   21.6688 C   0  0  0  0  0  0  0  0  0  0  0  0
   15.5652   -7.3236   20.7207 C   0  0  0  0  0  0  0  0  0  0  0  0
   15.5170   -6.3286   23.0341 C   0  0  0  0  0  0  0  0  0  0  0  0
   14.9165   -7.2059   23.9179 F   0  0  0  0  0  0  0  0  0  0  0  0
   16.8784   -6.5773   23.0050 F   0  0  0  0  0  0  0  0  0  0  0  0
   15.3149   -5.0325   23.4761 F   0  0  0  0  0  0  0  0  0  0  0  0
   17.1284   -9.8712   12.6581 C   0  0  0  0  0  0  0  0  0  0  0  0
   17.0898   -9.7603   11.4583 C   0  0  0  0  0  0  0  0  0  0  0  0
   17.0468   -9.6272   10.0276 C   0  0  0  0  0  0  0  0  0  0  0  0
   16.1591  -10.2541    9.1638 C   0  0  0  0  0  0  0  0  0  0  0  0
   16.4454   -9.8694    7.8898 N   0  0  0  0  0  0  0  0  0  0  0  0
   17.4903   -9.0276    8.0244 C   0  0  0  0  0  0  0  0  0  0  0  0
   18.1567   -8.3608    7.0035 C   0  0  0  0  0  0  0  0  0  0  0  0
   19.2242   -7.5289    7.3783 C   0  0  0  0  0  0  0  0  0  0  0  0
   19.5755   -7.4007    8.7366 C   0  0  0  0  0  0  0  0  0  0  0  0
   18.8741   -8.0877    9.6834 N   0  0  0  0  0  0  0  0  0  0  0  0
   17.8672   -8.8679    9.2955 N   0  0  0  0  0  0  0  0  0  0  0  0
  1  2  1  0  0  0
  2  3  2  0  0  0
  3  4  1  0  0  0
  4  5  2  0  0  0
  5  8  1  0  0  0
  5  6  1  0  0  0
  8  9  2  0  0  0
  8 10  1  0  0  0
 10 12  1  0  0  0
 12 13  2  0  0  0
 13 14  1  0  0  0
 14 15  2  0  0  0
 15 16  1  0  0  0
 16 18  1  0  0  0
 16 17  2  0  0  0
 18 19  1  0  0  0
 18 20  1  0  0  0
 18 21  1  0  0  0
 17 12  1  0  0  0
  6  7  2  0  0  0
  7 22  1  0  0  0
  7  2  1  0  0  0
 22 23  3  0  0  0
 23 24  1  0  0  0
 24 25  2  0  0  0
 25 26  1  0  0  0
 26 27  2  0  0  0
 27 28  1  0  0  0
 28 29  2  0  0  0
 29 30  1  0  0  0
 30 31  2  0  0  0
 31 32  1  0  0  0
 32 24  1  0  0  0
 32 27  1  0  0  0
 10 11  1  0  0  0
M  END
>  <minimizedAffinity>
-12.40072

>  <minimizedRMSD>
0.62494

$$$$
CHEMBL5276931 PubChem-86706444


 31 34  0  0  0  0  0  0  0  0999 V2000
   17.7259   -8.8716   13.3571 C   0  0  0  0  0  0  0  0  0  0  0  0
   17.8530  -10.3572   13.7089 C   0  0  0  0  0  0  0  0  0  0  0  0
   17.3647  -10.6113   15.1331 C   0  0  0  0  0  0  0  0  0  0  0  0
   15.9203  -10.1437   15.2801 C   0  0  0  0  0  0  0  0  0  0  0  0
   15.8206   -8.7425   14.8795 N   0  0  0  0  0  0  0  0  0  0  0  0
   16.2910   -8.3740   13.5476 C   0  0  0  0  0  0  0  0  0  0  0  0
   15.3002   -7.7471   15.7727 C   0  0  0  0  0  0  0  0  0  0  0  0
   15.2261   -6.5436   15.4065 O   0  0  0  0  0  0  0  0  0  0  0  0
   19.3473   -7.7130   11.8939 C   0  0  0  0  0  0  0  0  0  0  0  0
   18.2027   -8.6047   12.0008 N   0  0  0  0  0  0  0  0  0  0  0  0
   17.5750   -9.1904   10.8339 C   0  0  0  0  0  0  0  0  0  0  0  0
   16.5007  -10.0258   10.9803 N   0  0  0  0  0  0  0  0  0  0  0  0
   15.8764  -10.6012    9.9072 C   0  0  0  0  0  0  0  0  0  0  0  0
   16.3142  -10.3544    8.6394 N   0  0  0  0  0  0  0  0  0  0  0  0
   17.3756   -9.5307    8.4725 C   0  0  0  0  0  0  0  0  0  0  0  0
   18.0131   -8.9466    9.5231 C   0  0  0  0  0  0  0  0  0  0  0  0
   19.0355   -8.1806    9.0061 C   0  0  0  0  0  0  0  0  0  0  0  0
   18.9401   -8.3629    7.6247 C   0  0  0  0  0  0  0  0  0  0  0  0
   17.9198   -9.1927    7.2964 N   0  0  0  0  0  0  0  0  0  0  0  0
   17.6419   -9.4815    6.3972 H   0  0  0  0  0  0  0  0  0  0  0  0
   14.8758   -8.1056   17.1574 C   0  0  0  0  0  0  0  0  0  0  0  0
   16.0299   -8.0801   18.0428 N   0  0  0  0  0  0  0  0  0  0  0  0
   16.9073   -7.8414   17.6654 H   0  0  0  0  0  0  0  0  0  0  0  0
   15.9462   -8.3861   19.4361 C   0  0  0  0  0  0  0  0  0  0  0  0
   17.1074   -8.3458   20.2151 C   0  0  0  0  0  0  0  0  0  0  0  0
   17.0505   -8.6433   21.5801 C   0  0  0  0  0  0  0  0  0  0  0  0
   15.8307   -8.9829   22.1719 C   0  0  0  0  0  0  0  0  0  0  0  0
   14.6672   -9.0252   21.3988 C   0  0  0  0  0  0  0  0  0  0  0  0
   14.7236   -8.7278   20.0341 C   0  0  0  0  0  0  0  0  0  0  0  0
   13.1396   -9.4506   22.1388 Cl  0  0  0  0  0  0  0  0  0  0  0  0
   18.5075   -8.5906   22.5479 Cl  0  0  0  0  0  0  0  0  0  0  0  0
  9 10  1  0  0  0
  1 10  1  0  0  0
  1  2  1  0  0  0
  2  3  1  0  0  0
  3  4  1  0  0  0
  4  5  1  0  0  0
  5  6  1  0  0  0
  5  7  1  0  0  0
  7  8  2  0  0  0
  7 21  1  0  0  0
 21 22  1  0  0  0
 22 24  1  0  0  0
 24 25  2  0  0  0
 25 26  1  0  0  0
 26 27  2  0  0  0
 27 28  1  0  0  0
 28 29  2  0  0  0
 28 30  1  0  0  0
 26 31  1  0  0  0
 10 11  1  0  0  0
 11 12  2  0  0  0
 12 13  1  0  0  0
 13 14  2  0  0  0
 14 15  1  0  0  0
 15 16  2  0  0  0
 16 17  1  0  0  0
 17 18  2  0  0  0
 18 19  1  0  0  0
  6  1  1  0  0  0
 29 24  1  0  0  0
 16 11  1  0  0  0
 19 15  1  0  0  0
 22 23  1  0  0  0
 19 20  1  0  0  0
M  END
>  <minimizedAffinity>
21.09803

>  <minimizedRMSD>
0.63322

$$$$
CHEMBL4584128 9364484 CSC026345059 MCULE-7265332499 MolPort-004-237-867 PubChem-17399512 Z28942175 ZINC000009364484 ZINC09364484


 26 28  0  0  0  0  0  0  0  0999 V2000
   16.8123   -9.4970   12.9902 C   0  0  0  0  0  0  0  0  0  0  0  0
   16.1219   -8.4619   12.7830 O   0  0  0  0  0  0  0  0  0  0  0  0
   17.3518  -10.2332   11.8843 N   0  0  0  0  0  0  0  0  0  0  0  0
   17.7236  -11.1277   12.0601 H   0  0  0  0  0  0  0  0  0  0  0  0
   17.3808   -9.7515   10.5626 N   0  0  0  0  0  0  0  0  0  0  0  0
   16.3651  -10.1171    9.7338 C   0  0  0  0  0  0  0  0  0  0  0  0
   16.3388   -9.7031    8.4408 N   0  0  0  0  0  0  0  0  0  0  0  0
   17.3280   -8.9242    7.9389 C   0  0  0  0  0  0  0  0  0  0  0  0
   17.2817   -8.5031    6.6068 C   0  0  0  0  0  0  0  0  0  0  0  0
   18.3100   -7.7104    6.0878 C   0  0  0  0  0  0  0  0  0  0  0  0
   19.3877   -7.3395    6.8982 C   0  0  0  0  0  0  0  0  0  0  0  0
   19.4401   -7.7587    8.2310 C   0  0  0  0  0  0  0  0  0  0  0  0
   18.4099   -8.5505    8.7595 C   0  0  0  0  0  0  0  0  0  0  0  0
   18.4237   -8.9981   10.0884 C   0  0  0  0  0  0  0  0  0  0  0  0
   19.4076   -8.7284   10.8320 O   0  0  0  0  0  0  0  0  0  0  0  0
   16.7688   -9.6701   16.7728 C   0  0  0  0  0  0  0  0  0  0  0  0
   17.4426  -10.8762   16.9891 C   0  0  0  0  0  0  0  0  0  0  0  0
   17.9086  -11.6297   15.9087 C   0  0  0  0  0  0  0  0  0  0  0  0
   17.7024  -11.1796   14.6022 C   0  0  0  0  0  0  0  0  0  0  0  0
   17.0287   -9.9736   14.3672 C   0  0  0  0  0  0  0  0  0  0  0  0
   16.5654   -9.2244   15.4581 C   0  0  0  0  0  0  0  0  0  0  0  0
   14.9254   -7.2551   19.1925 C   0  0  0  0  0  0  0  0  0  0  0  0
   15.2753   -7.9287   17.9153 C   0  0  0  0  0  0  0  0  0  0  0  0
   14.6607   -7.6130   16.8624 O   0  0  0  0  0  0  0  0  0  0  0  0
   16.3058   -8.9247   17.9072 N   0  0  0  0  0  0  0  0  0  0  0  0
   16.7407   -9.1169   18.7692 H   0  0  0  0  0  0  0  0  0  0  0  0
 22 23  1  0  0  0
 23 24  2  0  0  0
 23 25  1  0  0  0
 25 16  1  0  0  0
 16 17  2  0  0  0
 17 18  1  0  0  0
 18 19  2  0  0  0
 19 20  1  0  0  0
 20 21  2  0  0  0
 20  1  1  0  0  0
 21 16  1  0  0  0
  1  2  2  0  0  0
  1  3  1  0  0  0
  3  5  1  0  0  0
  5  6  1  0  0  0
  6  7  2  0  0  0
  7  8  1  0  0  0
  8  9  2  0  0  0
  9 10  1  0  0  0
 10 11  2  0  0  0
 11 12  1  0  0  0
 12 13  2  0  0  0
 13 14  1  0  0  0
 13  8  1  0  0  0
 14 15  2  0  0  0
 14  5  1  0  0  0
 25 26  1  0  0  0
  3  4  1  0  0  0
M  END
>  <minimizedAffinity>
-9.01280

>  <minimizedRMSD>
0.63440

$$$$
CHEMBL2336028 PubChem-71624671 ZINC000095590908


 25 27  0  0  0  0  0  0  0  0999 V2000
   18.6371  -12.0808   13.9196 C   0  0  0  0  0  0  0  0  0  0  0  0
   17.8639  -11.0740   14.7038 C   0  0  0  0  0  0  0  0  0  0  0  0
   17.7250  -11.2615   16.0820 C   0  0  0  0  0  0  0  0  0  0  0  0
   17.0085  -10.3409   16.8505 C   0  0  0  0  0  0  0  0  0  0  0  0
   16.4215   -9.2201   16.2489 C   0  0  0  0  0  0  0  0  0  0  0  0
   16.5613   -9.0329   14.8667 C   0  0  0  0  0  0  0  0  0  0  0  0
   17.2772   -9.9502   14.0908 C   0  0  0  0  0  0  0  0  0  0  0  0
   15.6663   -8.2494   17.0600 C   0  0  0  0  0  0  0  0  0  0  0  0
   14.9311   -7.3927   16.4966 O   0  0  0  0  0  0  0  0  0  0  0  0
   15.7630   -8.2803   18.4880 N   0  0  0  0  0  0  0  0  0  0  0  0
   16.3254   -8.9709   18.9076 H   0  0  0  0  0  0  0  0  0  0  0  0
   15.0650   -7.3340   19.3456 C   0  0  0  0  0  0  0  0  0  0  0  0
   13.6579   -7.8312   19.5994 C   0  0  0  0  0  0  0  0  0  0  0  0
   15.7922   -7.2019   20.6702 C   0  0  0  0  0  0  0  0  0  0  0  0
   17.3944   -9.7162   12.6744 C   0  0  0  0  0  0  0  0  0  0  0  0
   17.4929   -9.5209   11.4887 C   0  0  0  0  0  0  0  0  0  0  0  0
   17.6105   -9.2892   10.0775 C   0  0  0  0  0  0  0  0  0  0  0  0
   16.7234   -9.9068    9.1742 C   0  0  0  0  0  0  0  0  0  0  0  0
   16.8370   -9.6854    7.8316 N   0  0  0  0  0  0  0  0  0  0  0  0
   17.8189   -8.8613    7.3904 C   0  0  0  0  0  0  0  0  0  0  0  0
   18.1036   -8.5083    6.0912 C   0  0  0  0  0  0  0  0  0  0  0  0
   19.2007   -7.6513    6.2513 C   0  0  0  0  0  0  0  0  0  0  0  0
   19.5199   -7.5254    7.5636 N   0  0  0  0  0  0  0  0  0  0  0  0
   18.6655   -8.2702    8.2338 N   0  0  0  0  0  0  0  0  0  0  0  0
   18.6101   -8.4451    9.5754 C   0  0  0  0  0  0  0  0  0  0  0  0
  1  2  1  0  0  0
  2  3  2  0  0  0
  3  4  1  0  0  0
  4  5  2  0  0  0
  5  8  1  0  0  0
  5  6  1  0  0  0
  8  9  2  0  0  0
  8 10  1  0  0  0
 10 12  1  0  0  0
 12 13  1  0  0  0
 12 14  1  0  0  0
  6  7  2  0  0  0
  7 15  1  0  0  0
  7  2  1  0  0  0
 15 16  3  0  0  0
 16 17  1  0  0  0
 17 18  1  0  0  0
 18 19  2  0  0  0
 19 20  1  0  0  0
 20 21  2  0  0  0
 21 22  1  0  0  0
 22 23  2  0  0  0
 23 24  1  0  0  0
 24 25  1  0  0  0
 24 20  1  0  0  0
 25 17  2  0  0  0
 10 11  1  0  0  0
M  END
>  <minimizedAffinity>
-10.53176

>  <minimizedRMSD>
0.64807

$$$$
CHEMBL5276931 PubChem-86706444


 31 34  0  0  0  0  0  0  0  0999 V2000
   17.6942   -8.8667   13.3703 C   0  0  0  0  0  0  0  0  0  0  0  0
   17.8019  -10.3500   13.7379 C   0  0  0  0  0  0  0  0  0  0  0  0
   17.2959  -10.5852   15.1595 C   0  0  0  0  0  0  0  0  0  0  0  0
   15.8565  -10.0958   15.2907 C   0  0  0  0  0  0  0  0  0  0  0  0
   15.7791   -8.6983   14.8727 N   0  0  0  0  0  0  0  0  0  0  0  0
   16.2624   -8.3544   13.5390 C   0  0  0  0  0  0  0  0  0  0  0  0
   15.2909   -7.6798   15.7586 C   0  0  0  0  0  0  0  0  0  0  0  0
   15.2238   -6.4828   15.3717 O   0  0  0  0  0  0  0  0  0  0  0  0
   19.3465   -7.7381   11.9184 C   0  0  0  0  0  0  0  0  0  0  0  0
   18.1903   -8.6159   12.0180 N   0  0  0  0  0  0  0  0  0  0  0  0
   17.5718   -9.2051   10.8480 C   0  0  0  0  0  0  0  0  0  0  0  0
   16.5071  -10.0537   10.9895 N   0  0  0  0  0  0  0  0  0  0  0  0
   15.8948  -10.6365    9.9134 C   0  0  0  0  0  0  0  0  0  0  0  0
   16.3353  -10.3842    8.6475 N   0  0  0  0  0  0  0  0  0  0  0  0
   17.3862   -9.5461    8.4856 C   0  0  0  0  0  0  0  0  0  0  0  0
   18.0110   -8.9533    9.5389 C   0  0  0  0  0  0  0  0  0  0  0  0
   19.0264   -8.1747    9.0271 C   0  0  0  0  0  0  0  0  0  0  0  0
   18.9409   -8.3596    7.6456 C   0  0  0  0  0  0  0  0  0  0  0  0
   17.9332   -9.2028    7.3124 N   0  0  0  0  0  0  0  0  0  0  0  0
   17.6643   -9.4964    6.4120 H   0  0  0  0  0  0  0  0  0  0  0  0
   14.8875   -8.0062   17.1576 C   0  0  0  0  0  0  0  0  0  0  0  0
   16.0736   -8.1209   17.9926 N   0  0  0  0  0  0  0  0  0  0  0  0
   16.9575   -8.0276   17.5693 H   0  0  0  0  0  0  0  0  0  0  0  0
   16.0129   -8.3629   19.3995 C   0  0  0  0  0  0  0  0  0  0  0  0
   14.7835   -8.4591   20.0693 C   0  0  0  0  0  0  0  0  0  0  0  0
   14.7498   -8.6935   21.4469 C   0  0  0  0  0  0  0  0  0  0  0  0
   15.9428   -8.8338   22.1609 C   0  0  0  0  0  0  0  0  0  0  0  0
   17.1695   -8.7411   21.4972 C   0  0  0  0  0  0  0  0  0  0  0  0
   17.2037   -8.5057   20.1195 C   0  0  0  0  0  0  0  0  0  0  0  0
   18.6630   -8.9249   22.3909 Cl  0  0  0  0  0  0  0  0  0  0  0  0
   13.2139   -8.8137   22.2765 Cl  0  0  0  0  0  0  0  0  0  0  0  0
  9 10  1  0  0  0
  1 10  1  0  0  0
  1  2  1  0  0  0
  2  3  1  0  0  0
  3  4  1  0  0  0
  4  5  1  0  0  0
  5  6  1  0  0  0
  5  7  1  0  0  0
  7  8  2  0  0  0
  7 21  1  0  0  0
 21 22  1  0  0  0
 22 24  1  0  0  0
 24 25  2  0  0  0
 25 26  1  0  0  0
 26 27  2  0  0  0
 27 28  1  0  0  0
 28 29  2  0  0  0
 28 30  1  0  0  0
 26 31  1  0  0  0
 10 11  1  0  0  0
 11 12  2  0  0  0
 12 13  1  0  0  0
 13 14  2  0  0  0
 14 15  1  0  0  0
 15 16  2  0  0  0
 16 17  1  0  0  0
 17 18  2  0  0  0
 18 19  1  0  0  0
  6  1  1  0  0  0
 29 24  1  0  0  0
 16 11  1  0  0  0
 19 15  1  0  0  0
 22 23  1  0  0  0
 19 20  1  0  0  0
M  END
>  <minimizedAffinity>
20.11009

>  <minimizedRMSD>
0.65948

$$$$
CHEMBL5092005


 34 39  0  0  0  0  0  0  0  0999 V2000
   12.7738   -6.5268   18.0986 C   0  0  0  0  0  0  0  0  0  0  0  0
   12.5251   -5.9240   19.3450 C   0  0  0  0  0  0  0  0  0  0  0  0
   13.4355   -6.0671   20.4252 C   0  0  0  0  0  0  0  0  0  0  0  0
   14.6095   -6.8340   20.2425 C   0  0  0  0  0  0  0  0  0  0  0  0
   14.8226   -7.4153   18.9962 C   0  0  0  0  0  0  0  0  0  0  0  0
   13.9436   -7.2677   17.9699 C   0  0  0  0  0  0  0  0  0  0  0  0
   14.3812   -7.9239   16.8865 N   0  0  0  0  0  0  0  0  0  0  0  0
   15.5532   -8.4623   17.3201 C   0  0  0  0  0  0  0  0  0  0  0  0
   15.8600   -8.1722   18.6136 N   0  0  0  0  0  0  0  0  0  0  0  0
   16.6467   -8.4490   19.1369 H   0  0  0  0  0  0  0  0  0  0  0  0
   13.1598   -5.4493   21.6963 N   0  0  0  0  0  0  0  0  0  0  0  0
   14.2494   -5.0863   22.6032 C   0  0  0  0  0  0  0  0  0  0  0  0
   13.8220   -5.3494   24.0451 C   0  0  0  0  0  0  0  0  0  0  0  0
   12.5668   -4.6558   24.3262 N   0  0  0  0  0  0  0  0  0  0  0  0
   11.5195   -5.2445   23.4942 C   0  0  0  0  0  0  0  0  0  0  0  0
   11.8139   -4.9754   22.0206 C   0  0  0  0  0  0  0  0  0  0  0  0
   12.2235   -4.9566   25.7038 C   0  0  0  0  0  0  0  0  0  0  0  0
   16.4167   -9.2895   16.4616 C   0  0  0  0  0  0  0  0  0  0  0  0
   16.3529   -9.1672   15.0664 C   0  0  0  0  0  0  0  0  0  0  0  0
   17.1727   -9.9526   14.2505 C   0  0  0  0  0  0  0  0  0  0  0  0
   18.0619  -10.8654   14.8252 C   0  0  0  0  0  0  0  0  0  0  0  0
   18.1311  -10.9927   16.2152 C   0  0  0  0  0  0  0  0  0  0  0  0
   17.3111  -10.2073   17.0308 C   0  0  0  0  0  0  0  0  0  0  0  0
   17.1015   -9.8209   12.8232 C   0  0  0  0  0  0  0  0  0  0  0  0
   17.0418   -9.7097   11.6244 C   0  0  0  0  0  0  0  0  0  0  0  0
   16.9725   -9.5756   10.1948 C   0  0  0  0  0  0  0  0  0  0  0  0
   16.0370  -10.1610    9.3525 C   0  0  0  0  0  0  0  0  0  0  0  0
   16.3114   -9.7908    8.0717 N   0  0  0  0  0  0  0  0  0  0  0  0
   17.3970   -8.9987    8.1808 C   0  0  0  0  0  0  0  0  0  0  0  0
   17.8100   -8.8559    9.4427 N   0  0  0  0  0  0  0  0  0  0  0  0
   18.8604   -8.1229    9.8060 N   0  0  0  0  0  0  0  0  0  0  0  0
   19.5708   -7.4700    8.8422 C   0  0  0  0  0  0  0  0  0  0  0  0
   19.1830   -7.5827    7.4924 C   0  0  0  0  0  0  0  0  0  0  0  0
   18.0699   -8.3641    7.1437 C   0  0  0  0  0  0  0  0  0  0  0  0
  1  2  2  0  0  0
  2  3  1  0  0  0
  3  4  2  0  0  0
  4  5  1  0  0  0
  5  6  2  0  0  0
  6  7  1  0  0  0
  7  8  2  0  0  0
  8  9  1  0  0  0
  8 18  1  0  0  0
 18 19  2  0  0  0
 19 20  1  0  0  0
 20 21  2  0  0  0
 21 22  1  0  0  0
 22 23  2  0  0  0
 20 24  1  0  0  0
 24 25  3  0  0  0
 25 26  1  0  0  0
 26 27  2  0  0  0
 27 28  1  0  0  0
 28 29  2  0  0  0
 29 30  1  0  0  0
 30 31  1  0  0  0
 31 32  2  0  0  0
 32 33  1  0  0  0
 33 34  2  0  0  0
  3 11  1  0  0  0
 11 12  1  0  0  0
 12 13  1  0  0  0
 13 14  1  0  0  0
 14 15  1  0  0  0
 15 16  1  0  0  0
 14 17  1  0  0  0
  6  1  1  0  0  0
 23 18  1  0  0  0
 30 26  1  0  0  0
 16 11  1  0  0  0
  9  5  1  0  0  0
 34 29  1  0  0  0
  9 10  1  0  0  0
M  END
>  <minimizedAffinity>
-12.28323

>  <minimizedRMSD>
0.66475

$$$$
CHEMBL3809817 PubChem-76900805


 34 37  0  0  0  0  0  0  0  0999 V2000
   18.9268  -12.2000   13.5884 C   0  0  0  0  0  0  0  0  0  0  0  0
   18.2202  -11.3983   14.6289 C   0  0  0  0  0  0  0  0  0  0  0  0
   17.8009  -10.0777   14.3822 C   0  0  0  0  0  0  0  0  0  0  0  0
   17.1324   -9.3661   15.3840 C   0  0  0  0  0  0  0  0  0  0  0  0
   16.8870   -9.9503   16.6351 C   0  0  0  0  0  0  0  0  0  0  0  0
   17.3138  -11.2600   16.8730 C   0  0  0  0  0  0  0  0  0  0  0  0
   17.9759  -11.9808   15.8758 C   0  0  0  0  0  0  0  0  0  0  0  0
   16.2074   -9.2450   17.6824 N   0  0  0  0  0  0  0  0  0  0  0  0
   15.3398   -8.1117   17.5334 C   0  0  0  0  0  0  0  0  0  0  0  0
   15.0987   -7.6266   16.3951 O   0  0  0  0  0  0  0  0  0  0  0  0
   16.3510   -9.5725   18.5997 H   0  0  0  0  0  0  0  0  0  0  0  0
   14.7247   -7.5100   18.7229 C   0  0  0  0  0  0  0  0  0  0  0  0
   13.5488   -6.7940   18.7479 C   0  0  0  0  0  0  0  0  0  0  0  0
   13.3044   -6.4022   20.0111 N   0  0  0  0  0  0  0  0  0  0  0  0
   14.3150   -6.8661   20.7740 C   0  0  0  0  0  0  0  0  0  0  0  0
   15.2268   -7.5658   20.0057 C   0  0  0  0  0  0  0  0  0  0  0  0
   12.5324   -5.8754   20.3207 H   0  0  0  0  0  0  0  0  0  0  0  0
   18.0186   -9.4226   13.0587 C   0  0  0  0  0  0  0  0  0  0  0  0
   17.0127   -9.8810   12.1122 N   0  0  0  0  0  0  0  0  0  0  0  0
   16.2311  -10.3710   12.4560 H   0  0  0  0  0  0  0  0  0  0  0  0
   17.1106   -9.6506   10.7054 C   0  0  0  0  0  0  0  0  0  0  0  0
   16.1724  -10.2551    9.8394 C   0  0  0  0  0  0  0  0  0  0  0  0
   16.2388  -10.0549    8.4890 N   0  0  0  0  0  0  0  0  0  0  0  0
   17.2209   -9.2653    7.9878 C   0  0  0  0  0  0  0  0  0  0  0  0
   18.1459   -8.6633    8.7873 C   0  0  0  0  0  0  0  0  0  0  0  0
   18.1253   -8.8326   10.1666 C   0  0  0  0  0  0  0  0  0  0  0  0
   18.9984   -7.9376    7.9897 C   0  0  0  0  0  0  0  0  0  0  0  0
   18.4983   -8.1680    6.7043 C   0  0  0  0  0  0  0  0  0  0  0  0
   17.4104   -8.9793    6.6926 N   0  0  0  0  0  0  0  0  0  0  0  0
   16.8857   -9.2848    5.9176 H   0  0  0  0  0  0  0  0  0  0  0  0
   19.0795   -7.5977    5.4841 C   0  0  0  0  0  0  0  0  0  0  0  0
   18.6339   -7.9462    4.3566 O   0  0  0  0  0  0  0  0  0  0  0  0
   20.1217   -6.6734    5.5799 O   0  0  0  0  0  0  0  0  0  0  0  0
   20.9066   -6.3092    4.4546 C   0  0  0  0  0  0  0  0  0  0  0  0
  1  2  1  0  0  0
  2  3  2  0  0  0
  3  4  1  0  0  0
  3 18  1  0  0  0
  4  5  2  0  0  0
  5  6  1  0  0  0
  5  8  1  0  0  0
  6  7  2  0  0  0
  7  2  1  0  0  0
  8  9  1  0  0  0
  9 10  2  0  0  0
  9 12  1  0  0  0
 12 13  2  0  0  0
 13 14  1  0  0  0
 14 15  1  0  0  0
 15 16  2  0  0  0
 16 12  1  0  0  0
 18 19  1  0  0  0
 19 21  1  0  0  0
 21 22  2  0  0  0
 22 23  1  0  0  0
 23 24  2  0  0  0
 24 25  1  0  0  0
 25 26  2  0  0  0
 25 27  1  0  0  0
 26 21  1  0  0  0
 27 28  2  0  0  0
 28 29  1  0  0  0
 28 31  1  0  0  0
 29 24  1  0  0  0
 31 32  2  0  0  0
 31 33  1  0  0  0
 33 34  1  0  0  0
  8 11  1  0  0  0
 14 17  1  0  0  0
 19 20  1  0  0  0
 29 30  1  0  0  0
M  END
>  <minimizedAffinity>
-10.45924

>  <minimizedRMSD>
0.67669

$$$$
CHEMBL3906976 PubChem-134135473


 31 34  0  0  0  0  0  0  0  0999 V2000
   17.2357   -9.9249   13.9571 C   0  0  0  0  0  0  0  0  0  0  0  0
   16.5698   -8.9995   14.7676 C   0  0  0  0  0  0  0  0  0  0  0  0
   16.4368   -9.2128   16.1462 C   0  0  0  0  0  0  0  0  0  0  0  0
   16.9941  -10.3633   16.7169 C   0  0  0  0  0  0  0  0  0  0  0  0
   17.6867  -11.2797   15.9235 C   0  0  0  0  0  0  0  0  0  0  0  0
   17.8186  -11.0679   14.5482 C   0  0  0  0  0  0  0  0  0  0  0  0
   18.6463  -12.0301   13.7666 C   0  0  0  0  0  0  0  0  0  0  0  0
   15.1360  -10.0932   11.9590 O   0  0  0  0  0  0  0  0  0  0  0  0
   16.3174   -9.8561   11.5877 C   0  0  0  0  0  0  0  0  0  0  0  0
   17.3493   -9.6403   12.5571 N   0  0  0  0  0  0  0  0  0  0  0  0
   18.2025   -9.2676   12.2370 H   0  0  0  0  0  0  0  0  0  0  0  0
   16.6208   -9.7581   10.1520 C   0  0  0  0  0  0  0  0  0  0  0  0
   17.6021   -9.0172    9.5289 C   0  0  0  0  0  0  0  0  0  0  0  0
   17.5176   -9.2304    8.2088 N   0  0  0  0  0  0  0  0  0  0  0  0
   16.5342  -10.0708    7.9394 N   0  0  0  0  0  0  0  0  0  0  0  0
   15.9588  -10.4173    9.1172 C   0  0  0  0  0  0  0  0  0  0  0  0
   18.3440   -8.6484    7.3044 C   0  0  0  0  0  0  0  0  0  0  0  0
   19.3369   -7.7794    7.7799 C   0  0  0  0  0  0  0  0  0  0  0  0
   19.4445   -7.5410    9.1632 C   0  0  0  0  0  0  0  0  0  0  0  0
   18.5674   -8.1652   10.0642 C   0  0  0  0  0  0  0  0  0  0  0  0
   15.7176   -8.2387   16.9853 C   0  0  0  0  0  0  0  0  0  0  0  0
   15.0746   -7.2960   16.4470 O   0  0  0  0  0  0  0  0  0  0  0  0
   15.7521   -8.3586   18.4114 N   0  0  0  0  0  0  0  0  0  0  0  0
   16.2975   -9.0746   18.8102 H   0  0  0  0  0  0  0  0  0  0  0  0
   15.0160   -7.4680   19.2986 C   0  0  0  0  0  0  0  0  0  0  0  0
   13.5739   -7.4330   18.9208 C   0  0  0  0  0  0  0  0  0  0  0  0
   12.9874   -6.2309   18.5101 C   0  0  0  0  0  0  0  0  0  0  0  0
   11.6388   -6.1993   18.1423 C   0  0  0  0  0  0  0  0  0  0  0  0
   10.8754   -7.3702   18.1826 C   0  0  0  0  0  0  0  0  0  0  0  0
   11.4606   -8.5730   18.5903 C   0  0  0  0  0  0  0  0  0  0  0  0
   12.8092   -8.6050   18.9580 C   0  0  0  0  0  0  0  0  0  0  0  0
  8  9  2  0  0  0
  9 10  1  0  0  0
 10  1  1  0  0  0
  1  2  2  0  0  0
  2  3  1  0  0  0
  3 21  1  0  0  0
 21 22  2  0  0  0
 21 23  1  0  0  0
 23 25  1  0  0  0
 25 26  1  0  0  0
 26 27  2  0  0  0
 27 28  1  0  0  0
 28 29  2  0  0  0
 29 30  1  0  0  0
 30 31  2  0  0  0
  3  4  2  0  0  0
  4  5  1  0  0  0
  5  6  2  0  0  0
  6  7  1  0  0  0
  9 12  1  0  0  0
 12 13  2  0  0  0
 13 14  1  0  0  0
 14 15  1  0  0  0
 15 16  2  0  0  0
 14 17  1  0  0  0
 17 18  2  0  0  0
 18 19  1  0  0  0
 19 20  2  0  0  0
  6  1  1  0  0  0
 16 12  1  0  0  0
 31 26  1  0  0  0
 20 13  1  0  0  0
 10 11  1  0  0  0
 23 24  1  0  0  0
M  END
>  <minimizedAffinity>
-11.23028

>  <minimizedRMSD>
0.67701

$$$$
CHEMBL1598296 MCULE-5627466092 MolPort-002-737-614 PubChem-135413767


 31 35  0  0  0  0  0  0  0  0999 V2000
   18.1900   -7.7169    5.9399 C   0  0  0  0  0  0  0  0  0  0  0  0
   17.0913   -8.4353    6.4485 C   0  0  0  0  0  0  0  0  0  0  0  0
   17.1465   -8.8365    7.7808 C   0  0  0  0  0  0  0  0  0  0  0  0
   18.2277   -8.5486    8.5752 C   0  0  0  0  0  0  0  0  0  0  0  0
   19.3317   -7.8392    8.1046 C   0  0  0  0  0  0  0  0  0  0  0  0
   19.3013   -7.4211    6.7617 C   0  0  0  0  0  0  0  0  0  0  0  0
   17.9954   -9.0565    9.7931 N   0  0  0  0  0  0  0  0  0  0  0  0
   18.7247   -9.0703   10.9374 C   0  0  0  0  0  0  0  0  0  0  0  0
   20.0475   -8.5290   10.9642 N   0  0  0  0  0  0  0  0  0  0  0  0
   20.7863   -8.4699   12.1796 C   0  0  0  0  0  0  0  0  0  0  0  0
   21.9973   -8.1302   12.1639 O   0  0  0  0  0  0  0  0  0  0  0  0
   20.0975   -8.7161   13.4785 C   0  0  0  0  0  0  0  0  0  0  0  0
   18.9872   -9.7726   13.3712 C   0  0  0  0  0  0  0  0  0  0  0  0
   18.1704   -9.6959   12.0791 C   0  0  0  0  0  0  0  0  0  0  0  0
   16.9129  -10.3528   11.9247 C   0  0  0  0  0  0  0  0  0  0  0  0
   16.4076  -11.0095   12.8729 O   0  0  0  0  0  0  0  0  0  0  0  0
   16.2396  -10.2952   10.7393 N   0  0  0  0  0  0  0  0  0  0  0  0
   16.7850   -9.6369    9.6915 C   0  0  0  0  0  0  0  0  0  0  0  0
   16.2118   -9.5331    8.4659 N   0  0  0  0  0  0  0  0  0  0  0  0
   20.4524   -8.1930   10.1321 H   0  0  0  0  0  0  0  0  0  0  0  0
   15.3614  -10.7305   10.6474 H   0  0  0  0  0  0  0  0  0  0  0  0
   18.1536   -9.7058   14.6176 C   0  0  0  0  0  0  0  0  0  0  0  0
   18.2945  -10.7004   15.5903 C   0  0  0  0  0  0  0  0  0  0  0  0
   17.5255  -10.6561   16.7556 C   0  0  0  0  0  0  0  0  0  0  0  0
   16.6117   -9.6173   16.9566 C   0  0  0  0  0  0  0  0  0  0  0  0
   15.8536   -9.5880   18.1205 O   0  0  0  0  0  0  0  0  0  0  0  0
   16.4622   -8.6124   15.9900 C   0  0  0  0  0  0  0  0  0  0  0  0
   17.2387   -8.6623   14.8211 C   0  0  0  0  0  0  0  0  0  0  0  0
   15.9566  -10.2614   18.7638 H   0  0  0  0  0  0  0  0  0  0  0  0
   15.5429   -7.5809   16.2088 O   0  0  0  0  0  0  0  0  0  0  0  0
   14.6582   -7.5633   17.3208 C   0  0  0  0  0  0  0  0  0  0  0  0
  1  2  2  0  0  0
  2  3  1  0  0  0
  3  4  2  0  0  0
  4  5  1  0  0  0
  5  6  2  0  0  0
  4  7  1  0  0  0
  7  8  1  0  0  0
  8  9  1  0  0  0
  9 10  1  0  0  0
 10 11  2  0  0  0
 10 12  1  0  0  0
 12 13  1  0  0  0
 13 22  1  0  0  0
 22 23  2  0  0  0
 23 24  1  0  0  0
 24 25  2  0  0  0
 25 26  1  0  0  0
 25 27  1  0  0  0
 27 30  1  0  0  0
 30 31  1  0  0  0
 27 28  2  0  0  0
 13 14  1  0  0  0
 14 15  1  0  0  0
 15 16  2  0  0  0
 15 17  1  0  0  0
 17 18  1  0  0  0
 18 19  2  0  0  0
  6  1  1  0  0  0
 18  7  1  0  0  0
 19  3  1  0  0  0
 14  8  2  0  0  0
 28 22  1  0  0  0
  9 20  1  0  0  0
 26 29  1  0  0  0
 17 21  1  0  0  0
M  END
>  <minimizedAffinity>
5.93182

>  <minimizedRMSD>
0.67912

$$$$
CHEMBL3680437 PubChem-68078784


 36 39  0  0  0  0  0  0  0  0999 V2000
   16.6067   -9.2969   16.8065 C   0  0  0  0  0  0  0  0  0  0  0  0
   17.3809  -10.4475   17.0068 C   0  0  0  0  0  0  0  0  0  0  0  0
   17.8591  -11.1804   15.9155 C   0  0  0  0  0  0  0  0  0  0  0  0
   17.5592  -10.7695   14.6140 C   0  0  0  0  0  0  0  0  0  0  0  0
   16.7838   -9.6216   14.4030 C   0  0  0  0  0  0  0  0  0  0  0  0
   16.3063   -8.8912   15.4969 C   0  0  0  0  0  0  0  0  0  0  0  0
   14.9277   -7.7834   18.0252 C   0  0  0  0  0  0  0  0  0  0  0  0
   14.2246   -7.5843   16.9963 O   0  0  0  0  0  0  0  0  0  0  0  0
   16.1177   -8.5851   17.9524 N   0  0  0  0  0  0  0  0  0  0  0  0
   16.6539   -8.6532   18.7752 H   0  0  0  0  0  0  0  0  0  0  0  0
   14.9758   -6.7111   21.6454 C   0  0  0  0  0  0  0  0  0  0  0  0
   13.8043   -6.0168   21.7214 N   0  0  0  0  0  0  0  0  0  0  0  0
   12.9870   -5.8784   20.6438 C   0  0  0  0  0  0  0  0  0  0  0  0
   13.3369   -6.4555   19.4195 C   0  0  0  0  0  0  0  0  0  0  0  0
   14.5367   -7.1709   19.3085 C   0  0  0  0  0  0  0  0  0  0  0  0
   15.3602   -7.2962   20.4341 C   0  0  0  0  0  0  0  0  0  0  0  0
   15.3409   -7.3892   23.9854 C   0  0  0  0  0  0  0  0  0  0  0  0
   15.8059   -6.8407   22.7606 O   0  0  0  0  0  0  0  0  0  0  0  0
   16.4353   -9.1910   13.0203 C   0  0  0  0  0  0  0  0  0  0  0  0
   17.3296   -9.8194   12.0592 N   0  0  0  0  0  0  0  0  0  0  0  0
   18.1026  -10.3306   12.3913 H   0  0  0  0  0  0  0  0  0  0  0  0
   17.1214   -9.7181   10.6470 C   0  0  0  0  0  0  0  0  0  0  0  0
   16.0224  -10.2849   10.0783 N   0  0  0  0  0  0  0  0  0  0  0  0
   15.8093  -10.2209    8.7397 C   0  0  0  0  0  0  0  0  0  0  0  0
   16.7034   -9.5885    7.9360 N   0  0  0  0  0  0  0  0  0  0  0  0
   17.8233   -9.0013    8.4407 C   0  0  0  0  0  0  0  0  0  0  0  0
   18.0530   -9.0528    9.8360 C   0  0  0  0  0  0  0  0  0  0  0  0
   19.1922   -8.4517   10.3816 C   0  0  0  0  0  0  0  0  0  0  0  0
   20.1086   -7.8079    9.5524 C   0  0  0  0  0  0  0  0  0  0  0  0
   19.8906   -7.7563    8.1758 C   0  0  0  0  0  0  0  0  0  0  0  0
   18.7534   -8.3418    7.5974 C   0  0  0  0  0  0  0  0  0  0  0  0
   18.5885   -8.2381    6.1245 C   0  0  0  0  0  0  0  0  0  0  0  0
   19.5997   -8.3070    5.3735 O   0  0  0  0  0  0  0  0  0  0  0  0
   17.3076   -8.0574    5.5274 N   0  0  0  0  0  0  0  0  0  0  0  0
   16.5041   -8.0009    6.0935 H   0  0  0  0  0  0  0  0  0  0  0  0
   17.2259   -7.9891    4.5487 H   0  0  0  0  0  0  0  0  0  0  0  0
 17 18  1  0  0  0
 18 11  1  0  0  0
 11 12  2  0  0  0
 12 13  1  0  0  0
 13 14  2  0  0  0
 14 15  1  0  0  0
 15 16  2  0  0  0
 15  7  1  0  0  0
 16 11  1  0  0  0
  7  8  2  0  0  0
  7  9  1  0  0  0
  9  1  1  0  0  0
  1  2  2  0  0  0
  2  3  1  0  0  0
  3  4  2  0  0  0
  4  5  1  0  0  0
  5  6  2  0  0  0
  5 19  1  0  0  0
  6  1  1  0  0  0
 19 20  1  0  0  0
 20 22  1  0  0  0
 22 23  2  0  0  0
 23 24  1  0  0  0
 24 25  2  0  0  0
 25 26  1  0  0  0
 26 27  2  0  0  0
 27 28  1  0  0  0
 27 22  1  0  0  0
 28 29  2  0  0  0
 29 30  1  0  0  0
 30 31  2  0  0  0
 31 32  1  0  0  0
 31 26  1  0  0  0
 32 33  2  0  0  0
 32 34  1  0  0  0
  9 10  1  0  0  0
 20 21  1  0  0  0
 34 35  1  0  0  0
 34 36  1  0  0  0
M  END
>  <minimizedAffinity>
-9.19230

>  <minimizedRMSD>
0.68969

$$$$
CHEMBL5198072


 29 32  0  0  0  0  0  0  0  0999 V2000
   16.6519  -10.8719   11.2566 C   0  0  0  0  0  0  0  0  0  0  0  0
   19.0868   -7.3172    6.4333 C   0  0  0  0  0  0  0  0  0  0  0  0
   20.0932   -7.6138    7.3710 C   0  0  0  0  0  0  0  0  0  0  0  0
   21.2691   -7.1944    7.2022 O   0  0  0  0  0  0  0  0  0  0  0  0
   19.7996   -8.3587    8.4719 N   0  0  0  0  0  0  0  0  0  0  0  0
   18.5467   -8.8350    8.6957 C   0  0  0  0  0  0  0  0  0  0  0  0
   17.5129   -8.5629    7.7784 C   0  0  0  0  0  0  0  0  0  0  0  0
   17.7925   -7.8020    6.6444 C   0  0  0  0  0  0  0  0  0  0  0  0
   16.2589   -9.0382    8.0028 N   0  0  0  0  0  0  0  0  0  0  0  0
   15.9710   -9.7822    9.1054 C   0  0  0  0  0  0  0  0  0  0  0  0
   16.9723  -10.0796   10.0361 C   0  0  0  0  0  0  0  0  0  0  0  0
   18.2672   -9.5961    9.8306 C   0  0  0  0  0  0  0  0  0  0  0  0
   20.5122   -8.5572    9.1217 H   0  0  0  0  0  0  0  0  0  0  0  0
   19.3774   -6.5175    5.2055 C   0  0  0  0  0  0  0  0  0  0  0  0
   19.7976   -7.4338    4.0720 C   0  0  0  0  0  0  0  0  0  0  0  0
   16.7021  -10.0175   12.4317 N   0  0  0  0  0  0  0  0  0  0  0  0
   17.6801  -10.6168   13.3484 C   0  0  0  0  0  0  0  0  0  0  0  0
   17.6072   -9.9348   14.6764 C   0  0  0  0  0  0  0  0  0  0  0  0
   16.4986   -9.3112   15.0878 N   0  0  0  0  0  0  0  0  0  0  0  0
   15.3171   -9.1011   14.2544 C   0  0  0  0  0  0  0  0  0  0  0  0
   15.3672  -10.0461   13.0451 C   0  0  0  0  0  0  0  0  0  0  0  0
   16.7791   -8.8766   16.3314 C   0  0  0  0  0  0  0  0  0  0  0  0
   18.0223   -9.2373   16.7244 N   0  0  0  0  0  0  0  0  0  0  0  0
   18.5506   -9.9182   15.6800 C   0  0  0  0  0  0  0  0  0  0  0  0
   15.8634   -8.1016   17.1854 C   0  0  0  0  0  0  0  0  0  0  0  0
   14.9800   -7.3648   16.6695 O   0  0  0  0  0  0  0  0  0  0  0  0
   15.9814   -8.1907   18.6064 N   0  0  0  0  0  0  0  0  0  0  0  0
   15.1069   -7.4507   19.5003 C   0  0  0  0  0  0  0  0  0  0  0  0
   16.6767   -8.7715   18.9918 H   0  0  0  0  0  0  0  0  0  0  0  0
  2  3  1  0  0  0
  3  4  2  0  0  0
  3  5  1  0  0  0
  5  6  1  0  0  0
  6  7  2  0  0  0
  7  8  1  0  0  0
  7  9  1  0  0  0
  9 10  2  0  0  0
 10 11  1  0  0  0
 11 12  2  0  0  0
 11  1  1  0  0  0
  1 16  1  0  0  0
 16 17  1  0  0  0
 17 18  1  0  0  0
 18 19  1  0  0  0
 19 20  1  0  0  0
 20 21  1  0  0  0
 19 22  1  0  0  0
 22 23  2  0  0  0
 23 24  1  0  0  0
 22 25  1  0  0  0
 25 26  2  0  0  0
 25 27  1  0  0  0
 27 28  1  0  0  0
  2 14  1  0  0  0
 14 15  1  0  0  0
  8  2  2  0  0  0
 21 16  1  0  0  0
 12  6  1  0  0  0
 24 18  2  0  0  0
  5 13  1  0  0  0
 27 29  1  0  0  0
M  END
>  <minimizedAffinity>
-3.13502

>  <minimizedRMSD>
0.69670

$$$$
CHEMBL3809817 PubChem-76900805


 34 37  0  0  0  0  0  0  0  0999 V2000
   18.9190  -12.1778   13.5903 C   0  0  0  0  0  0  0  0  0  0  0  0
   18.2125  -11.3797   14.6334 C   0  0  0  0  0  0  0  0  0  0  0  0
   17.7869  -10.0606   14.3888 C   0  0  0  0  0  0  0  0  0  0  0  0
   17.1186   -9.3523   15.3931 C   0  0  0  0  0  0  0  0  0  0  0  0
   16.8797   -9.9383   16.6445 C   0  0  0  0  0  0  0  0  0  0  0  0
   17.3126  -11.2464   16.8805 C   0  0  0  0  0  0  0  0  0  0  0  0
   17.9746  -11.9638   15.8808 C   0  0  0  0  0  0  0  0  0  0  0  0
   16.2004   -9.2364   17.6945 N   0  0  0  0  0  0  0  0  0  0  0  0
   15.3312   -8.1039   17.5492 C   0  0  0  0  0  0  0  0  0  0  0  0
   15.0883   -7.6162   16.4124 O   0  0  0  0  0  0  0  0  0  0  0  0
   16.3455   -9.5660   18.6107 H   0  0  0  0  0  0  0  0  0  0  0  0
   14.7167   -7.5058   18.7410 C   0  0  0  0  0  0  0  0  0  0  0  0
   13.5402   -6.7910   18.7690 C   0  0  0  0  0  0  0  0  0  0  0  0
   13.2966   -6.4029   20.0335 N   0  0  0  0  0  0  0  0  0  0  0  0
   14.3084   -6.8679   20.7941 C   0  0  0  0  0  0  0  0  0  0  0  0
   15.2200   -7.5647   20.0230 C   0  0  0  0  0  0  0  0  0  0  0  0
   12.5244   -5.8777   20.3453 H   0  0  0  0  0  0  0  0  0  0  0  0
   17.9976   -9.4040   13.0649 C   0  0  0  0  0  0  0  0  0  0  0  0
   16.9771   -9.8489   12.1277 N   0  0  0  0  0  0  0  0  0  0  0  0
   16.1806  -10.3070   12.4811 H   0  0  0  0  0  0  0  0  0  0  0  0
   17.0813   -9.6496   10.7167 C   0  0  0  0  0  0  0  0  0  0  0  0
   16.1425  -10.2670    9.8606 C   0  0  0  0  0  0  0  0  0  0  0  0
   16.2149  -10.0966    8.5064 N   0  0  0  0  0  0  0  0  0  0  0  0
   17.2035   -9.3239    7.9917 C   0  0  0  0  0  0  0  0  0  0  0  0
   18.1293   -8.7104    8.7813 C   0  0  0  0  0  0  0  0  0  0  0  0
   18.1029   -8.8496   10.1640 C   0  0  0  0  0  0  0  0  0  0  0  0
   18.9888   -8.0073    7.9713 C   0  0  0  0  0  0  0  0  0  0  0  0
   18.4915   -8.2625    6.6886 C   0  0  0  0  0  0  0  0  0  0  0  0
   17.3992   -9.0672    6.6914 N   0  0  0  0  0  0  0  0  0  0  0  0
   16.8752   -9.3864    5.9215 H   0  0  0  0  0  0  0  0  0  0  0  0
   19.0754   -7.7256    5.4543 C   0  0  0  0  0  0  0  0  0  0  0  0
   20.0938   -6.9828    5.5097 O   0  0  0  0  0  0  0  0  0  0  0  0
   18.4958   -8.0435    4.2249 O   0  0  0  0  0  0  0  0  0  0  0  0
   19.1364   -7.7437    2.9941 C   0  0  0  0  0  0  0  0  0  0  0  0
  1  2  1  0  0  0
  2  3  2  0  0  0
  3  4  1  0  0  0
  3 18  1  0  0  0
  4  5  2  0  0  0
  5  6  1  0  0  0
  5  8  1  0  0  0
  6  7  2  0  0  0
  7  2  1  0  0  0
  8  9  1  0  0  0
  9 10  2  0  0  0
  9 12  1  0  0  0
 12 13  2  0  0  0
 13 14  1  0  0  0
 14 15  1  0  0  0
 15 16  2  0  0  0
 16 12  1  0  0  0
 18 19  1  0  0  0
 19 21  1  0  0  0
 21 22  2  0  0  0
 22 23  1  0  0  0
 23 24  2  0  0  0
 24 25  1  0  0  0
 25 26  2  0  0  0
 25 27  1  0  0  0
 26 21  1  0  0  0
 27 28  2  0  0  0
 28 29  1  0  0  0
 28 31  1  0  0  0
 29 24  1  0  0  0
 31 32  2  0  0  0
 31 33  1  0  0  0
 33 34  1  0  0  0
  8 11  1  0  0  0
 14 17  1  0  0  0
 19 20  1  0  0  0
 29 30  1  0  0  0
M  END
>  <minimizedAffinity>
-10.44096

>  <minimizedRMSD>
0.69788

$$$$
CHEMBL5207909 PubChem-144457007 PubChem-58945732


 37 41  0  0  0  0  0  0  0  0999 V2000
   15.4893   -8.2047   17.0445 C   0  0  0  0  0  0  0  0  0  0  0  0
   14.6748   -7.4449   16.4529 O   0  0  0  0  0  0  0  0  0  0  0  0
   15.5527   -8.2334   18.4788 N   0  0  0  0  0  0  0  0  0  0  0  0
   16.2087   -8.8493   18.8783 H   0  0  0  0  0  0  0  0  0  0  0  0
   19.0193  -11.6152   13.9982 C   0  0  0  0  0  0  0  0  0  0  0  0
   18.0952  -10.7229   14.7572 C   0  0  0  0  0  0  0  0  0  0  0  0
   17.2132   -9.8420   14.1025 C   0  0  0  0  0  0  0  0  0  0  0  0
   16.3657   -9.0234   14.8559 C   0  0  0  0  0  0  0  0  0  0  0  0
   16.3845   -9.0706   16.2568 C   0  0  0  0  0  0  0  0  0  0  0  0
   17.2650   -9.9505   16.8999 C   0  0  0  0  0  0  0  0  0  0  0  0
   18.1146  -10.7710   16.1541 C   0  0  0  0  0  0  0  0  0  0  0  0
   17.1591   -9.7585   12.6657 C   0  0  0  0  0  0  0  0  0  0  0  0
   17.1157   -9.6887   11.4631 C   0  0  0  0  0  0  0  0  0  0  0  0
   17.0679   -9.6049   10.0289 C   0  0  0  0  0  0  0  0  0  0  0  0
   16.1881  -10.2738    9.1890 C   0  0  0  0  0  0  0  0  0  0  0  0
   16.4660   -9.9283    7.9020 N   0  0  0  0  0  0  0  0  0  0  0  0
   17.4982   -9.0671    8.0054 C   0  0  0  0  0  0  0  0  0  0  0  0
   17.8751   -8.8589    9.2695 N   0  0  0  0  0  0  0  0  0  0  0  0
   18.8704   -8.0507    9.6282 N   0  0  0  0  0  0  0  0  0  0  0  0
   19.5592   -7.3856    8.6571 C   0  0  0  0  0  0  0  0  0  0  0  0
   19.2073   -7.5650    7.3046 C   0  0  0  0  0  0  0  0  0  0  0  0
   18.1521   -8.4249    6.9609 C   0  0  0  0  0  0  0  0  0  0  0  0
   14.7613   -7.4599   19.3906 C   0  0  0  0  0  0  0  0  0  0  0  0
   13.6239   -6.7552   18.9733 C   0  0  0  0  0  0  0  0  0  0  0  0
   12.8757   -5.9991   19.8844 C   0  0  0  0  0  0  0  0  0  0  0  0
   13.2559   -5.9793   21.2326 C   0  0  0  0  0  0  0  0  0  0  0  0
   14.3912   -6.6785   21.6679 C   0  0  0  0  0  0  0  0  0  0  0  0
   15.1376   -7.4150   20.7360 C   0  0  0  0  0  0  0  0  0  0  0  0
   14.7812   -6.6451   23.0500 N   0  0  0  0  0  0  0  0  0  0  0  0
   15.7814   -7.3419   23.6184 C   0  0  0  0  0  0  0  0  0  0  0  0
   15.8051   -7.0103   24.9587 C   0  0  0  0  0  0  0  0  0  0  0  0
   14.8256   -6.1166   25.2084 N   0  0  0  0  0  0  0  0  0  0  0  0
   14.2160   -5.9112   24.0255 C   0  0  0  0  0  0  0  0  0  0  0  0
   11.6299   -5.2910   19.4381 C   0  0  0  0  0  0  0  0  0  0  0  0
   10.5760   -6.1855   19.4255 F   0  0  0  0  0  0  0  0  0  0  0  0
   11.3301   -4.2511   20.3011 F   0  0  0  0  0  0  0  0  0  0  0  0
   11.7985   -4.7732   18.1655 F   0  0  0  0  0  0  0  0  0  0  0  0
  5  6  1  0  0  0
  6  7  2  0  0  0
  7  8  1  0  0  0
  7 12  1  0  0  0
  8  9  2  0  0  0
  9 10  1  0  0  0
  9  1  1  0  0  0
 10 11  2  0  0  0
 11  6  1  0  0  0
  1  2  2  0  0  0
  1  3  1  0  0  0
  3 23  1  0  0  0
 23 24  2  0  0  0
 24 25  1  0  0  0
 25 26  2  0  0  0
 25 34  1  0  0  0
 26 27  1  0  0  0
 27 28  2  0  0  0
 27 29  1  0  0  0
 28 23  1  0  0  0
 29 30  1  0  0  0
 30 31  2  0  0  0
 31 32  1  0  0  0
 32 33  2  0  0  0
 33 29  1  0  0  0
 34 35  1  0  0  0
 34 36  1  0  0  0
 34 37  1  0  0  0
 12 13  3  0  0  0
 13 14  1  0  0  0
 14 15  2  0  0  0
 15 16  1  0  0  0
 16 17  2  0  0  0
 17 18  1  0  0  0
 18 19  1  0  0  0
 18 14  1  0  0  0
 19 20  2  0  0  0
 20 21  1  0  0  0
 21 22  2  0  0  0
 22 17  1  0  0  0
  3  4  1  0  0  0
M  END
>  <minimizedAffinity>
-13.26142

>  <minimizedRMSD>
0.71186

$$$$
CHEMBL5193775 PubChem-164172189


 36 40  0  0  0  0  0  0  0  0999 V2000
   15.8457   -8.3803   18.6138 N   0  0  0  0  0  0  0  0  0  0  0  0
   15.7237   -8.3059   17.1848 C   0  0  0  0  0  0  0  0  0  0  0  0
   14.9830   -7.4373   16.6481 O   0  0  0  0  0  0  0  0  0  0  0  0
   16.4489   -9.0724   18.9694 H   0  0  0  0  0  0  0  0  0  0  0  0
   15.1259   -6.6160   21.8224 C   0  0  0  0  0  0  0  0  0  0  0  0
   13.9338   -5.9508   21.5095 C   0  0  0  0  0  0  0  0  0  0  0  0
   13.3549   -6.0767   20.2385 C   0  0  0  0  0  0  0  0  0  0  0  0
   13.9868   -6.8802   19.2789 C   0  0  0  0  0  0  0  0  0  0  0  0
   15.1805   -7.5516   19.5768 C   0  0  0  0  0  0  0  0  0  0  0  0
   15.7420   -7.4151   20.8495 C   0  0  0  0  0  0  0  0  0  0  0  0
   12.1301   -5.3952   19.9241 N   0  0  0  0  0  0  0  0  0  0  0  0
   11.7980   -4.8486   18.7410 C   0  0  0  0  0  0  0  0  0  0  0  0
   10.5354   -4.3067   18.8773 C   0  0  0  0  0  0  0  0  0  0  0  0
   10.0979   -4.5205   20.1356 N   0  0  0  0  0  0  0  0  0  0  0  0
   11.0908   -5.1880   20.7530 C   0  0  0  0  0  0  0  0  0  0  0  0
   14.9564   -7.1587   24.1096 F   0  0  0  0  0  0  0  0  0  0  0  0
   15.7236   -6.4651   23.1912 C   0  0  0  0  0  0  0  0  0  0  0  0
   17.0168   -6.9587   23.2276 F   0  0  0  0  0  0  0  0  0  0  0  0
   15.7479   -5.1269   23.5401 F   0  0  0  0  0  0  0  0  0  0  0  0
   16.4731   -9.2502   16.3374 C   0  0  0  0  0  0  0  0  0  0  0  0
   16.4352   -9.1331   14.9400 C   0  0  0  0  0  0  0  0  0  0  0  0
   17.1448  -10.0292   14.1353 C   0  0  0  0  0  0  0  0  0  0  0  0
   17.8978  -11.0498   14.7225 C   0  0  0  0  0  0  0  0  0  0  0  0
   17.9413  -11.1738   16.1137 C   0  0  0  0  0  0  0  0  0  0  0  0
   17.2314  -10.2773   16.9181 C   0  0  0  0  0  0  0  0  0  0  0  0
   17.1014   -9.8985   12.7067 C   0  0  0  0  0  0  0  0  0  0  0  0
   17.0652   -9.7849   11.5071 C   0  0  0  0  0  0  0  0  0  0  0  0
   17.0248   -9.6444   10.0769 C   0  0  0  0  0  0  0  0  0  0  0  0
   17.8517   -8.8872    9.3501 N   0  0  0  0  0  0  0  0  0  0  0  0
   18.8671   -8.1211    9.7433 N   0  0  0  0  0  0  0  0  0  0  0  0
   19.5731   -7.4320    8.8018 C   0  0  0  0  0  0  0  0  0  0  0  0
   19.2174   -7.5425    7.4432 C   0  0  0  0  0  0  0  0  0  0  0  0
   18.1406   -8.3592    7.0628 C   0  0  0  0  0  0  0  0  0  0  0  0
   17.4701   -9.0299    8.0785 C   0  0  0  0  0  0  0  0  0  0  0  0
   16.4154   -9.8579    7.9383 N   0  0  0  0  0  0  0  0  0  0  0  0
   16.1276  -10.2519    9.2091 C   0  0  0  0  0  0  0  0  0  0  0  0
 16 17  1  0  0  0
 17 18  1  0  0  0
 17 19  1  0  0  0
 17  5  1  0  0  0
  5  6  2  0  0  0
  6  7  1  0  0  0
  7 11  1  0  0  0
 11 12  1  0  0  0
 12 13  2  0  0  0
 13 14  1  0  0  0
 14 15  2  0  0  0
  7  8  2  0  0  0
  8  9  1  0  0  0
  9  1  1  0  0  0
  1  2  1  0  0  0
  2  3  2  0  0  0
  2 20  1  0  0  0
 20 21  2  0  0  0
 21 22  1  0  0  0
 22 23  2  0  0  0
 23 24  1  0  0  0
 24 25  2  0  0  0
 22 26  1  0  0  0
 26 27  3  0  0  0
 27 28  1  0  0  0
 28 29  1  0  0  0
 29 30  1  0  0  0
 30 31  2  0  0  0
 31 32  1  0  0  0
 32 33  2  0  0  0
 33 34  1  0  0  0
 34 35  2  0  0  0
 35 36  1  0  0  0
  9 10  2  0  0  0
 10  5  1  0  0  0
 15 11  1  0  0  0
 25 20  1  0  0  0
 36 28  2  0  0  0
 34 29  1  0  0  0
  1  4  1  0  0  0
M  END
>  <minimizedAffinity>
-11.79095

>  <minimizedRMSD>
0.72167

$$$$
CHEMBL3670446 PubChem-66764015


 29 31  0  0  0  0  0  0  0  0999 V2000
   17.0098   -9.7668   10.6931 C   0  0  0  0  0  0  0  0  0  0  0  0
   15.9206  -10.2768   10.0614 N   0  0  0  0  0  0  0  0  0  0  0  0
   15.7432  -10.1516    8.7234 C   0  0  0  0  0  0  0  0  0  0  0  0
   16.6654   -9.5027    7.9724 N   0  0  0  0  0  0  0  0  0  0  0  0
   17.7830   -8.9636    8.5280 C   0  0  0  0  0  0  0  0  0  0  0  0
   17.9872   -9.0839    9.9271 C   0  0  0  0  0  0  0  0  0  0  0  0
   19.1383   -8.5279   10.4980 C   0  0  0  0  0  0  0  0  0  0  0  0
   20.0761   -7.8639    9.7116 C   0  0  0  0  0  0  0  0  0  0  0  0
   19.8751   -7.7463    8.3383 C   0  0  0  0  0  0  0  0  0  0  0  0
   18.7369   -8.2878    7.7250 C   0  0  0  0  0  0  0  0  0  0  0  0
   18.5897   -8.1234    6.2565 C   0  0  0  0  0  0  0  0  0  0  0  0
   17.7364   -8.7853    5.6085 O   0  0  0  0  0  0  0  0  0  0  0  0
   19.4216   -7.2044    5.5529 N   0  0  0  0  0  0  0  0  0  0  0  0
   20.0951   -6.6772    6.0406 H   0  0  0  0  0  0  0  0  0  0  0  0
   19.3228   -7.0967    4.5793 H   0  0  0  0  0  0  0  0  0  0  0  0
   17.0970   -9.9573   12.1156 N   0  0  0  0  0  0  0  0  0  0  0  0
   16.3454   -9.6158   12.6521 H   0  0  0  0  0  0  0  0  0  0  0  0
   18.1782  -10.6012   12.8466 C   0  0  0  0  0  0  0  0  0  0  0  0
   16.7758   -9.6236   16.2308 C   0  0  0  0  0  0  0  0  0  0  0  0
   17.1016   -9.5964   14.8666 C   0  0  0  0  0  0  0  0  0  0  0  0
   17.8575  -10.6271   14.2987 C   0  0  0  0  0  0  0  0  0  0  0  0
   18.2815  -11.6991   15.0900 C   0  0  0  0  0  0  0  0  0  0  0  0
   17.9608  -11.7339   16.4495 C   0  0  0  0  0  0  0  0  0  0  0  0
   17.2116  -10.6996   17.0179 C   0  0  0  0  0  0  0  0  0  0  0  0
   15.0635   -7.4003   18.8858 C   0  0  0  0  0  0  0  0  0  0  0  0
   15.8354   -8.4544   18.2498 N   0  0  0  0  0  0  0  0  0  0  0  0
   15.9828   -8.5356   16.8296 C   0  0  0  0  0  0  0  0  0  0  0  0
   15.4329   -7.6743   16.0893 O   0  0  0  0  0  0  0  0  0  0  0  0
   16.2705   -9.1338   18.8140 H   0  0  0  0  0  0  0  0  0  0  0  0
 25 26  1  0  0  0
 26 27  1  0  0  0
 27 28  2  0  0  0
 27 19  1  0  0  0
 19 20  2  0  0  0
 20 21  1  0  0  0
 21 22  2  0  0  0
 21 18  1  0  0  0
 22 23  1  0  0  0
 23 24  2  0  0  0
 24 19  1  0  0  0
 18 16  1  0  0  0
 16  1  1  0  0  0
  1  2  2  0  0  0
  2  3  1  0  0  0
  3  4  2  0  0  0
  4  5  1  0  0  0
  5  6  2  0  0  0
  6  7  1  0  0  0
  6  1  1  0  0  0
  7  8  2  0  0  0
  8  9  1  0  0  0
  9 10  2  0  0  0
 10 11  1  0  0  0
 10  5  1  0  0  0
 11 12  2  0  0  0
 11 13  1  0  0  0
 26 29  1  0  0  0
 16 17  1  0  0  0
 13 14  1  0  0  0
 13 15  1  0  0  0
M  END
>  <minimizedAffinity>
-8.45898

>  <minimizedRMSD>
0.72606

$$$$
CHEMBL4437170 PubChem-58138841


 33 36  0  0  0  0  0  0  0  0999 V2000
   19.2262   -9.7863   12.4741 N   0  0  0  0  0  0  0  0  0  0  0  0
   18.5693  -10.1385   11.2519 C   0  0  0  0  0  0  0  0  0  0  0  0
   17.9426  -11.2297   11.1685 O   0  0  0  0  0  0  0  0  0  0  0  0
   19.7506   -8.9537   12.5030 H   0  0  0  0  0  0  0  0  0  0  0  0
   18.6332   -9.2221   10.0942 C   0  0  0  0  0  0  0  0  0  0  0  0
   18.0354   -9.5105    8.8575 C   0  0  0  0  0  0  0  0  0  0  0  0
   17.3054  -10.5997    8.4173 C   0  0  0  0  0  0  0  0  0  0  0  0
   16.9627  -10.3624    7.1270 N   0  0  0  0  0  0  0  0  0  0  0  0
   17.4443   -9.1821    6.7499 N   0  0  0  0  0  0  0  0  0  0  0  0
   18.1035   -8.6471    7.7972 C   0  0  0  0  0  0  0  0  0  0  0  0
   18.7736   -7.4261    7.8851 C   0  0  0  0  0  0  0  0  0  0  0  0
   19.3843   -7.1031    9.1082 C   0  0  0  0  0  0  0  0  0  0  0  0
   19.3145   -7.9919   10.2012 C   0  0  0  0  0  0  0  0  0  0  0  0
   17.2527   -8.6354    5.4304 C   0  0  0  0  0  0  0  0  0  0  0  0
   17.7798   -7.3835    5.0740 C   0  0  0  0  0  0  0  0  0  0  0  0
   17.5842   -6.8686    3.7894 C   0  0  0  0  0  0  0  0  0  0  0  0
   16.8587   -7.6008    2.8469 C   0  0  0  0  0  0  0  0  0  0  0  0
   16.3291   -8.8473    3.1888 C   0  0  0  0  0  0  0  0  0  0  0  0
   16.5253   -9.3612    4.4738 C   0  0  0  0  0  0  0  0  0  0  0  0
   16.6687   -7.1023    1.6019 F   0  0  0  0  0  0  0  0  0  0  0  0
   19.1534  -10.6048   13.6770 C   0  0  0  0  0  0  0  0  0  0  0  0
   16.1758   -9.1950   15.5535 C   0  0  0  0  0  0  0  0  0  0  0  0
   15.2680  -10.2554   15.4587 C   0  0  0  0  0  0  0  0  0  0  0  0
   15.6266  -11.4276   14.7866 C   0  0  0  0  0  0  0  0  0  0  0  0
   16.8946  -11.5423   14.2093 C   0  0  0  0  0  0  0  0  0  0  0  0
   17.8065  -10.4860   14.3057 C   0  0  0  0  0  0  0  0  0  0  0  0
   17.4456   -9.3126   14.9771 C   0  0  0  0  0  0  0  0  0  0  0  0
   15.7215   -7.7281   16.4051 S   0  0  0  0  0  0  0  0  0  0  0  0
   14.3860   -7.2594   15.9006 O   0  0  0  0  0  0  0  0  0  0  0  0
   16.7392   -6.6510   16.1478 O   0  0  0  0  0  0  0  0  0  0  0  0
   16.9368   -8.4285   18.5688 C   0  0  0  0  0  0  0  0  0  0  0  0
   15.6167   -8.0351   18.1062 N   0  0  0  0  0  0  0  0  0  0  0  0
   15.3156   -7.1910   18.5933 H   0  0  0  0  0  0  0  0  0  0  0  0
 31 32  1  0  0  0
 32 28  1  0  0  0
 28 29  2  0  0  0
 28 30  2  0  0  0
 28 22  1  0  0  0
 22 23  2  0  0  0
 23 24  1  0  0  0
 24 25  2  0  0  0
 25 26  1  0  0  0
 26 27  2  0  0  0
 26 21  1  0  0  0
 27 22  1  0  0  0
 21  1  1  0  0  0
  1  2  1  0  0  0
  2  3  2  0  0  0
  2  5  1  0  0  0
  5  6  2  0  0  0
  6  7  1  0  0  0
  7  8  2  0  0  0
  8  9  1  0  0  0
  9 10  1  0  0  0
  9 14  1  0  0  0
 10 11  2  0  0  0
 10  6  1  0  0  0
 11 12  1  0  0  0
 12 13  2  0  0  0
 13  5  1  0  0  0
 14 15  2  0  0  0
 15 16  1  0  0  0
 16 17  2  0  0  0
 17 18  1  0  0  0
 17 20  1  0  0  0
 18 19  2  0  0  0
 19 14  1  0  0  0
 32 33  1  0  0  0
  1  4  1  0  0  0
M  END
>  <minimizedAffinity>
25.82001

>  <minimizedRMSD>
0.72722

$$$$
CHEMBL4901038 67741489 MCULE-9954751332 MolPort-019-814-422 PubChem-56714047 ZINC000067741489 ZINC67741489


 25 28  0  0  0  0  0  0  0  0999 V2000
   16.5820   -9.1282   16.6970 C   0  0  0  0  0  0  0  0  0  0  0  0
   17.3084  -10.1077   17.3538 C   0  0  0  0  0  0  0  0  0  0  0  0
   18.1632  -10.6736   16.4706 N   0  0  0  0  0  0  0  0  0  0  0  0
   17.9303  -10.0296   15.3105 C   0  0  0  0  0  0  0  0  0  0  0  0
   18.6451  -10.3095   14.0287 C   0  0  0  0  0  0  0  0  0  0  0  0
   17.9063   -9.6925   12.9274 N   0  0  0  0  0  0  0  0  0  0  0  0
   17.4276   -8.3207   13.1081 C   0  0  0  0  0  0  0  0  0  0  0  0
   16.4923   -8.2410   14.3205 C   0  0  0  0  0  0  0  0  0  0  0  0
   16.9889   -9.0765   15.4159 N   0  0  0  0  0  0  0  0  0  0  0  0
   17.3956  -10.5115   11.8641 C   0  0  0  0  0  0  0  0  0  0  0  0
   17.2323  -11.7471   12.0551 O   0  0  0  0  0  0  0  0  0  0  0  0
   17.0385   -9.9449   10.5493 C   0  0  0  0  0  0  0  0  0  0  0  0
   17.7715   -9.1069    9.7339 C   0  0  0  0  0  0  0  0  0  0  0  0
   19.0428   -8.5605    9.9067 C   0  0  0  0  0  0  0  0  0  0  0  0
   19.5453   -7.7573    8.8714 C   0  0  0  0  0  0  0  0  0  0  0  0
   18.7860   -7.5349    7.7073 C   0  0  0  0  0  0  0  0  0  0  0  0
   17.5215   -8.1288    7.5847 C   0  0  0  0  0  0  0  0  0  0  0  0
   17.0728   -8.8949    8.6100 N   0  0  0  0  0  0  0  0  0  0  0  0
   15.9309   -9.5583    8.6445 N   0  0  0  0  0  0  0  0  0  0  0  0
   15.8811  -10.2240    9.8242 C   0  0  0  0  0  0  0  0  0  0  0  0
   15.5827   -7.9969   18.7017 N   0  0  0  0  0  0  0  0  0  0  0  0
   15.5394   -8.2858   17.3080 C   0  0  0  0  0  0  0  0  0  0  0  0
   14.6047   -7.8139   16.6092 O   0  0  0  0  0  0  0  0  0  0  0  0
   14.8857   -7.4339   19.1096 H   0  0  0  0  0  0  0  0  0  0  0  0
   16.3096   -8.3602   19.2574 H   0  0  0  0  0  0  0  0  0  0  0  0
 21 22  1  0  0  0
 22 23  2  0  0  0
 22  1  1  0  0  0
  1  2  2  0  0  0
  2  3  1  0  0  0
  3  4  2  0  0  0
  4  5  1  0  0  0
  5  6  1  0  0  0
  6  7  1  0  0  0
  6 10  1  0  0  0
  7  8  1  0  0  0
  8  9  1  0  0  0
  9  1  1  0  0  0
  9  4  1  0  0  0
 10 11  2  0  0  0
 10 12  1  0  0  0
 12 13  2  0  0  0
 13 14  1  0  0  0
 14 15  2  0  0  0
 15 16  1  0  0  0
 16 17  2  0  0  0
 17 18  1  0  0  0
 18 19  1  0  0  0
 18 13  1  0  0  0
 19 20  2  0  0  0
 20 12  1  0  0  0
 21 24  1  0  0  0
 21 25  1  0  0  0
M  END
>  <minimizedAffinity>
-5.48727

>  <minimizedRMSD>
0.72780

$$$$
CHEMBL1172720 PubChem-46837263


 32 35  0  0  0  0  0  0  0  0999 V2000
   18.8720  -11.8356   13.9609 C   0  0  0  0  0  0  0  0  0  0  0  0
   18.0165  -10.8929   14.7393 C   0  0  0  0  0  0  0  0  0  0  0  0
   18.0360  -10.9676   16.1349 C   0  0  0  0  0  0  0  0  0  0  0  0
   17.2491  -10.1021   16.8986 C   0  0  0  0  0  0  0  0  0  0  0  0
   16.4321   -9.1501   16.2748 C   0  0  0  0  0  0  0  0  0  0  0  0
   16.4135   -9.0761   14.8750 C   0  0  0  0  0  0  0  0  0  0  0  0
   17.1983   -9.9393   14.1037 C   0  0  0  0  0  0  0  0  0  0  0  0
   15.6025   -8.2375   17.0813 C   0  0  0  0  0  0  0  0  0  0  0  0
   14.8815   -7.3764   16.5072 O   0  0  0  0  0  0  0  0  0  0  0  0
   15.6221   -8.3368   18.5136 N   0  0  0  0  0  0  0  0  0  0  0  0
   16.2054   -9.0301   18.8987 H   0  0  0  0  0  0  0  0  0  0  0  0
   14.8822   -7.5331   19.4427 C   0  0  0  0  0  0  0  0  0  0  0  0
   13.7149   -6.8505   19.0701 C   0  0  0  0  0  0  0  0  0  0  0  0
   13.0256   -6.0699   20.0012 C   0  0  0  0  0  0  0  0  0  0  0  0
   13.4956   -5.9703   21.3129 C   0  0  0  0  0  0  0  0  0  0  0  0
   14.6506   -6.6611   21.7048 C   0  0  0  0  0  0  0  0  0  0  0  0
   15.3464   -7.4268   20.7580 C   0  0  0  0  0  0  0  0  0  0  0  0
   15.1862   -6.5120   23.0992 C   0  0  0  0  0  0  0  0  0  0  0  0
   14.2359   -5.9325   23.9222 F   0  0  0  0  0  0  0  0  0  0  0  0
   15.5261   -7.7484   23.6206 F   0  0  0  0  0  0  0  0  0  0  0  0
   16.3109   -5.7086   23.0728 F   0  0  0  0  0  0  0  0  0  0  0  0
   17.1467   -9.8256   12.6689 C   0  0  0  0  0  0  0  0  0  0  0  0
   17.1043   -9.7302   11.4679 C   0  0  0  0  0  0  0  0  0  0  0  0
   17.0556   -9.6150   10.0360 C   0  0  0  0  0  0  0  0  0  0  0  0
   16.1693  -10.2585    9.1831 C   0  0  0  0  0  0  0  0  0  0  0  0
   16.4489   -9.8882    7.9034 N   0  0  0  0  0  0  0  0  0  0  0  0
   17.4887   -9.0384    8.0237 C   0  0  0  0  0  0  0  0  0  0  0  0
   18.1476   -8.3807    6.9922 C   0  0  0  0  0  0  0  0  0  0  0  0
   19.2110   -7.5377    7.3527 C   0  0  0  0  0  0  0  0  0  0  0  0
   19.5656   -7.3899    8.7082 C   0  0  0  0  0  0  0  0  0  0  0  0
   18.8717   -8.0688    9.6659 N   0  0  0  0  0  0  0  0  0  0  0  0
   17.8686   -8.8602    9.2915 N   0  0  0  0  0  0  0  0  0  0  0  0
  1  2  1  0  0  0
  2  3  2  0  0  0
  3  4  1  0  0  0
  4  5  2  0  0  0
  5  8  1  0  0  0
  5  6  1  0  0  0
  8  9  2  0  0  0
  8 10  1  0  0  0
 10 12  1  0  0  0
 12 13  2  0  0  0
 13 14  1  0  0  0
 14 15  2  0  0  0
 15 16  1  0  0  0
 16 18  1  0  0  0
 16 17  2  0  0  0
 18 19  1  0  0  0
 18 20  1  0  0  0
 18 21  1  0  0  0
 17 12  1  0  0  0
  6  7  2  0  0  0
  7 22  1  0  0  0
  7  2  1  0  0  0
 22 23  3  0  0  0
 23 24  1  0  0  0
 24 25  2  0  0  0
 25 26  1  0  0  0
 26 27  2  0  0  0
 27 28  1  0  0  0
 28 29  2  0  0  0
 29 30  1  0  0  0
 30 31  2  0  0  0
 31 32  1  0  0  0
 32 24  1  0  0  0
 32 27  1  0  0  0
 10 11  1  0  0  0
M  END
>  <minimizedAffinity>
-12.39663

>  <minimizedRMSD>
0.73035

$$$$
CHEMBL4960647 97102109 CSC028303240 MCULE-3165843326 MolPort-030-031-410 PubChem-86801650 Z1743526736 ZINC000097102109 ZINC97102109


 23 25  0  0  0  0  0  0  0  0999 V2000
   17.1350  -10.5803   12.7674 N   0  0  0  0  0  0  0  0  0  0  0  0
   16.4957  -11.1911   12.3345 H   0  0  0  0  0  0  0  0  0  0  0  0
   16.5633   -9.5194   16.2510 C   0  0  0  0  0  0  0  0  0  0  0  0
   17.3150  -10.4618   16.9635 C   0  0  0  0  0  0  0  0  0  0  0  0
   18.0116  -11.4514   16.2687 C   0  0  0  0  0  0  0  0  0  0  0  0
   17.9539  -11.4938   14.8754 C   0  0  0  0  0  0  0  0  0  0  0  0
   17.1957  -10.5405   14.1927 C   0  0  0  0  0  0  0  0  0  0  0  0
   16.5231   -9.5826   14.8906 N   0  0  0  0  0  0  0  0  0  0  0  0
   15.0955   -7.4026   19.1284 C   0  0  0  0  0  0  0  0  0  0  0  0
   15.8161   -8.4250   18.3887 N   0  0  0  0  0  0  0  0  0  0  0  0
   15.8200   -8.4661   16.9594 C   0  0  0  0  0  0  0  0  0  0  0  0
   15.1851   -7.5978   16.3008 O   0  0  0  0  0  0  0  0  0  0  0  0
   16.3171   -9.1106   18.8870 H   0  0  0  0  0  0  0  0  0  0  0  0
   17.9872   -9.7475   11.9345 C   0  0  0  0  0  0  0  0  0  0  0  0
   17.3800   -9.6073   10.5804 C   0  0  0  0  0  0  0  0  0  0  0  0
   16.2228  -10.2287   10.1354 C   0  0  0  0  0  0  0  0  0  0  0  0
   16.0273   -9.8988    8.8327 N   0  0  0  0  0  0  0  0  0  0  0  0
   17.0710   -9.1013    8.5306 C   0  0  0  0  0  0  0  0  0  0  0  0
   17.3177   -8.5129    7.2925 C   0  0  0  0  0  0  0  0  0  0  0  0
   18.4708   -7.7194    7.1740 C   0  0  0  0  0  0  0  0  0  0  0  0
   19.3323   -7.5383    8.2734 C   0  0  0  0  0  0  0  0  0  0  0  0
   19.0308   -8.1571    9.4951 C   0  0  0  0  0  0  0  0  0  0  0  0
   17.9051   -8.9122    9.5631 N   0  0  0  0  0  0  0  0  0  0  0  0
  9 10  1  0  0  0
 10 11  1  0  0  0
 11 12  2  0  0  0
 11  3  1  0  0  0
  3  4  2  0  0  0
  4  5  1  0  0  0
  5  6  2  0  0  0
  6  7  1  0  0  0
  7  1  1  0  0  0
  7  8  2  0  0  0
  1 14  1  0  0  0
 14 15  1  0  0  0
 15 16  2  0  0  0
 16 17  1  0  0  0
 17 18  2  0  0  0
 18 19  1  0  0  0
 19 20  2  0  0  0
 20 21  1  0  0  0
 21 22  2  0  0  0
 22 23  1  0  0  0
 23 15  1  0  0  0
 23 18  1  0  0  0
  8  3  1  0  0  0
 10 13  1  0  0  0
  1  2  1  0  0  0
M  END
>  <minimizedAffinity>
-9.02409

>  <minimizedRMSD>
0.73194

$$$$
CHEMBL5311883 CSC027130833 MCULE-6982095340 MolPort-027-917-251 Z1480758302


 27 30  0  0  0  0  0  0  0  0999 V2000
   17.0081   -9.5488   13.1122 N   0  0  0  0  0  0  0  0  0  0  0  0
   16.4042   -8.8608   12.7500 H   0  0  0  0  0  0  0  0  0  0  0  0
   17.0774   -9.7190   14.5294 C   0  0  0  0  0  0  0  0  0  0  0  0
   17.9230  -10.6777   15.1067 C   0  0  0  0  0  0  0  0  0  0  0  0
   17.9732  -10.8256   16.4950 C   0  0  0  0  0  0  0  0  0  0  0  0
   17.1792  -10.0171   17.3126 C   0  0  0  0  0  0  0  0  0  0  0  0
   16.3304   -9.0559   16.7468 C   0  0  0  0  0  0  0  0  0  0  0  0
   16.2852   -8.9130   15.3531 C   0  0  0  0  0  0  0  0  0  0  0  0
   15.4944   -8.2047   17.6077 C   0  0  0  0  0  0  0  0  0  0  0  0
   14.4232   -7.5201   17.1714 N   0  0  0  0  0  0  0  0  0  0  0  0
   13.9371   -6.8805   18.2200 N   0  0  0  0  0  0  0  0  0  0  0  0
   14.7170   -7.1844   19.2753 C   0  0  0  0  0  0  0  0  0  0  0  0
   15.7142   -8.0215   18.9241 N   0  0  0  0  0  0  0  0  0  0  0  0
   16.4248   -8.4032   19.4885 H   0  0  0  0  0  0  0  0  0  0  0  0
   17.7908  -10.3475   12.1808 C   0  0  0  0  0  0  0  0  0  0  0  0
   15.4191  -10.7750   10.5999 O   0  0  0  0  0  0  0  0  0  0  0  0
   16.4593  -10.0254   10.0630 C   0  0  0  0  0  0  0  0  0  0  0  0
   17.6346   -9.8072   10.8002 C   0  0  0  0  0  0  0  0  0  0  0  0
   18.6600   -9.0397   10.2419 C   0  0  0  0  0  0  0  0  0  0  0  0
   18.5120   -8.5119    8.9599 C   0  0  0  0  0  0  0  0  0  0  0  0
   19.5274   -7.7457    8.3820 C   0  0  0  0  0  0  0  0  0  0  0  0
   19.3590   -7.2248    7.0948 C   0  0  0  0  0  0  0  0  0  0  0  0
   18.1773   -7.4692    6.3861 C   0  0  0  0  0  0  0  0  0  0  0  0
   17.1578   -8.2352    6.9609 C   0  0  0  0  0  0  0  0  0  0  0  0
   17.3195   -8.7588    8.2468 C   0  0  0  0  0  0  0  0  0  0  0  0
   16.3321   -9.5021    8.8130 N   0  0  0  0  0  0  0  0  0  0  0  0
   15.4989  -11.1386   11.4597 H   0  0  0  0  0  0  0  0  0  0  0  0
 16 17  1  0  0  0
 17 18  2  0  0  0
 18 15  1  0  0  0
 18 19  1  0  0  0
 15  1  1  0  0  0
  1  3  1  0  0  0
  3  4  2  0  0  0
  4  5  1  0  0  0
  5  6  2  0  0  0
  6  7  1  0  0  0
  7  8  2  0  0  0
  7  9  1  0  0  0
  8  3  1  0  0  0
  9 10  2  0  0  0
 10 11  1  0  0  0
 11 12  2  0  0  0
 12 13  1  0  0  0
 13  9  1  0  0  0
 19 20  2  0  0  0
 20 21  1  0  0  0
 21 22  2  0  0  0
 22 23  1  0  0  0
 23 24  2  0  0  0
 24 25  1  0  0  0
 25 26  2  0  0  0
 25 20  1  0  0  0
 26 17  1  0  0  0
 16 27  1  0  0  0
  1  2  1  0  0  0
 13 14  1  0  0  0
M  END
>  <minimizedAffinity>
-10.00513

>  <minimizedRMSD>
0.73217

$$$$
CHEMBL4874374 PubChem-164626758


 34 37  0  0  0  0  0  0  0  0999 V2000
   18.5279  -12.3468   13.5958 C   0  0  0  0  0  0  0  0  0  0  0  0
   17.9376  -11.4592   14.6378 C   0  0  0  0  0  0  0  0  0  0  0  0
   17.0689  -10.3937   14.3135 C   0  0  0  0  0  0  0  0  0  0  0  0
   16.4568   -9.6728   15.3441 C   0  0  0  0  0  0  0  0  0  0  0  0
   16.7272   -9.9652   16.6882 C   0  0  0  0  0  0  0  0  0  0  0  0
   17.6091  -11.0034   16.9969 C   0  0  0  0  0  0  0  0  0  0  0  0
   18.2048  -11.7505   15.9785 C   0  0  0  0  0  0  0  0  0  0  0  0
   16.1237   -9.2305   17.7618 N   0  0  0  0  0  0  0  0  0  0  0  0
   15.2907   -8.0663   17.6479 C   0  0  0  0  0  0  0  0  0  0  0  0
   15.0176   -7.5801   16.5167 O   0  0  0  0  0  0  0  0  0  0  0  0
   16.2990   -9.5589   18.6732 H   0  0  0  0  0  0  0  0  0  0  0  0
   14.7505   -7.4341   18.8639 C   0  0  0  0  0  0  0  0  0  0  0  0
   13.5362   -6.7370   18.8292 C   0  0  0  0  0  0  0  0  0  0  0  0
   13.0453   -6.1554   19.9564 N   0  0  0  0  0  0  0  0  0  0  0  0
   13.7082   -6.2193   21.1448 C   0  0  0  0  0  0  0  0  0  0  0  0
   14.9181   -6.9181   21.2247 C   0  0  0  0  0  0  0  0  0  0  0  0
   15.4383   -7.5215   20.0793 C   0  0  0  0  0  0  0  0  0  0  0  0
   13.1189   -5.5948   22.3731 C   0  0  0  0  0  0  0  0  0  0  0  0
   11.7602   -5.8471   22.4101 F   0  0  0  0  0  0  0  0  0  0  0  0
   13.3233   -4.2262   22.3645 F   0  0  0  0  0  0  0  0  0  0  0  0
   13.7115   -6.1264   23.5046 F   0  0  0  0  0  0  0  0  0  0  0  0
   16.7394  -10.0537   12.9605 N   0  0  0  0  0  0  0  0  0  0  0  0
   17.6897   -9.7082   11.9463 C   0  0  0  0  0  0  0  0  0  0  0  0
   18.8843   -9.4490   12.2549 O   0  0  0  0  0  0  0  0  0  0  0  0
   15.7875  -10.0579   12.7094 H   0  0  0  0  0  0  0  0  0  0  0  0
   17.2539   -9.6141   10.5456 C   0  0  0  0  0  0  0  0  0  0  0  0
   17.8321   -8.9086    9.5126 C   0  0  0  0  0  0  0  0  0  0  0  0
   18.9675   -8.0995    9.4974 C   0  0  0  0  0  0  0  0  0  0  0  0
   19.3152   -7.5041    8.2745 C   0  0  0  0  0  0  0  0  0  0  0  0
   18.5361   -7.7282    7.1232 C   0  0  0  0  0  0  0  0  0  0  0  0
   17.4050   -8.5538    7.2050 C   0  0  0  0  0  0  0  0  0  0  0  0
   17.1049   -9.1089    8.4056 N   0  0  0  0  0  0  0  0  0  0  0  0
   16.0842   -9.9077    8.6629 N   0  0  0  0  0  0  0  0  0  0  0  0
   16.1459  -10.2392    9.9763 C   0  0  0  0  0  0  0  0  0  0  0  0
  1  2  1  0  0  0
  2  3  2  0  0  0
  3  4  1  0  0  0
  4  5  2  0  0  0
  5  6  1  0  0  0
  6  7  2  0  0  0
  5  8  1  0  0  0
  8  9  1  0  0  0
  9 10  2  0  0  0
  9 12  1  0  0  0
 12 13  2  0  0  0
 13 14  1  0  0  0
 14 15  2  0  0  0
 15 16  1  0  0  0
 16 17  2  0  0  0
 15 18  1  0  0  0
 18 19  1  0  0  0
 18 20  1  0  0  0
 18 21  1  0  0  0
  3 22  1  0  0  0
 22 23  1  0  0  0
 23 24  2  0  0  0
 23 26  1  0  0  0
 26 27  2  0  0  0
 27 28  1  0  0  0
 28 29  2  0  0  0
 29 30  1  0  0  0
 30 31  2  0  0  0
 31 32  1  0  0  0
 32 33  1  0  0  0
 33 34  2  0  0  0
  7  2  1  0  0  0
 17 12  1  0  0  0
 34 26  1  0  0  0
 32 27  1  0  0  0
  8 11  1  0  0  0
 22 25  1  0  0  0
M  END
>  <minimizedAffinity>
-11.76015

>  <minimizedRMSD>
0.76456

$$$$
CHEMBL2336038 PubChem-71624792 ZINC000095587884


 29 32  0  0  0  0  0  0  0  0999 V2000
   18.7139  -12.0810   13.8498 C   0  0  0  0  0  0  0  0  0  0  0  0
   17.9273  -11.0912   14.6424 C   0  0  0  0  0  0  0  0  0  0  0  0
   17.7912  -11.2921   16.0190 C   0  0  0  0  0  0  0  0  0  0  0  0
   17.0627  -10.3875   16.7951 C   0  0  0  0  0  0  0  0  0  0  0  0
   16.4607   -9.2694   16.2030 C   0  0  0  0  0  0  0  0  0  0  0  0
   16.5978   -9.0691   14.8223 C   0  0  0  0  0  0  0  0  0  0  0  0
   17.3256   -9.9703   14.0387 C   0  0  0  0  0  0  0  0  0  0  0  0
   15.6920   -8.3159   17.0224 C   0  0  0  0  0  0  0  0  0  0  0  0
   15.0284   -7.4022   16.4606 O   0  0  0  0  0  0  0  0  0  0  0  0
   15.7053   -8.4355   18.4534 N   0  0  0  0  0  0  0  0  0  0  0  0
   16.2431   -9.1698   18.8287 H   0  0  0  0  0  0  0  0  0  0  0  0
   15.0180   -7.5987   19.3937 C   0  0  0  0  0  0  0  0  0  0  0  0
   13.7574   -7.0474   19.1161 C   0  0  0  0  0  0  0  0  0  0  0  0
   13.1178   -6.2362   20.0578 C   0  0  0  0  0  0  0  0  0  0  0  0
   13.7341   -5.9708   21.2835 C   0  0  0  0  0  0  0  0  0  0  0  0
   12.9345   -4.9552   22.4634 Cl  0  0  0  0  0  0  0  0  0  0  0  0
   14.9890   -6.5163   21.5667 C   0  0  0  0  0  0  0  0  0  0  0  0
   15.6275   -7.3275   20.6238 C   0  0  0  0  0  0  0  0  0  0  0  0
   17.4391   -9.7231   12.6243 C   0  0  0  0  0  0  0  0  0  0  0  0
   17.5342   -9.5165   11.4402 C   0  0  0  0  0  0  0  0  0  0  0  0
   17.6474   -9.2713   10.0310 C   0  0  0  0  0  0  0  0  0  0  0  0
   16.7496   -9.8700    9.1256 C   0  0  0  0  0  0  0  0  0  0  0  0
   16.8587   -9.6353    7.7849 N   0  0  0  0  0  0  0  0  0  0  0  0
   17.8468   -8.8163    7.3477 C   0  0  0  0  0  0  0  0  0  0  0  0
   18.1284   -8.4519    6.0510 C   0  0  0  0  0  0  0  0  0  0  0  0
   19.2349   -7.6080    6.2148 C   0  0  0  0  0  0  0  0  0  0  0  0
   19.5620   -7.4997    7.5266 N   0  0  0  0  0  0  0  0  0  0  0  0
   18.7036   -8.2431    8.1931 N   0  0  0  0  0  0  0  0  0  0  0  0
   18.6530   -8.4320    9.5329 C   0  0  0  0  0  0  0  0  0  0  0  0
  1  2  1  0  0  0
  2  3  2  0  0  0
  3  4  1  0  0  0
  4  5  2  0  0  0
  5  8  1  0  0  0
  5  6  1  0  0  0
  8  9  2  0  0  0
  8 10  1  0  0  0
 10 12  1  0  0  0
 12 13  2  0  0  0
 13 14  1  0  0  0
 14 15  2  0  0  0
 15 16  1  0  0  0
 15 17  1  0  0  0
 17 18  2  0  0  0
 18 12  1  0  0  0
  6  7  2  0  0  0
  7 19  1  0  0  0
  7  2  1  0  0  0
 19 20  3  0  0  0
 20 21  1  0  0  0
 21 22  1  0  0  0
 22 23  2  0  0  0
 23 24  1  0  0  0
 24 25  2  0  0  0
 25 26  1  0  0  0
 26 27  2  0  0  0
 27 28  1  0  0  0
 28 29  1  0  0  0
 28 24  1  0  0  0
 29 21  2  0  0  0
 10 11  1  0  0  0
M  END
>  <minimizedAffinity>
-11.88078

>  <minimizedRMSD>
0.76716

$$$$
CHEMBL3680500 PubChem-68078772


 37 40  0  0  0  0  0  0  0  0999 V2000
   16.9715  -10.1344   16.4851 C   0  0  0  0  0  0  0  0  0  0  0  0
   17.4631  -11.4033   16.8116 C   0  0  0  0  0  0  0  0  0  0  0  0
   18.2127  -12.1328   15.8837 C   0  0  0  0  0  0  0  0  0  0  0  0
   18.4767  -11.5951   14.6213 C   0  0  0  0  0  0  0  0  0  0  0  0
   17.9959  -10.3253   14.2883 C   0  0  0  0  0  0  0  0  0  0  0  0
   17.2403   -9.6005   15.2155 C   0  0  0  0  0  0  0  0  0  0  0  0
   15.4458   -8.2180   17.2528 C   0  0  0  0  0  0  0  0  0  0  0  0
   15.4014   -7.6773   16.1143 O   0  0  0  0  0  0  0  0  0  0  0  0
   16.2041   -9.4194   17.4629 N   0  0  0  0  0  0  0  0  0  0  0  0
   16.1962   -9.7913   18.3744 H   0  0  0  0  0  0  0  0  0  0  0  0
   13.3076   -6.4570   20.4852 C   0  0  0  0  0  0  0  0  0  0  0  0
   12.7938   -6.4555   19.2233 N   0  0  0  0  0  0  0  0  0  0  0  0
   13.4624   -7.0135   18.1786 C   0  0  0  0  0  0  0  0  0  0  0  0
   14.7133   -7.6116   18.3780 C   0  0  0  0  0  0  0  0  0  0  0  0
   15.2536   -7.6205   19.6692 C   0  0  0  0  0  0  0  0  0  0  0  0
   14.5517   -7.0428   20.7278 C   0  0  0  0  0  0  0  0  0  0  0  0
   11.4680   -4.9638   21.3482 C   0  0  0  0  0  0  0  0  0  0  0  0
   12.5870   -5.8651   21.5661 N   0  0  0  0  0  0  0  0  0  0  0  0
   12.8569   -6.0743   22.4894 H   0  0  0  0  0  0  0  0  0  0  0  0
   18.2554   -9.7613   12.9369 C   0  0  0  0  0  0  0  0  0  0  0  0
   17.0725   -9.9170   12.1034 N   0  0  0  0  0  0  0  0  0  0  0  0
   16.2350  -10.1473   12.5669 H   0  0  0  0  0  0  0  0  0  0  0  0
   16.9971   -9.7701   10.6752 C   0  0  0  0  0  0  0  0  0  0  0  0
   15.9256  -10.3209   10.0476 N   0  0  0  0  0  0  0  0  0  0  0  0
   15.7606  -10.2392    8.7047 C   0  0  0  0  0  0  0  0  0  0  0  0
   16.6782   -9.5947    7.9442 N   0  0  0  0  0  0  0  0  0  0  0  0
   17.7784   -9.0166    8.4952 C   0  0  0  0  0  0  0  0  0  0  0  0
   17.9691   -9.0907    9.8994 C   0  0  0  0  0  0  0  0  0  0  0  0
   19.1025   -8.4945   10.4654 C   0  0  0  0  0  0  0  0  0  0  0  0
   20.0358   -7.8359    9.6693 C   0  0  0  0  0  0  0  0  0  0  0  0
   19.8483   -7.7641    8.2910 C   0  0  0  0  0  0  0  0  0  0  0  0
   18.7281   -8.3465    7.6823 C   0  0  0  0  0  0  0  0  0  0  0  0
   18.5946   -8.2301    6.2078 C   0  0  0  0  0  0  0  0  0  0  0  0
   17.6657   -8.8133    5.5891 O   0  0  0  0  0  0  0  0  0  0  0  0
   19.5265   -7.4480    5.4652 N   0  0  0  0  0  0  0  0  0  0  0  0
   20.2600   -6.9839    5.9297 H   0  0  0  0  0  0  0  0  0  0  0  0
   19.4366   -7.3718    4.4878 H   0  0  0  0  0  0  0  0  0  0  0  0
 17 18  1  0  0  0
 18 11  1  0  0  0
 11 12  2  0  0  0
 12 13  1  0  0  0
 13 14  2  0  0  0
 14 15  1  0  0  0
 14  7  1  0  0  0
 15 16  2  0  0  0
 16 11  1  0  0  0
  7  8  2  0  0  0
  7  9  1  0  0  0
  9  1  1  0  0  0
  1  2  2  0  0  0
  2  3  1  0  0  0
  3  4  2  0  0  0
  4  5  1  0  0  0
  5  6  2  0  0  0
  5 20  1  0  0  0
  6  1  1  0  0  0
 20 21  1  0  0  0
 21 23  1  0  0  0
 23 24  2  0  0  0
 24 25  1  0  0  0
 25 26  2  0  0  0
 26 27  1  0  0  0
 27 28  2  0  0  0
 28 29  1  0  0  0
 28 23  1  0  0  0
 29 30  2  0  0  0
 30 31  1  0  0  0
 31 32  2  0  0  0
 32 33  1  0  0  0
 32 27  1  0  0  0
 33 34  2  0  0  0
 33 35  1  0  0  0
 18 19  1  0  0  0
  9 10  1  0  0  0
 21 22  1  0  0  0
 35 36  1  0  0  0
 35 37  1  0  0  0
M  END
>  <minimizedAffinity>
-9.34783

>  <minimizedRMSD>
0.78125

$$$$
CHEMBL166327 PubChem-14016381


 40 42  0  0  0  0  0  0  0  0999 V2000
   17.3451  -10.3741   14.2113 C   0  0  0  0  0  0  0  0  0  0  0  0
   18.0130  -11.3729   14.9346 C   0  0  0  0  0  0  0  0  0  0  0  0
   17.9687  -11.3780   16.3307 C   0  0  0  0  0  0  0  0  0  0  0  0
   17.2576  -10.3857   17.0105 C   0  0  0  0  0  0  0  0  0  0  0  0
   16.5858   -9.3815   16.2994 C   0  0  0  0  0  0  0  0  0  0  0  0
   16.6351   -9.3840   14.8975 C   0  0  0  0  0  0  0  0  0  0  0  0
   15.8360   -8.3361   17.0170 C   0  0  0  0  0  0  0  0  0  0  0  0
   15.2824   -7.4023   16.3741 O   0  0  0  0  0  0  0  0  0  0  0  0
   15.7385   -8.3769   18.4447 N   0  0  0  0  0  0  0  0  0  0  0  0
   16.1988   -9.1007   18.9280 H   0  0  0  0  0  0  0  0  0  0  0  0
   14.9876   -7.3934   19.2127 C   0  0  0  0  0  0  0  0  0  0  0  0
   13.5387   -7.4397   18.8364 C   0  0  0  0  0  0  0  0  0  0  0  0
   12.7718   -8.3003   19.3443 O   0  0  0  0  0  0  0  0  0  0  0  0
   13.0388   -6.5283   17.9164 O   0  0  0  0  0  0  0  0  0  0  0  0
   13.6064   -5.8868   17.5366 H   0  0  0  0  0  0  0  0  0  0  0  0
   15.1693   -7.6676   20.6970 C   0  0  0  0  0  0  0  0  0  0  0  0
   14.6845   -6.4854   21.5184 C   0  0  0  0  0  0  0  0  0  0  0  0
   15.4512   -6.3998   22.7911 C   0  0  0  0  0  0  0  0  0  0  0  0
   16.1076   -5.3603   23.0583 O   0  0  0  0  0  0  0  0  0  0  0  0
   15.4329   -7.4573   23.6914 O   0  0  0  0  0  0  0  0  0  0  0  0
   14.9446   -8.2323   23.4940 H   0  0  0  0  0  0  0  0  0  0  0  0
   17.3758  -10.3471   12.7827 N   0  0  0  0  0  0  0  0  0  0  0  0
   18.2288  -10.5312   12.3270 H   0  0  0  0  0  0  0  0  0  0  0  0
   16.2022  -10.0597   11.9719 C   0  0  0  0  0  0  0  0  0  0  0  0
   19.2163   -7.9072    5.1198 N   0  0  0  0  0  0  0  0  0  0  0  0
   18.8413   -8.1979    6.4604 C   0  0  0  0  0  0  0  0  0  0  0  0
   19.6112   -7.7549    7.4912 N   0  0  0  0  0  0  0  0  0  0  0  0
   19.2781   -8.0174    8.7828 C   0  0  0  0  0  0  0  0  0  0  0  0
   20.1064   -7.5381    9.8377 N   0  0  0  0  0  0  0  0  0  0  0  0
   18.1246   -8.7556    9.0593 C   0  0  0  0  0  0  0  0  0  0  0  0
   17.7438   -9.0469   10.3318 N   0  0  0  0  0  0  0  0  0  0  0  0
   16.6182   -9.7714   10.5737 C   0  0  0  0  0  0  0  0  0  0  0  0
   15.8345  -10.2106    9.5014 C   0  0  0  0  0  0  0  0  0  0  0  0
   16.2138   -9.9197    8.2279 N   0  0  0  0  0  0  0  0  0  0  0  0
   17.3418   -9.2035    7.9820 C   0  0  0  0  0  0  0  0  0  0  0  0
   17.7139   -8.9169    6.7082 N   0  0  0  0  0  0  0  0  0  0  0  0
   20.0321   -7.3868    4.9386 H   0  0  0  0  0  0  0  0  0  0  0  0
   18.6600   -8.2265    4.3728 H   0  0  0  0  0  0  0  0  0  0  0  0
   20.9167   -7.0190    9.6302 H   0  0  0  0  0  0  0  0  0  0  0  0
   19.8685   -7.7260   10.7744 H   0  0  0  0  0  0  0  0  0  0  0  0
 25 26  1  0  0  0
 26 27  2  0  0  0
 27 28  1  0  0  0
 28 29  1  0  0  0
 28 30  2  0  0  0
 30 31  1  0  0  0
 31 32  2  0  0  0
 32 24  1  0  0  0
 32 33  1  0  0  0
 24 22  1  0  0  0
 22  1  1  0  0  0
  1  2  2  0  0  0
  2  3  1  0  0  0
  3  4  2  0  0  0
  4  5  1  0  0  0
  5  7  1  0  0  0
  5  6  2  0  0  0
  7  8  2  0  0  0
  7  9  1  0  0  0
 11  9  1  0  0  0
 11 16  1  0  0  0
 11 12  1  0  0  0
 16 17  1  0  0  0
 17 18  1  0  0  0
 18 19  2  0  0  0
 18 20  1  0  0  0
 12 13  2  0  0  0
 12 14  1  0  0  0
  6  1  1  0  0  0
 33 34  2  0  0  0
 34 35  1  0  0  0
 35 36  2  0  0  0
 35 30  1  0  0  0
 36 26  1  0  0  0
 25 37  1  0  0  0
 25 38  1  0  0  0
 29 39  1  0  0  0
 29 40  1  0  0  0
 22 23  1  0  0  0
  9 10  1  0  0  0
 20 21  1  0  0  0
 14 15  1  0  0  0
M  END
>  <minimizedAffinity>
-8.99975

>  <minimizedRMSD>
0.78320

$$$$
CHEMBL5276135 PubChem-68070462


 32 35  0  0  0  0  0  0  0  0999 V2000
   17.5464   -9.3045   13.0916 C   0  0  0  0  0  0  0  0  0  0  0  0
   18.5524  -10.1372   13.9012 C   0  0  0  0  0  0  0  0  0  0  0  0
   18.2733  -10.1689   15.4058 C   0  0  0  0  0  0  0  0  0  0  0  0
   16.8796  -10.6930   15.7592 C   0  0  0  0  0  0  0  0  0  0  0  0
   15.7250   -9.8803   15.1579 C   0  0  0  0  0  0  0  0  0  0  0  0
   16.0861   -8.4750   14.9382 N   0  0  0  0  0  0  0  0  0  0  0  0
   16.9921   -8.0887   13.8470 C   0  0  0  0  0  0  0  0  0  0  0  0
   15.4887   -7.4492   15.7473 C   0  0  0  0  0  0  0  0  0  0  0  0
   15.7465   -6.2354   15.5261 O   0  0  0  0  0  0  0  0  0  0  0  0
   19.2794   -8.0247   11.7937 C   0  0  0  0  0  0  0  0  0  0  0  0
   18.1171   -8.9077   11.8065 N   0  0  0  0  0  0  0  0  0  0  0  0
   17.5191   -9.3994   10.5898 C   0  0  0  0  0  0  0  0  0  0  0  0
   16.4216  -10.2167   10.6473 N   0  0  0  0  0  0  0  0  0  0  0  0
   15.8220  -10.7069    9.5165 C   0  0  0  0  0  0  0  0  0  0  0  0
   16.3089  -10.3908    8.2807 N   0  0  0  0  0  0  0  0  0  0  0  0
   17.3935   -9.5844    8.2109 C   0  0  0  0  0  0  0  0  0  0  0  0
   18.0048   -9.0855    9.3148 C   0  0  0  0  0  0  0  0  0  0  0  0
   19.0530   -8.3239    8.8419 C   0  0  0  0  0  0  0  0  0  0  0  0
   19.0200   -8.4028    7.4866 N   0  0  0  0  0  0  0  0  0  0  0  0
   18.0082   -9.1722    7.0958 N   0  0  0  0  0  0  0  0  0  0  0  0
   17.7604   -9.3947    6.1694 H   0  0  0  0  0  0  0  0  0  0  0  0
   14.5919   -7.7956   16.8890 C   0  0  0  0  0  0  0  0  0  0  0  0
   15.3933   -8.0520   18.0762 N   0  0  0  0  0  0  0  0  0  0  0  0
   16.3701   -7.9455   18.0161 H   0  0  0  0  0  0  0  0  0  0  0  0
   14.8257   -8.4513   19.3251 C   0  0  0  0  0  0  0  0  0  0  0  0
   13.4401   -8.6136   19.4764 C   0  0  0  0  0  0  0  0  0  0  0  0
   12.9090   -9.0100   20.7070 C   0  0  0  0  0  0  0  0  0  0  0  0
   13.7584   -9.2455   21.7916 C   0  0  0  0  0  0  0  0  0  0  0  0
   15.1391   -9.0845   21.6451 C   0  0  0  0  0  0  0  0  0  0  0  0
   15.6708   -8.6886   20.4141 C   0  0  0  0  0  0  0  0  0  0  0  0
   16.2030   -9.3799   23.0027 Cl  0  0  0  0  0  0  0  0  0  0  0  0
   11.1802   -9.2115   20.8896 Cl  0  0  0  0  0  0  0  0  0  0  0  0
 10 11  1  0  0  0
 11  1  1  0  0  0
  1  2  1  0  0  0
  2  3  1  0  0  0
  3  4  1  0  0  0
  4  5  1  0  0  0
  5  6  1  0  0  0
  6  7  1  0  0  0
  6  8  1  0  0  0
  8  9  2  0  0  0
  8 22  1  0  0  0
 22 23  1  0  0  0
 23 25  1  0  0  0
 25 26  2  0  0  0
 26 27  1  0  0  0
 27 28  2  0  0  0
 28 29  1  0  0  0
 29 30  2  0  0  0
 29 31  1  0  0  0
 27 32  1  0  0  0
 11 12  1  0  0  0
 12 13  2  0  0  0
 13 14  1  0  0  0
 14 15  2  0  0  0
 15 16  1  0  0  0
 16 17  2  0  0  0
 17 18  1  0  0  0
 18 19  2  0  0  0
 19 20  1  0  0  0
  7  1  1  0  0  0
 30 25  1  0  0  0
 17 12  1  0  0  0
 20 16  1  0  0  0
 23 24  1  0  0  0
 20 21  1  0  0  0
M  END
>  <minimizedAffinity>
14.12295

>  <minimizedRMSD>
0.78922

$$$$
CHEMBL3670445 PubChem-66763684


 29 31  0  0  0  0  0  0  0  0999 V2000
   16.9890   -9.7001   10.5059 C   0  0  0  0  0  0  0  0  0  0  0  0
   15.9530  -10.3123    9.8716 N   0  0  0  0  0  0  0  0  0  0  0  0
   15.8383  -10.2833    8.5194 C   0  0  0  0  0  0  0  0  0  0  0  0
   16.7661   -9.6355    7.7693 N   0  0  0  0  0  0  0  0  0  0  0  0
   17.8263   -9.0033    8.3423 C   0  0  0  0  0  0  0  0  0  0  0  0
   17.9587   -9.0251    9.7504 C   0  0  0  0  0  0  0  0  0  0  0  0
   19.0402   -8.3820   10.3625 C   0  0  0  0  0  0  0  0  0  0  0  0
   19.9896   -7.7185    9.5879 C   0  0  0  0  0  0  0  0  0  0  0  0
   19.8647   -7.6933    8.1984 C   0  0  0  0  0  0  0  0  0  0  0  0
   18.7917   -8.3285    7.5542 C   0  0  0  0  0  0  0  0  0  0  0  0
   18.7231   -8.2604    6.0729 C   0  0  0  0  0  0  0  0  0  0  0  0
   17.7443   -8.7416    5.4434 O   0  0  0  0  0  0  0  0  0  0  0  0
   19.7753   -7.6429    5.3360 N   0  0  0  0  0  0  0  0  0  0  0  0
   20.5493   -7.2607    5.8093 H   0  0  0  0  0  0  0  0  0  0  0  0
   19.7281   -7.5986    4.3536 H   0  0  0  0  0  0  0  0  0  0  0  0
   17.0850   -9.7464   11.9327 N   0  0  0  0  0  0  0  0  0  0  0  0
   17.9296  -10.0426   12.3429 H   0  0  0  0  0  0  0  0  0  0  0  0
   15.9781   -9.3710   12.7977 C   0  0  0  0  0  0  0  0  0  0  0  0
   17.9759  -10.1715   15.9092 C   0  0  0  0  0  0  0  0  0  0  0  0
   17.2629   -9.4656   16.8827 C   0  0  0  0  0  0  0  0  0  0  0  0
   16.1232   -8.7275   16.5316 C   0  0  0  0  0  0  0  0  0  0  0  0
   15.7057   -8.7068   15.1926 C   0  0  0  0  0  0  0  0  0  0  0  0
   16.4139   -9.4191   14.2192 C   0  0  0  0  0  0  0  0  0  0  0  0
   17.5531  -10.1461   14.5776 C   0  0  0  0  0  0  0  0  0  0  0  0
   15.3744   -7.9803   17.5571 C   0  0  0  0  0  0  0  0  0  0  0  0
   14.3028   -7.3889   17.2580 O   0  0  0  0  0  0  0  0  0  0  0  0
   15.8529   -7.9176   18.8978 N   0  0  0  0  0  0  0  0  0  0  0  0
   16.6889   -8.3755   19.1440 H   0  0  0  0  0  0  0  0  0  0  0  0
   15.3474   -7.4164   19.5779 H   0  0  0  0  0  0  0  0  0  0  0  0
 19 20  2  0  0  0
 20 21  1  0  0  0
 21 22  2  0  0  0
 21 25  1  0  0  0
 22 23  1  0  0  0
 23 24  2  0  0  0
 23 18  1  0  0  0
 24 19  1  0  0  0
 18 16  1  0  0  0
 16  1  1  0  0  0
  1  2  2  0  0  0
  2  3  1  0  0  0
  3  4  2  0  0  0
  4  5  1  0  0  0
  5  6  2  0  0  0
  6  7  1  0  0  0
  6  1  1  0  0  0
  7  8  2  0  0  0
  8  9  1  0  0  0
  9 10  2  0  0  0
 10 11  1  0  0  0
 10  5  1  0  0  0
 11 12  2  0  0  0
 11 13  1  0  0  0
 25 26  2  0  0  0
 25 27  1  0  0  0
 16 17  1  0  0  0
 13 14  1  0  0  0
 13 15  1  0  0  0
 27 28  1  0  0  0
 27 29  1  0  0  0
M  END
>  <minimizedAffinity>
-7.88190

>  <minimizedRMSD>
0.79753

$$$$
CHEMBL2359740 MolPort-004-993-952 PubChem-29085807 ZINC20599271


 33 37  0  0  0  0  0  0  0  0999 V2000
   17.6862   -9.8600   16.7474 C   0  0  0  0  0  0  0  0  0  0  0  0
   17.6986  -11.1637   17.0876 N   0  0  0  0  0  0  0  0  0  0  0  0
   17.6864  -11.8585   15.9575 N   0  0  0  0  0  0  0  0  0  0  0  0
   17.6667  -10.9660   14.9492 C   0  0  0  0  0  0  0  0  0  0  0  0
   17.6170  -11.3487   13.5051 C   0  0  0  0  0  0  0  0  0  0  0  0
   16.4620  -10.6432   12.8054 C   0  0  0  0  0  0  0  0  0  0  0  0
   16.8193   -9.2597   12.5099 N   0  0  0  0  0  0  0  0  0  0  0  0
   16.4933   -8.4425   13.6718 C   0  0  0  0  0  0  0  0  0  0  0  0
   17.6551   -8.4544   14.6561 C   0  0  0  0  0  0  0  0  0  0  0  0
   17.6680   -9.7018   15.4128 N   0  0  0  0  0  0  0  0  0  0  0  0
   17.6747   -8.7416   17.7376 C   0  0  0  0  0  0  0  0  0  0  0  0
   15.2951   -7.8710   17.6150 C   0  0  0  0  0  0  0  0  0  0  0  0
   15.5266   -7.3155   16.5064 O   0  0  0  0  0  0  0  0  0  0  0  0
   16.3396   -8.5755   18.2946 N   0  0  0  0  0  0  0  0  0  0  0  0
   16.1467   -8.9652   19.1779 H   0  0  0  0  0  0  0  0  0  0  0  0
   10.4553   -7.4386   17.1666 F   0  0  0  0  0  0  0  0  0  0  0  0
   11.5430   -7.5751   17.9622 C   0  0  0  0  0  0  0  0  0  0  0  0
   11.3897   -7.6418   19.3496 C   0  0  0  0  0  0  0  0  0  0  0  0
   12.5119   -7.7828   20.1702 C   0  0  0  0  0  0  0  0  0  0  0  0
   13.7877   -7.8572   19.6034 C   0  0  0  0  0  0  0  0  0  0  0  0
   13.9506   -7.7908   18.2119 C   0  0  0  0  0  0  0  0  0  0  0  0
   12.8186   -7.6495   17.3952 C   0  0  0  0  0  0  0  0  0  0  0  0
   15.9455   -8.8170   11.4347 C   0  0  0  0  0  0  0  0  0  0  0  0
   16.3958   -9.3940   10.1275 C   0  0  0  0  0  0  0  0  0  0  0  0
   17.4380   -8.8229    9.3718 C   0  0  0  0  0  0  0  0  0  0  0  0
   18.1190   -7.6728    9.7993 C   0  0  0  0  0  0  0  0  0  0  0  0
   19.1496   -7.1348    9.0237 C   0  0  0  0  0  0  0  0  0  0  0  0
   19.5072   -7.7393    7.8153 C   0  0  0  0  0  0  0  0  0  0  0  0
   18.8349   -8.8833    7.3766 C   0  0  0  0  0  0  0  0  0  0  0  0
   17.8026   -9.4279    8.1458 C   0  0  0  0  0  0  0  0  0  0  0  0
   17.1477  -10.5372    7.7120 N   0  0  0  0  0  0  0  0  0  0  0  0
   16.1356  -11.0930    8.4290 C   0  0  0  0  0  0  0  0  0  0  0  0
   15.7429  -10.5307    9.6449 C   0  0  0  0  0  0  0  0  0  0  0  0
 16 17  1  0  0  0
 17 18  2  0  0  0
 18 19  1  0  0  0
 19 20  2  0  0  0
 20 21  1  0  0  0
 21 22  2  0  0  0
 21 12  1  0  0  0
 22 17  1  0  0  0
 12 13  2  0  0  0
 12 14  1  0  0  0
 14 11  1  0  0  0
 11  1  1  0  0  0
  1  2  2  0  0  0
  2  3  1  0  0  0
  3  4  2  0  0  0
  4  5  1  0  0  0
  5  6  1  0  0  0
  6  7  1  0  0  0
  7 23  1  0  0  0
  7  8  1  0  0  0
 23 24  1  0  0  0
 24 25  1  0  0  0
 25 26  2  0  0  0
 26 27  1  0  0  0
 27 28  2  0  0  0
 28 29  1  0  0  0
 29 30  2  0  0  0
 30 31  1  0  0  0
 30 25  1  0  0  0
 31 32  2  0  0  0
 32 33  1  0  0  0
 33 24  2  0  0  0
  8  9  1  0  0  0
  9 10  1  0  0  0
 10  1  1  0  0  0
 10  4  1  0  0  0
 14 15  1  0  0  0
M  END
>  <minimizedAffinity>
-2.48496

>  <minimizedRMSD>
0.79777

$$$$
CHEMBL4463623 PubChem-155530129


 32 35  0  0  0  0  0  0  0  0999 V2000
   16.4427   -9.1941   16.2669 C   0  0  0  0  0  0  0  0  0  0  0  0
   17.2204  -10.1841   16.8820 C   0  0  0  0  0  0  0  0  0  0  0  0
   17.9717  -11.0739   16.1103 C   0  0  0  0  0  0  0  0  0  0  0  0
   17.9552  -10.9860   14.7153 C   0  0  0  0  0  0  0  0  0  0  0  0
   17.1762   -9.9944   14.0887 C   0  0  0  0  0  0  0  0  0  0  0  0
   16.4270   -9.1070   14.8678 C   0  0  0  0  0  0  0  0  0  0  0  0
   18.7722  -11.9553   13.9281 C   0  0  0  0  0  0  0  0  0  0  0  0
   15.6939   -8.3458   18.5141 N   0  0  0  0  0  0  0  0  0  0  0  0
   15.6512   -8.2554   17.0816 C   0  0  0  0  0  0  0  0  0  0  0  0
   14.9421   -7.3798   16.5145 O   0  0  0  0  0  0  0  0  0  0  0  0
   16.2644   -9.0527   18.8938 H   0  0  0  0  0  0  0  0  0  0  0  0
   14.9933   -7.5152   19.4500 C   0  0  0  0  0  0  0  0  0  0  0  0
   15.5882   -7.2456   20.6864 C   0  0  0  0  0  0  0  0  0  0  0  0
   14.9426   -6.4406   21.6300 C   0  0  0  0  0  0  0  0  0  0  0  0
   13.6831   -5.8990   21.3282 C   0  0  0  0  0  0  0  0  0  0  0  0
   13.0745   -6.1586   20.0972 C   0  0  0  0  0  0  0  0  0  0  0  0
   13.7352   -6.9684   19.1606 C   0  0  0  0  0  0  0  0  0  0  0  0
   11.8202   -5.6028   19.8308 O   0  0  0  0  0  0  0  0  0  0  0  0
   11.5714   -4.7761   18.7019 C   0  0  0  0  0  0  0  0  0  0  0  0
   15.5718   -6.1958   22.8536 O   0  0  0  0  0  0  0  0  0  0  0  0
   15.0216   -5.3344   23.8409 C   0  0  0  0  0  0  0  0  0  0  0  0
   17.1292   -9.8664   12.6549 C   0  0  0  0  0  0  0  0  0  0  0  0
   17.0917   -9.7594   11.4548 C   0  0  0  0  0  0  0  0  0  0  0  0
   17.0510   -9.6312   10.0237 C   0  0  0  0  0  0  0  0  0  0  0  0
   16.1679  -10.2650    9.1602 C   0  0  0  0  0  0  0  0  0  0  0  0
   16.4547   -9.8828    7.8856 N   0  0  0  0  0  0  0  0  0  0  0  0
   17.4952   -9.0358    8.0194 C   0  0  0  0  0  0  0  0  0  0  0  0
   17.8689   -8.8703    9.2907 N   0  0  0  0  0  0  0  0  0  0  0  0
   18.8710   -8.0837    9.6781 N   0  0  0  0  0  0  0  0  0  0  0  0
   19.5706   -7.3962    8.7306 C   0  0  0  0  0  0  0  0  0  0  0  0
   19.2227   -7.5303    7.3720 C   0  0  0  0  0  0  0  0  0  0  0  0
   18.1601   -8.3686    6.9978 C   0  0  0  0  0  0  0  0  0  0  0  0
 12 13  2  0  0  0
 13 14  1  0  0  0
 14 15  2  0  0  0
 15 16  1  0  0  0
 16 17  2  0  0  0
 16 18  1  0  0  0
 18 19  1  0  0  0
 14 20  1  0  0  0
 20 21  1  0  0  0
 12  8  1  0  0  0
  8  9  1  0  0  0
  9 10  2  0  0  0
  9  1  1  0  0  0
  1  2  2  0  0  0
  2  3  1  0  0  0
  3  4  2  0  0  0
  4  5  1  0  0  0
  5  6  2  0  0  0
  5 22  1  0  0  0
 22 23  3  0  0  0
 23 24  1  0  0  0
 24 25  2  0  0  0
 25 26  1  0  0  0
 26 27  2  0  0  0
 27 28  1  0  0  0
 28 29  1  0  0  0
 29 30  2  0  0  0
 30 31  1  0  0  0
 31 32  2  0  0  0
  4  7  1  0  0  0
 17 12  1  0  0  0
  6  1  1  0  0  0
 28 24  1  0  0  0
 32 27  1  0  0  0
  8 11  1  0  0  0
M  END
>  <minimizedAffinity>
-11.80103

>  <minimizedRMSD>
0.80150

$$$$
CHEMBL3670428 PubChem-66763168


 33 35  0  0  0  0  0  0  0  0999 V2000
   17.1475  -10.1270   12.1209 N   0  0  0  0  0  0  0  0  0  0  0  0
   16.5361  -10.8137   12.4728 H   0  0  0  0  0  0  0  0  0  0  0  0
   17.0450   -9.8344   10.7169 C   0  0  0  0  0  0  0  0  0  0  0  0
   15.9330  -10.2696   10.0694 N   0  0  0  0  0  0  0  0  0  0  0  0
   15.7394  -10.0449    8.7470 C   0  0  0  0  0  0  0  0  0  0  0  0
   16.6679   -9.3689    8.0285 N   0  0  0  0  0  0  0  0  0  0  0  0
   17.8082   -8.8998    8.6005 C   0  0  0  0  0  0  0  0  0  0  0  0
   18.0292   -9.1247    9.9846 C   0  0  0  0  0  0  0  0  0  0  0  0
   19.2025   -8.6409   10.5752 C   0  0  0  0  0  0  0  0  0  0  0  0
   20.1465   -7.9471    9.8238 C   0  0  0  0  0  0  0  0  0  0  0  0
   19.9295   -7.7263    8.4660 C   0  0  0  0  0  0  0  0  0  0  0  0
   18.7688   -8.1928    7.8318 C   0  0  0  0  0  0  0  0  0  0  0  0
   18.6128   -7.9149    6.3794 C   0  0  0  0  0  0  0  0  0  0  0  0
   18.9753   -6.8019    5.9119 O   0  0  0  0  0  0  0  0  0  0  0  0
   18.0585   -8.8787    5.4890 N   0  0  0  0  0  0  0  0  0  0  0  0
   17.7682   -9.7551    5.8308 H   0  0  0  0  0  0  0  0  0  0  0  0
   17.9658   -8.6684    4.5317 H   0  0  0  0  0  0  0  0  0  0  0  0
   18.0587   -9.5162   13.0774 C   0  0  0  0  0  0  0  0  0  0  0  0
   16.9413   -9.9665   16.6729 C   0  0  0  0  0  0  0  0  0  0  0  0
   17.4102  -11.2587   16.9352 C   0  0  0  0  0  0  0  0  0  0  0  0
   18.0913  -11.9785   15.9490 C   0  0  0  0  0  0  0  0  0  0  0  0
   18.3090  -11.4082   14.6921 C   0  0  0  0  0  0  0  0  0  0  0  0
   17.8504  -10.1153   14.4227 C   0  0  0  0  0  0  0  0  0  0  0  0
   17.1632   -9.3998   15.4083 C   0  0  0  0  0  0  0  0  0  0  0  0
   14.6717   -7.6379   18.6924 N   0  0  0  0  0  0  0  0  0  0  0  0
   15.2638   -8.2306   17.5364 C   0  0  0  0  0  0  0  0  0  0  0  0
   14.9227   -7.8463   16.3849 O   0  0  0  0  0  0  0  0  0  0  0  0
   16.2438   -9.2618   17.7091 N   0  0  0  0  0  0  0  0  0  0  0  0
   14.9495   -7.9504   19.5837 H   0  0  0  0  0  0  0  0  0  0  0  0
   16.4609   -9.5128   18.6360 H   0  0  0  0  0  0  0  0  0  0  0  0
   12.3875   -7.1630   18.0350 C   0  0  0  0  0  0  0  0  0  0  0  0
   13.6715   -6.5877   18.5947 C   0  0  0  0  0  0  0  0  0  0  0  0
   13.4081   -6.0110   19.9700 C   0  0  0  0  0  0  0  0  0  0  0  0
 31 32  1  0  0  0
 32 33  1  0  0  0
 32 25  1  0  0  0
 25 26  1  0  0  0
 26 27  2  0  0  0
 26 28  1  0  0  0
 28 19  1  0  0  0
 19 20  2  0  0  0
 20 21  1  0  0  0
 21 22  2  0  0  0
 22 23  1  0  0  0
 23 24  2  0  0  0
 23 18  1  0  0  0
 24 19  1  0  0  0
 18  1  1  0  0  0
  1  3  1  0  0  0
  3  4  2  0  0  0
  4  5  1  0  0  0
  5  6  2  0  0  0
  6  7  1  0  0  0
  7  8  2  0  0  0
  8  9  1  0  0  0
  8  3  1  0  0  0
  9 10  2  0  0  0
 10 11  1  0  0  0
 11 12  2  0  0  0
 12 13  1  0  0  0
 12  7  1  0  0  0
 13 14  2  0  0  0
 13 15  1  0  0  0
 25 29  1  0  0  0
 28 30  1  0  0  0
  1  2  1  0  0  0
 15 16  1  0  0  0
 15 17  1  0  0  0
M  END
>  <minimizedAffinity>
-8.02329

>  <minimizedRMSD>
0.80155

$$$$
CHEMBL2336031 PubChem-71624674 ZINC000095590995


 28 31  0  0  0  0  0  0  0  0999 V2000
   18.8475  -12.0366   13.9042 C   0  0  0  0  0  0  0  0  0  0  0  0
   18.0093  -11.0967   14.7044 C   0  0  0  0  0  0  0  0  0  0  0  0
   17.8902  -11.3112   16.0806 C   0  0  0  0  0  0  0  0  0  0  0  0
   17.1143  -10.4533   16.8636 C   0  0  0  0  0  0  0  0  0  0  0  0
   16.4471   -9.3689   16.2789 C   0  0  0  0  0  0  0  0  0  0  0  0
   16.5672   -9.1546   14.8989 C   0  0  0  0  0  0  0  0  0  0  0  0
   17.3423  -10.0092   14.1083 C   0  0  0  0  0  0  0  0  0  0  0  0
   15.6291   -8.4646   17.1055 C   0  0  0  0  0  0  0  0  0  0  0  0
   15.1303   -7.4239   16.5955 O   0  0  0  0  0  0  0  0  0  0  0  0
   15.4004   -8.7685   18.4885 N   0  0  0  0  0  0  0  0  0  0  0  0
   15.8062   -9.5888   18.8513 H   0  0  0  0  0  0  0  0  0  0  0  0
   14.6070   -7.9438   19.3941 C   0  0  0  0  0  0  0  0  0  0  0  0
   13.5603   -7.1281   18.6172 C   0  0  0  0  0  0  0  0  0  0  0  0
   13.2028   -5.7995   19.2941 C   0  0  0  0  0  0  0  0  0  0  0  0
   13.2657   -5.9244   20.8132 C   0  0  0  0  0  0  0  0  0  0  0  0
   14.6842   -6.2677   21.2896 C   0  0  0  0  0  0  0  0  0  0  0  0
   15.5045   -7.0639   20.2655 C   0  0  0  0  0  0  0  0  0  0  0  0
   17.4364   -9.7494   12.6948 C   0  0  0  0  0  0  0  0  0  0  0  0
   17.5151   -9.5325   11.5114 C   0  0  0  0  0  0  0  0  0  0  0  0
   17.6089   -9.2753   10.1029 C   0  0  0  0  0  0  0  0  0  0  0  0
   16.6927   -9.8589    9.2060 C   0  0  0  0  0  0  0  0  0  0  0  0
   16.7833   -9.6129    7.8658 N   0  0  0  0  0  0  0  0  0  0  0  0
   17.7710   -8.7979    7.4209 C   0  0  0  0  0  0  0  0  0  0  0  0
   18.0360   -8.4243    6.1233 C   0  0  0  0  0  0  0  0  0  0  0  0
   19.1518   -7.5908    6.2775 C   0  0  0  0  0  0  0  0  0  0  0  0
   19.4995   -7.4969    7.5852 N   0  0  0  0  0  0  0  0  0  0  0  0
   18.6451   -8.2391    8.2582 N   0  0  0  0  0  0  0  0  0  0  0  0
   18.6135   -8.4397    9.5969 C   0  0  0  0  0  0  0  0  0  0  0  0
  1  2  1  0  0  0
  2  3  2  0  0  0
  3  4  1  0  0  0
  4  5  2  0  0  0
  5  8  1  0  0  0
  8  9  2  0  0  0
  8 10  1  0  0  0
 10 12  1  0  0  0
 12 13  1  0  0  0
 13 14  1  0  0  0
 14 15  1  0  0  0
 15 16  1  0  0  0
 16 17  1  0  0  0
  5  6  1  0  0  0
  6  7  2  0  0  0
  7 18  1  0  0  0
 18 19  3  0  0  0
 19 20  1  0  0  0
 20 21  1  0  0  0
 21 22  2  0  0  0
 22 23  1  0  0  0
 23 24  2  0  0  0
 24 25  1  0  0  0
 25 26  2  0  0  0
 26 27  1  0  0  0
 27 28  1  0  0  0
  7  2  1  0  0  0
 28 20  2  0  0  0
 17 12  1  0  0  0
 27 23  1  0  0  0
 10 11  1  0  0  0
M  END
>  <minimizedAffinity>
-10.53843

>  <minimizedRMSD>
0.80764

$$$$
CHEMBL3685267 PubChem-66763555


 37 40  0  0  0  0  0  0  0  0999 V2000
   17.3321  -11.9430   18.1008 C   0  0  0  0  0  0  0  0  0  0  0  0
   17.5570  -11.3245   16.7635 C   0  0  0  0  0  0  0  0  0  0  0  0
   17.0139  -10.0658   16.4440 C   0  0  0  0  0  0  0  0  0  0  0  0
   17.2523   -9.5235   15.1714 C   0  0  0  0  0  0  0  0  0  0  0  0
   18.0227  -10.2172   14.2345 C   0  0  0  0  0  0  0  0  0  0  0  0
   18.5514  -11.4692   14.5574 C   0  0  0  0  0  0  0  0  0  0  0  0
   18.3206  -12.0194   15.8201 C   0  0  0  0  0  0  0  0  0  0  0  0
   16.2266   -9.3640   17.4199 N   0  0  0  0  0  0  0  0  0  0  0  0
   15.4356   -8.1841   17.2077 C   0  0  0  0  0  0  0  0  0  0  0  0
   15.3807   -7.6436   16.0695 O   0  0  0  0  0  0  0  0  0  0  0  0
   16.2297   -9.7318   18.3331 H   0  0  0  0  0  0  0  0  0  0  0  0
   14.6825   -7.5991   18.3313 C   0  0  0  0  0  0  0  0  0  0  0  0
   15.2254   -7.5988   19.6237 C   0  0  0  0  0  0  0  0  0  0  0  0
   14.5124   -7.0448   20.6908 C   0  0  0  0  0  0  0  0  0  0  0  0
   13.2485   -6.4850   20.4809 C   0  0  0  0  0  0  0  0  0  0  0  0
   12.7019   -6.4840   19.1879 C   0  0  0  0  0  0  0  0  0  0  0  0
   13.4150   -7.0376   18.1212 C   0  0  0  0  0  0  0  0  0  0  0  0
   12.5610   -5.9394   21.5686 O   0  0  0  0  0  0  0  0  0  0  0  0
   11.5137   -4.9909   21.4170 C   0  0  0  0  0  0  0  0  0  0  0  0
   18.2457   -9.6407   12.8819 C   0  0  0  0  0  0  0  0  0  0  0  0
   17.1848  -10.0708   11.9831 N   0  0  0  0  0  0  0  0  0  0  0  0
   16.4615  -10.6070   12.3812 H   0  0  0  0  0  0  0  0  0  0  0  0
   17.0807   -9.7959   10.5757 C   0  0  0  0  0  0  0  0  0  0  0  0
   15.9785  -10.2583    9.9301 N   0  0  0  0  0  0  0  0  0  0  0  0
   15.7860  -10.0548    8.6040 C   0  0  0  0  0  0  0  0  0  0  0  0
   16.7058   -9.3734    7.8796 N   0  0  0  0  0  0  0  0  0  0  0  0
   17.8358   -8.8772    8.4493 C   0  0  0  0  0  0  0  0  0  0  0  0
   18.0547   -9.0784    9.8374 C   0  0  0  0  0  0  0  0  0  0  0  0
   19.2146   -8.5618   10.4268 C   0  0  0  0  0  0  0  0  0  0  0  0
   20.1478   -7.8592    9.6701 C   0  0  0  0  0  0  0  0  0  0  0  0
   19.9337   -7.6635    8.3079 C   0  0  0  0  0  0  0  0  0  0  0  0
   18.7866   -8.1635    7.6748 C   0  0  0  0  0  0  0  0  0  0  0  0
   18.6336   -7.9123    6.2173 C   0  0  0  0  0  0  0  0  0  0  0  0
   19.0541   -6.8331    5.7199 O   0  0  0  0  0  0  0  0  0  0  0  0
   18.0237   -8.8674    5.3539 N   0  0  0  0  0  0  0  0  0  0  0  0
   17.6876   -9.7175    5.7194 H   0  0  0  0  0  0  0  0  0  0  0  0
   17.9383   -8.6773    4.3917 H   0  0  0  0  0  0  0  0  0  0  0  0
  1  2  1  0  0  0
  2  3  2  0  0  0
  3  4  1  0  0  0
  3  8  1  0  0  0
  4  5  2  0  0  0
  5  6  1  0  0  0
  5 20  1  0  0  0
  6  7  2  0  0  0
  7  2  1  0  0  0
 20 21  1  0  0  0
 21 23  1  0  0  0
 23 24  2  0  0  0
 24 25  1  0  0  0
 25 26  2  0  0  0
 26 27  1  0  0  0
 27 28  2  0  0  0
 28 29  1  0  0  0
 28 23  1  0  0  0
 29 30  2  0  0  0
 30 31  1  0  0  0
 31 32  2  0  0  0
 32 33  1  0  0  0
 32 27  1  0  0  0
 33 34  2  0  0  0
 33 35  1  0  0  0
  8  9  1  0  0  0
  9 10  2  0  0  0
  9 12  1  0  0  0
 12 13  2  0  0  0
 13 14  1  0  0  0
 14 15  2  0  0  0
 15 16  1  0  0  0
 15 18  1  0  0  0
 16 17  2  0  0  0
 17 12  1  0  0  0
 18 19  1  0  0  0
 21 22  1  0  0  0
 35 36  1  0  0  0
 35 37  1  0  0  0
  8 11  1  0  0  0
M  END
>  <minimizedAffinity>
-8.47717

>  <minimizedRMSD>
0.81512

$$$$
CHEMBL3680513 PubChem-77014393


 36 39  0  0  0  0  0  0  0  0999 V2000
   18.2182  -12.1290   16.0044 C   0  0  0  0  0  0  0  0  0  0  0  0
   18.4818  -11.6135   14.7327 C   0  0  0  0  0  0  0  0  0  0  0  0
   17.9825  -10.3590   14.3704 C   0  0  0  0  0  0  0  0  0  0  0  0
   17.2089   -9.6282   15.2772 C   0  0  0  0  0  0  0  0  0  0  0  0
   16.9393  -10.1406   16.5551 C   0  0  0  0  0  0  0  0  0  0  0  0
   17.4515  -11.3928   16.9124 C   0  0  0  0  0  0  0  0  0  0  0  0
   16.1607   -9.4142   17.5153 N   0  0  0  0  0  0  0  0  0  0  0  0
   15.4387   -8.1940   17.2892 C   0  0  0  0  0  0  0  0  0  0  0  0
   15.3866   -7.6775   16.1403 O   0  0  0  0  0  0  0  0  0  0  0  0
   16.1166   -9.7911   18.4237 H   0  0  0  0  0  0  0  0  0  0  0  0
   14.7434   -7.5415   18.4067 C   0  0  0  0  0  0  0  0  0  0  0  0
   15.1534   -7.6857   19.7359 C   0  0  0  0  0  0  0  0  0  0  0  0
   14.0916   -6.7721   20.6751 S   0  0  0  0  0  0  0  0  0  0  0  0
   13.1863   -6.2563   19.3670 C   0  0  0  0  0  0  0  0  0  0  0  0
   13.6543   -6.7489   18.2053 N   0  0  0  0  0  0  0  0  0  0  0  0
   12.0571   -5.3957   19.4542 N   0  0  0  0  0  0  0  0  0  0  0  0
   11.7574   -5.0642   20.3314 H   0  0  0  0  0  0  0  0  0  0  0  0
   11.5752   -5.1316   18.6373 H   0  0  0  0  0  0  0  0  0  0  0  0
   18.2466   -9.8146   13.0120 C   0  0  0  0  0  0  0  0  0  0  0  0
   17.1410  -10.1451   12.1253 N   0  0  0  0  0  0  0  0  0  0  0  0
   16.3831  -10.6277   12.5277 H   0  0  0  0  0  0  0  0  0  0  0  0
   17.0385   -9.8415   10.7239 C   0  0  0  0  0  0  0  0  0  0  0  0
   15.9218  -10.2619   10.0747 N   0  0  0  0  0  0  0  0  0  0  0  0
   15.7285  -10.0257    8.7542 C   0  0  0  0  0  0  0  0  0  0  0  0
   16.6613   -9.3509    8.0399 N   0  0  0  0  0  0  0  0  0  0  0  0
   17.8053   -8.8941    8.6144 C   0  0  0  0  0  0  0  0  0  0  0  0
   18.0253   -9.1298    9.9968 C   0  0  0  0  0  0  0  0  0  0  0  0
   19.1960   -8.6463   10.5933 C   0  0  0  0  0  0  0  0  0  0  0  0
   20.1410   -7.9468    9.8479 C   0  0  0  0  0  0  0  0  0  0  0  0
   19.9274   -7.7202    8.4908 C   0  0  0  0  0  0  0  0  0  0  0  0
   18.7684   -8.1839    7.8514 C   0  0  0  0  0  0  0  0  0  0  0  0
   18.6160   -7.8998    6.3998 C   0  0  0  0  0  0  0  0  0  0  0  0
   18.9752   -6.7835    5.9387 O   0  0  0  0  0  0  0  0  0  0  0  0
   18.0716   -8.8632    5.5027 N   0  0  0  0  0  0  0  0  0  0  0  0
   17.7840   -9.7424    5.8397 H   0  0  0  0  0  0  0  0  0  0  0  0
   17.9830   -8.6498    4.5457 H   0  0  0  0  0  0  0  0  0  0  0  0
  1  2  2  0  0  0
  2  3  1  0  0  0
  3  4  2  0  0  0
  3 19  1  0  0  0
  4  5  1  0  0  0
  5  6  2  0  0  0
  5  7  1  0  0  0
  6  1  1  0  0  0
  7  8  1  0  0  0
  8  9  2  0  0  0
  8 11  1  0  0  0
 11 12  2  0  0  0
 12 13  1  0  0  0
 13 14  1  0  0  0
 14 15  2  0  0  0
 14 16  1  0  0  0
 15 11  1  0  0  0
 19 20  1  0  0  0
 20 22  1  0  0  0
 22 23  2  0  0  0
 23 24  1  0  0  0
 24 25  2  0  0  0
 25 26  1  0  0  0
 26 27  2  0  0  0
 27 28  1  0  0  0
 27 22  1  0  0  0
 28 29  2  0  0  0
 29 30  1  0  0  0
 30 31  2  0  0  0
 31 32  1  0  0  0
 31 26  1  0  0  0
 32 33  2  0  0  0
 32 34  1  0  0  0
  7 10  1  0  0  0
 16 17  1  0  0  0
 16 18  1  0  0  0
 20 21  1  0  0  0
 34 35  1  0  0  0
 34 36  1  0  0  0
M  END
>  <minimizedAffinity>
-9.18479

>  <minimizedRMSD>
0.81581

$$$$
CHEMBL3685280 PubChem-66762255


 35 38  0  0  0  0  0  0  0  0999 V2000
   18.2111   -9.7602   13.0370 C   0  0  0  0  0  0  0  0  0  0  0  0
   16.8176  -10.0817   16.5489 C   0  0  0  0  0  0  0  0  0  0  0  0
   17.3846  -11.2974   16.9474 C   0  0  0  0  0  0  0  0  0  0  0  0
   18.2180  -12.0087   16.0789 C   0  0  0  0  0  0  0  0  0  0  0  0
   18.4922  -11.5053   14.8046 C   0  0  0  0  0  0  0  0  0  0  0  0
   17.9371  -10.2874   14.4004 C   0  0  0  0  0  0  0  0  0  0  0  0
   17.0977   -9.5815   15.2680 C   0  0  0  0  0  0  0  0  0  0  0  0
   15.3152   -8.1221   17.2544 C   0  0  0  0  0  0  0  0  0  0  0  0
   15.4390   -7.5231   16.1511 O   0  0  0  0  0  0  0  0  0  0  0  0
   15.9683   -9.3826   17.4689 N   0  0  0  0  0  0  0  0  0  0  0  0
   15.8168   -9.8132   18.3412 H   0  0  0  0  0  0  0  0  0  0  0  0
   12.3213   -6.6585   19.0355 C   0  0  0  0  0  0  0  0  0  0  0  0
   12.8466   -6.3541   20.2916 C   0  0  0  0  0  0  0  0  0  0  0  0
   14.1872   -6.6253   20.5706 C   0  0  0  0  0  0  0  0  0  0  0  0
   15.0104   -7.2013   19.5975 C   0  0  0  0  0  0  0  0  0  0  0  0
   14.4883   -7.5131   18.3225 C   0  0  0  0  0  0  0  0  0  0  0  0
   13.1373   -7.2338   18.0588 C   0  0  0  0  0  0  0  0  0  0  0  0
   16.3059   -7.4467   19.9136 F   0  0  0  0  0  0  0  0  0  0  0  0
   17.1303  -10.1358   12.1377 N   0  0  0  0  0  0  0  0  0  0  0  0
   16.3893  -10.6509   12.5313 H   0  0  0  0  0  0  0  0  0  0  0  0
   17.0297   -9.8345   10.7355 C   0  0  0  0  0  0  0  0  0  0  0  0
   15.9182  -10.2642   10.0837 N   0  0  0  0  0  0  0  0  0  0  0  0
   15.7275  -10.0331    8.7620 C   0  0  0  0  0  0  0  0  0  0  0  0
   16.6591   -9.3562    8.0482 N   0  0  0  0  0  0  0  0  0  0  0  0
   17.7994   -8.8926    8.6245 C   0  0  0  0  0  0  0  0  0  0  0  0
   18.0174   -9.1245   10.0078 C   0  0  0  0  0  0  0  0  0  0  0  0
   19.1922   -8.6490   10.6022 C   0  0  0  0  0  0  0  0  0  0  0  0
   20.1406   -7.9565    9.8550 C   0  0  0  0  0  0  0  0  0  0  0  0
   19.9263   -7.7287    8.4981 C   0  0  0  0  0  0  0  0  0  0  0  0
   18.7644   -8.1865    7.8602 C   0  0  0  0  0  0  0  0  0  0  0  0
   18.6121   -7.9021    6.4087 C   0  0  0  0  0  0  0  0  0  0  0  0
   18.9689   -6.7845    5.9484 O   0  0  0  0  0  0  0  0  0  0  0  0
   18.0685   -8.8653    5.5110 N   0  0  0  0  0  0  0  0  0  0  0  0
   17.7828   -9.7454    5.8473 H   0  0  0  0  0  0  0  0  0  0  0  0
   17.9785   -8.6508    4.5544 H   0  0  0  0  0  0  0  0  0  0  0  0
 12 13  2  0  0  0
 13 14  1  0  0  0
 14 15  2  0  0  0
 15 16  1  0  0  0
 15 18  1  0  0  0
 16 17  2  0  0  0
 16  8  1  0  0  0
 17 12  1  0  0  0
  8  9  2  0  0  0
  8 10  1  0  0  0
 10  2  1  0  0  0
  2  3  2  0  0  0
  3  4  1  0  0  0
  4  5  2  0  0  0
  5  6  1  0  0  0
  6  7  2  0  0  0
  6  1  1  0  0  0
  7  2  1  0  0  0
  1 19  1  0  0  0
 19 21  1  0  0  0
 21 22  2  0  0  0
 22 23  1  0  0  0
 23 24  2  0  0  0
 24 25  1  0  0  0
 25 26  2  0  0  0
 26 27  1  0  0  0
 26 21  1  0  0  0
 27 28  2  0  0  0
 28 29  1  0  0  0
 29 30  2  0  0  0
 30 31  1  0  0  0
 30 25  1  0  0  0
 31 32  2  0  0  0
 31 33  1  0  0  0
 10 11  1  0  0  0
 19 20  1  0  0  0
 33 34  1  0  0  0
 33 35  1  0  0  0
M  END
>  <minimizedAffinity>
-9.09520

>  <minimizedRMSD>
0.82155

$$$$
CHEMBL3685247 PubChem-66763570


 37 40  0  0  0  0  0  0  0  0999 V2000
   16.9503  -10.1296   16.4856 C   0  0  0  0  0  0  0  0  0  0  0  0
   17.4595  -11.3870   16.8285 C   0  0  0  0  0  0  0  0  0  0  0  0
   18.2291  -12.1128   15.9143 C   0  0  0  0  0  0  0  0  0  0  0  0
   18.4959  -11.5828   14.6493 C   0  0  0  0  0  0  0  0  0  0  0  0
   17.9973  -10.3243   14.3000 C   0  0  0  0  0  0  0  0  0  0  0  0
   17.2218   -9.6034   15.2134 C   0  0  0  0  0  0  0  0  0  0  0  0
   15.4235   -8.2063   17.2343 C   0  0  0  0  0  0  0  0  0  0  0  0
   15.4095   -7.6561   16.0995 O   0  0  0  0  0  0  0  0  0  0  0  0
   16.1647   -9.4171   17.4505 N   0  0  0  0  0  0  0  0  0  0  0  0
   16.1297   -9.7985   18.3575 H   0  0  0  0  0  0  0  0  0  0  0  0
   13.2411   -6.4493   20.4793 C   0  0  0  0  0  0  0  0  0  0  0  0
   12.6994   -6.4569   19.1840 C   0  0  0  0  0  0  0  0  0  0  0  0
   13.4104   -7.0302   18.1266 C   0  0  0  0  0  0  0  0  0  0  0  0
   14.6715   -7.6023   18.3483 C   0  0  0  0  0  0  0  0  0  0  0  0
   15.2098   -7.5919   19.6427 C   0  0  0  0  0  0  0  0  0  0  0  0
   14.4987   -7.0187   20.7004 C   0  0  0  0  0  0  0  0  0  0  0  0
   12.5550   -5.8841   21.5576 O   0  0  0  0  0  0  0  0  0  0  0  0
   10.7952   -4.7414   22.7157 C   0  0  0  0  0  0  0  0  0  0  0  0
   11.4943   -4.9532   21.3900 C   0  0  0  0  0  0  0  0  0  0  0  0
   18.2593   -9.7686   12.9457 C   0  0  0  0  0  0  0  0  0  0  0  0
   17.0741   -9.9186   12.1147 N   0  0  0  0  0  0  0  0  0  0  0  0
   16.2366  -10.1456   12.5797 H   0  0  0  0  0  0  0  0  0  0  0  0
   16.9963   -9.7705   10.6867 C   0  0  0  0  0  0  0  0  0  0  0  0
   15.9217  -10.3173   10.0607 N   0  0  0  0  0  0  0  0  0  0  0  0
   15.7550  -10.2345    8.7181 C   0  0  0  0  0  0  0  0  0  0  0  0
   16.6738   -9.5932    7.9565 N   0  0  0  0  0  0  0  0  0  0  0  0
   17.7770   -9.0193    8.5059 C   0  0  0  0  0  0  0  0  0  0  0  0
   17.9690   -9.0934    9.9097 C   0  0  0  0  0  0  0  0  0  0  0  0
   19.1031   -8.4976   10.4748 C   0  0  0  0  0  0  0  0  0  0  0  0
   20.0367   -7.8405    9.6778 C   0  0  0  0  0  0  0  0  0  0  0  0
   19.8484   -7.7694    8.2995 C   0  0  0  0  0  0  0  0  0  0  0  0
   18.7270   -8.3515    7.6919 C   0  0  0  0  0  0  0  0  0  0  0  0
   18.5918   -8.2339    6.2177 C   0  0  0  0  0  0  0  0  0  0  0  0
   17.6634   -8.8184    5.5995 O   0  0  0  0  0  0  0  0  0  0  0  0
   19.5212   -7.4495    5.4744 N   0  0  0  0  0  0  0  0  0  0  0  0
   20.2545   -6.9844    5.9383 H   0  0  0  0  0  0  0  0  0  0  0  0
   19.4300   -7.3729    4.4972 H   0  0  0  0  0  0  0  0  0  0  0  0
 18 19  1  0  0  0
 19 17  1  0  0  0
 17 11  1  0  0  0
 11 12  2  0  0  0
 12 13  1  0  0  0
 13 14  2  0  0  0
 14 15  1  0  0  0
 14  7  1  0  0  0
 15 16  2  0  0  0
 16 11  1  0  0  0
  7  8  2  0  0  0
  7  9  1  0  0  0
  9  1  1  0  0  0
  1  2  2  0  0  0
  2  3  1  0  0  0
  3  4  2  0  0  0
  4  5  1  0  0  0
  5  6  2  0  0  0
  5 20  1  0  0  0
  6  1  1  0  0  0
 20 21  1  0  0  0
 21 23  1  0  0  0
 23 24  2  0  0  0
 24 25  1  0  0  0
 25 26  2  0  0  0
 26 27  1  0  0  0
 27 28  2  0  0  0
 28 29  1  0  0  0
 28 23  1  0  0  0
 29 30  2  0  0  0
 30 31  1  0  0  0
 31 32  2  0  0  0
 32 33  1  0  0  0
 32 27  1  0  0  0
 33 34  2  0  0  0
 33 35  1  0  0  0
  9 10  1  0  0  0
 21 22  1  0  0  0
 35 36  1  0  0  0
 35 37  1  0  0  0
M  END
>  <minimizedAffinity>
-9.55649

>  <minimizedRMSD>
0.82276

$$$$
CHEMBL4448573 PubChem-51000608


 32 36  0  0  0  0  0  0  0  0999 V2000
   20.5871   -9.3523   12.6480 C   0  0  0  0  0  0  0  0  0  0  0  0
   19.6603   -8.7401   13.6983 C   0  0  0  0  0  0  0  0  0  0  0  0
   18.2238   -9.2901   13.6255 C   0  0  0  0  0  0  0  0  0  0  0  0
   17.9866  -10.2188   12.4305 C   0  0  0  0  0  0  0  0  0  0  0  0
   18.5777   -9.6422   11.2225 N   0  0  0  0  0  0  0  0  0  0  0  0
   19.9775   -9.1984   11.2548 C   0  0  0  0  0  0  0  0  0  0  0  0
   17.7507   -9.4706   10.0526 C   0  0  0  0  0  0  0  0  0  0  0  0
   16.5530  -10.1269    9.9638 N   0  0  0  0  0  0  0  0  0  0  0  0
   15.7343   -9.9967    8.8748 C   0  0  0  0  0  0  0  0  0  0  0  0
   16.0957   -9.1974    7.8302 N   0  0  0  0  0  0  0  0  0  0  0  0
   17.2778   -8.5409    7.8990 C   0  0  0  0  0  0  0  0  0  0  0  0
   18.1090   -8.6533    8.9701 C   0  0  0  0  0  0  0  0  0  0  0  0
   19.2133   -7.8692    8.7156 C   0  0  0  0  0  0  0  0  0  0  0  0
   18.9608   -7.3145    7.4589 C   0  0  0  0  0  0  0  0  0  0  0  0
   17.7713   -7.7273    6.9566 N   0  0  0  0  0  0  0  0  0  0  0  0
   17.3629   -7.4841    6.0945 H   0  0  0  0  0  0  0  0  0  0  0  0
   17.8351   -9.9559   14.9062 C   0  0  0  0  0  0  0  0  0  0  0  0
   17.1182   -9.2302   15.8627 C   0  0  0  0  0  0  0  0  0  0  0  0
   16.7379   -9.8271   17.0743 C   0  0  0  0  0  0  0  0  0  0  0  0
   17.0839  -11.1605   17.3185 C   0  0  0  0  0  0  0  0  0  0  0  0
   17.8003  -11.8918   16.3670 C   0  0  0  0  0  0  0  0  0  0  0  0
   18.1759  -11.2920   15.1626 C   0  0  0  0  0  0  0  0  0  0  0  0
   16.0022   -9.1110   18.0755 N   0  0  0  0  0  0  0  0  0  0  0  0
   15.1311   -7.9886   17.8668 C   0  0  0  0  0  0  0  0  0  0  0  0
   14.9435   -7.5283   16.7076 O   0  0  0  0  0  0  0  0  0  0  0  0
   16.1052   -9.4217   19.0040 H   0  0  0  0  0  0  0  0  0  0  0  0
   14.4501   -7.3691   19.0175 C   0  0  0  0  0  0  0  0  0  0  0  0
   14.9607   -7.5303   20.3140 C   0  0  0  0  0  0  0  0  0  0  0  0
   14.3154   -6.9431   21.4064 C   0  0  0  0  0  0  0  0  0  0  0  0
   13.1546   -6.1902   21.2103 C   0  0  0  0  0  0  0  0  0  0  0  0
   12.6388   -6.0244   19.9221 C   0  0  0  0  0  0  0  0  0  0  0  0
   13.2841   -6.6116   18.8298 C   0  0  0  0  0  0  0  0  0  0  0  0
  1  2  1  0  0  0
  2  3  1  0  0  0
  3  4  1  0  0  0
  4  5  1  0  0  0
  5  6  1  0  0  0
  5  7  1  0  0  0
  7  8  2  0  0  0
  8  9  1  0  0  0
  9 10  2  0  0  0
 10 11  1  0  0  0
 11 12  2  0  0  0
 12 13  1  0  0  0
 13 14  2  0  0  0
 14 15  1  0  0  0
  3 17  1  0  0  0
 17 18  2  0  0  0
 18 19  1  0  0  0
 19 20  2  0  0  0
 20 21  1  0  0  0
 21 22  2  0  0  0
 19 23  1  0  0  0
 23 24  1  0  0  0
 24 25  2  0  0  0
 24 27  1  0  0  0
 27 28  2  0  0  0
 28 29  1  0  0  0
 29 30  2  0  0  0
 30 31  1  0  0  0
 31 32  2  0  0  0
  6  1  1  0  0  0
 12  7  1  0  0  0
 15 11  1  0  0  0
 22 17  1  0  0  0
 32 27  1  0  0  0
 15 16  1  0  0  0
 23 26  1  0  0  0
M  END
>  <minimizedAffinity>
-0.78527

>  <minimizedRMSD>
0.82544

$$$$
CHEMBL2359740 MolPort-004-993-952 PubChem-29085807 ZINC20599271


 33 37  0  0  0  0  0  0  0  0999 V2000
   17.7786   -9.9525   16.6843 C   0  0  0  0  0  0  0  0  0  0  0  0
   17.9915  -11.1605   17.2432 N   0  0  0  0  0  0  0  0  0  0  0  0
   17.9125  -12.0569   16.2676 N   0  0  0  0  0  0  0  0  0  0  0  0
   17.6499  -11.3773   15.1349 C   0  0  0  0  0  0  0  0  0  0  0  0
   17.4979  -12.0099   13.7950 C   0  0  0  0  0  0  0  0  0  0  0  0
   18.4992  -11.4113   12.8035 C   0  0  0  0  0  0  0  0  0  0  0  0
   18.1144  -10.0874   12.2882 N   0  0  0  0  0  0  0  0  0  0  0  0
   18.3220   -9.0173   13.2745 C   0  0  0  0  0  0  0  0  0  0  0  0
   17.2834   -9.0026   14.3997 C   0  0  0  0  0  0  0  0  0  0  0  0
   17.5598  -10.0582   15.3630 N   0  0  0  0  0  0  0  0  0  0  0  0
   17.7621   -8.6704   17.4506 C   0  0  0  0  0  0  0  0  0  0  0  0
   15.3608   -7.8517   17.4685 C   0  0  0  0  0  0  0  0  0  0  0  0
   15.4872   -7.3723   16.3084 O   0  0  0  0  0  0  0  0  0  0  0  0
   16.4734   -8.4903   18.1041 N   0  0  0  0  0  0  0  0  0  0  0  0
   16.3622   -8.8224   19.0242 H   0  0  0  0  0  0  0  0  0  0  0  0
   10.5064   -7.3583   17.4044 F   0  0  0  0  0  0  0  0  0  0  0  0
   11.6522   -7.5057   18.1116 C   0  0  0  0  0  0  0  0  0  0  0  0
   11.6091   -7.5652   19.5071 C   0  0  0  0  0  0  0  0  0  0  0  0
   12.7912   -7.7177   20.2365 C   0  0  0  0  0  0  0  0  0  0  0  0
   14.0168   -7.8107   19.5702 C   0  0  0  0  0  0  0  0  0  0  0  0
   14.0692   -7.7515   18.1699 C   0  0  0  0  0  0  0  0  0  0  0  0
   12.8776   -7.5986   17.4453 C   0  0  0  0  0  0  0  0  0  0  0  0
   16.7535  -10.0728   11.7475 C   0  0  0  0  0  0  0  0  0  0  0  0
   16.7825   -9.9582   10.2544 C   0  0  0  0  0  0  0  0  0  0  0  0
   17.7294   -9.1646    9.5786 C   0  0  0  0  0  0  0  0  0  0  0  0
   18.7063   -8.4295   10.2672 C   0  0  0  0  0  0  0  0  0  0  0  0
   19.6308   -7.6531    9.5629 C   0  0  0  0  0  0  0  0  0  0  0  0
   19.5862   -7.6035    8.1668 C   0  0  0  0  0  0  0  0  0  0  0  0
   18.6161   -8.3284    7.4691 C   0  0  0  0  0  0  0  0  0  0  0  0
   17.6873   -9.1071    8.1655 C   0  0  0  0  0  0  0  0  0  0  0  0
   16.7417   -9.8051    7.4829 N   0  0  0  0  0  0  0  0  0  0  0  0
   15.8179  -10.5685    8.1246 C   0  0  0  0  0  0  0  0  0  0  0  0
   15.8222  -10.6555    9.5179 C   0  0  0  0  0  0  0  0  0  0  0  0
 16 17  1  0  0  0
 17 18  2  0  0  0
 18 19  1  0  0  0
 19 20  2  0  0  0
 20 21  1  0  0  0
 21 22  2  0  0  0
 21 12  1  0  0  0
 22 17  1  0  0  0
 12 13  2  0  0  0
 12 14  1  0  0  0
 14 11  1  0  0  0
 11  1  1  0  0  0
  1  2  2  0  0  0
  2  3  1  0  0  0
  3  4  2  0  0  0
  4  5  1  0  0  0
  5  6  1  0  0  0
  6  7  1  0  0  0
  7 23  1  0  0  0
  7  8  1  0  0  0
 23 24  1  0  0  0
 24 25  1  0  0  0
 25 26  2  0  0  0
 26 27  1  0  0  0
 27 28  2  0  0  0
 28 29  1  0  0  0
 29 30  2  0  0  0
 30 31  1  0  0  0
 30 25  1  0  0  0
 31 32  2  0  0  0
 32 33  1  0  0  0
 33 24  2  0  0  0
  8  9  1  0  0  0
  9 10  1  0  0  0
 10  1  1  0  0  0
 10  4  1  0  0  0
 14 15  1  0  0  0
M  END
>  <minimizedAffinity>
-5.11271

>  <minimizedRMSD>
0.83412

$$$$
CHEMBL3923164 PubChem-71280333


 30 33  0  0  0  0  0  0  0  0999 V2000
   18.3014  -11.7472   14.0139 C   0  0  0  0  0  0  0  0  0  0  0  0
   17.5876  -10.7670   14.8810 C   0  0  0  0  0  0  0  0  0  0  0  0
   16.7031   -9.8005   14.3525 C   0  0  0  0  0  0  0  0  0  0  0  0
   15.9752   -8.9876   15.2279 C   0  0  0  0  0  0  0  0  0  0  0  0
   16.1438   -9.0900   16.6153 C   0  0  0  0  0  0  0  0  0  0  0  0
   17.0438  -10.0324   17.1269 C   0  0  0  0  0  0  0  0  0  0  0  0
   17.7545  -10.8696   16.2649 C   0  0  0  0  0  0  0  0  0  0  0  0
   15.3831   -8.2162   17.5254 C   0  0  0  0  0  0  0  0  0  0  0  0
   14.6425   -7.3084   17.0569 O   0  0  0  0  0  0  0  0  0  0  0  0
   15.4829   -8.3969   18.9413 N   0  0  0  0  0  0  0  0  0  0  0  0
   16.0541   -9.1202   19.2875 H   0  0  0  0  0  0  0  0  0  0  0  0
   14.7716   -7.5515   19.8895 C   0  0  0  0  0  0  0  0  0  0  0  0
   15.0261   -8.0483   21.3026 C   0  0  0  0  0  0  0  0  0  0  0  0
   15.8378   -6.8038   21.5840 C   0  0  0  0  0  0  0  0  0  0  0  0
   15.5859   -6.3001   20.1809 C   0  0  0  0  0  0  0  0  0  0  0  0
   17.1718   -7.0790   21.8203 F   0  0  0  0  0  0  0  0  0  0  0  0
   15.2640   -5.9995   22.5509 F   0  0  0  0  0  0  0  0  0  0  0  0
   16.4741   -9.6551   12.9450 N   0  0  0  0  0  0  0  0  0  0  0  0
   17.5016   -9.5500   11.9525 C   0  0  0  0  0  0  0  0  0  0  0  0
   18.6959   -9.3371   12.2951 O   0  0  0  0  0  0  0  0  0  0  0  0
   15.5395   -9.6253   12.6369 H   0  0  0  0  0  0  0  0  0  0  0  0
   17.1466   -9.6480   10.5267 C   0  0  0  0  0  0  0  0  0  0  0  0
   16.1337  -10.4361    9.9957 C   0  0  0  0  0  0  0  0  0  0  0  0
   16.1082  -10.2685    8.6495 N   0  0  0  0  0  0  0  0  0  0  0  0
   17.0997   -9.3903    8.4047 C   0  0  0  0  0  0  0  0  0  0  0  0
   17.7442   -8.9977    9.5142 N   0  0  0  0  0  0  0  0  0  0  0  0
   18.7792   -8.1182    9.5073 C   0  0  0  0  0  0  0  0  0  0  0  0
   19.1920   -7.5948    8.2739 C   0  0  0  0  0  0  0  0  0  0  0  0
   18.5301   -7.9922    7.0969 C   0  0  0  0  0  0  0  0  0  0  0  0
   17.4648   -8.9049    7.1510 C   0  0  0  0  0  0  0  0  0  0  0  0
  1  2  1  0  0  0
  2  3  2  0  0  0
  3  4  1  0  0  0
  3 18  1  0  0  0
  4  5  2  0  0  0
  5  6  1  0  0  0
  5  8  1  0  0  0
  6  7  2  0  0  0
  7  2  1  0  0  0
  8  9  2  0  0  0
  8 10  1  0  0  0
 10 12  1  0  0  0
 12 13  1  0  0  0
 13 14  1  0  0  0
 14 15  1  0  0  0
 14 16  1  0  0  0
 14 17  1  0  0  0
 15 12  1  0  0  0
 18 19  1  0  0  0
 19 20  2  0  0  0
 19 22  1  0  0  0
 22 23  2  0  0  0
 23 24  1  0  0  0
 24 25  2  0  0  0
 25 26  1  0  0  0
 26 27  1  0  0  0
 26 22  1  0  0  0
 27 28  2  0  0  0
 28 29  1  0  0  0
 29 30  2  0  0  0
 30 25  1  0  0  0
 10 11  1  0  0  0
 18 21  1  0  0  0
M  END
>  <minimizedAffinity>
-8.98521

>  <minimizedRMSD>
0.83872

$$$$
CHEMBL3670497 PubChem-66762894


 37 40  0  0  0  0  0  0  0  0999 V2000
   16.9867  -10.1165   16.5132 C   0  0  0  0  0  0  0  0  0  0  0  0
   17.4584  -11.3939   16.8355 C   0  0  0  0  0  0  0  0  0  0  0  0
   18.1875  -12.1362   15.9016 C   0  0  0  0  0  0  0  0  0  0  0  0
   18.4514  -11.6026   14.6373 C   0  0  0  0  0  0  0  0  0  0  0  0
   17.9902  -10.3244   14.3085 C   0  0  0  0  0  0  0  0  0  0  0  0
   17.2548   -9.5870   15.2416 C   0  0  0  0  0  0  0  0  0  0  0  0
   15.4474   -8.2109   17.2807 C   0  0  0  0  0  0  0  0  0  0  0  0
   15.3361   -7.7152   16.1263 O   0  0  0  0  0  0  0  0  0  0  0  0
   16.2417   -9.3873   17.4980 N   0  0  0  0  0  0  0  0  0  0  0  0
   16.2788   -9.7293   18.4205 H   0  0  0  0  0  0  0  0  0  0  0  0
   13.4225   -6.3655   20.5485 C   0  0  0  0  0  0  0  0  0  0  0  0
   12.8836   -6.3711   19.2962 N   0  0  0  0  0  0  0  0  0  0  0  0
   13.5140   -6.9551   18.2421 C   0  0  0  0  0  0  0  0  0  0  0  0
   14.7558   -7.5776   18.4169 C   0  0  0  0  0  0  0  0  0  0  0  0
   15.3275   -7.5844   19.6934 C   0  0  0  0  0  0  0  0  0  0  0  0
   14.6648   -6.9800   20.7617 C   0  0  0  0  0  0  0  0  0  0  0  0
   13.2472   -5.7439   22.9878 C   0  0  0  0  0  0  0  0  0  0  0  0
   12.7199   -5.7341   21.6319 N   0  0  0  0  0  0  0  0  0  0  0  0
   11.4552   -5.0562   21.3985 C   0  0  0  0  0  0  0  0  0  0  0  0
   18.2501   -9.7631   12.9559 C   0  0  0  0  0  0  0  0  0  0  0  0
   17.0670   -9.9188   12.1229 N   0  0  0  0  0  0  0  0  0  0  0  0
   16.2297  -10.1499   12.5863 H   0  0  0  0  0  0  0  0  0  0  0  0
   16.9914   -9.7707   10.6949 C   0  0  0  0  0  0  0  0  0  0  0  0
   15.9157  -10.3140   10.0676 N   0  0  0  0  0  0  0  0  0  0  0  0
   15.7506  -10.2309    8.7247 C   0  0  0  0  0  0  0  0  0  0  0  0
   16.6714   -9.5912    7.9641 N   0  0  0  0  0  0  0  0  0  0  0  0
   17.7753   -9.0195    8.5148 C   0  0  0  0  0  0  0  0  0  0  0  0
   17.9664   -9.0957    9.9188 C   0  0  0  0  0  0  0  0  0  0  0  0
   19.1016   -8.5033   10.4851 C   0  0  0  0  0  0  0  0  0  0  0  0
   20.0370   -7.8475    9.6892 C   0  0  0  0  0  0  0  0  0  0  0  0
   19.8494   -7.7744    8.3110 C   0  0  0  0  0  0  0  0  0  0  0  0
   18.7271   -8.3525    7.7022 C   0  0  0  0  0  0  0  0  0  0  0  0
   18.5937   -8.2348    6.2278 C   0  0  0  0  0  0  0  0  0  0  0  0
   17.6686   -8.8224    5.6076 O   0  0  0  0  0  0  0  0  0  0  0  0
   19.5216   -7.4464    5.4870 N   0  0  0  0  0  0  0  0  0  0  0  0
   20.2521   -6.9788    5.9527 H   0  0  0  0  0  0  0  0  0  0  0  0
   19.4319   -7.3693    4.5096 H   0  0  0  0  0  0  0  0  0  0  0  0
 17 18  1  0  0  0
 18 19  1  0  0  0
 18 11  1  0  0  0
 11 12  2  0  0  0
 12 13  1  0  0  0
 13 14  2  0  0  0
 14 15  1  0  0  0
 14  7  1  0  0  0
 15 16  2  0  0  0
 16 11  1  0  0  0
  7  8  2  0  0  0
  7  9  1  0  0  0
  9  1  1  0  0  0
  1  2  2  0  0  0
  2  3  1  0  0  0
  3  4  2  0  0  0
  4  5  1  0  0  0
  5  6  2  0  0  0
  5 20  1  0  0  0
  6  1  1  0  0  0
 20 21  1  0  0  0
 21 23  1  0  0  0
 23 24  2  0  0  0
 24 25  1  0  0  0
 25 26  2  0  0  0
 26 27  1  0  0  0
 27 28  2  0  0  0
 28 29  1  0  0  0
 28 23  1  0  0  0
 29 30  2  0  0  0
 30 31  1  0  0  0
 31 32  2  0  0  0
 32 33  1  0  0  0
 32 27  1  0  0  0
 33 34  2  0  0  0
 33 35  1  0  0  0
  9 10  1  0  0  0
 21 22  1  0  0  0
 35 36  1  0  0  0
 35 37  1  0  0  0
M  END
>  <minimizedAffinity>
-9.52754

>  <minimizedRMSD>
0.83931

$$$$
CHEMBL1512155 ChemDiv-G756-0163 MCULE-8875312349 MolPort-007-879-003 PubChem-16030564 ZINC000008598067 ZINC08598067


 32 35  0  0  0  0  0  0  0  0999 V2000
   16.7401   -9.9207   16.8776 C   0  0  0  0  0  0  0  0  0  0  0  0
   16.7574   -9.5148   15.5347 C   0  0  0  0  0  0  0  0  0  0  0  0
   17.4605  -10.2489   14.5751 C   0  0  0  0  0  0  0  0  0  0  0  0
   18.1575  -11.4033   14.9655 C   0  0  0  0  0  0  0  0  0  0  0  0
   18.1477  -11.8126   16.3014 C   0  0  0  0  0  0  0  0  0  0  0  0
   17.4410  -11.0719   17.2530 C   0  0  0  0  0  0  0  0  0  0  0  0
   15.2016   -8.0292   17.6833 C   0  0  0  0  0  0  0  0  0  0  0  0
   15.0510   -7.5399   16.5306 O   0  0  0  0  0  0  0  0  0  0  0  0
   16.0229   -9.1907   17.8827 N   0  0  0  0  0  0  0  0  0  0  0  0
   16.1020   -9.5205   18.8070 H   0  0  0  0  0  0  0  0  0  0  0  0
   13.2468   -6.2014   21.0339 C   0  0  0  0  0  0  0  0  0  0  0  0
   14.4561   -6.8928   21.2091 C   0  0  0  0  0  0  0  0  0  0  0  0
   15.0919   -7.4886   20.1165 C   0  0  0  0  0  0  0  0  0  0  0  0
   14.5299   -7.4023   18.8360 C   0  0  0  0  0  0  0  0  0  0  0  0
   13.3216   -6.7108   18.6641 C   0  0  0  0  0  0  0  0  0  0  0  0
   12.6862   -6.1135   19.7563 C   0  0  0  0  0  0  0  0  0  0  0  0
   12.5913   -5.5849   22.1050 O   0  0  0  0  0  0  0  0  0  0  0  0
   12.1404   -4.9713   24.3937 C   0  0  0  0  0  0  0  0  0  0  0  0
   13.1920   -5.3834   23.3804 C   0  0  0  0  0  0  0  0  0  0  0  0
   17.4522   -9.8088   13.2492 O   0  0  0  0  0  0  0  0  0  0  0  0
   18.5896   -9.9026   12.4009 C   0  0  0  0  0  0  0  0  0  0  0  0
   18.1991   -9.5592   11.0080 C   0  0  0  0  0  0  0  0  0  0  0  0
   16.9733   -9.9834   10.5025 C   0  0  0  0  0  0  0  0  0  0  0  0
   16.6139   -9.6111    9.2079 C   0  0  0  0  0  0  0  0  0  0  0  0
   15.5048   -9.9984    8.7462 O   0  0  0  0  0  0  0  0  0  0  0  0
   17.4578   -8.8368    8.4572 N   0  0  0  0  0  0  0  0  0  0  0  0
   17.1047   -8.4724    7.1883 C   0  0  0  0  0  0  0  0  0  0  0  0
   17.9548   -7.6865    6.4079 C   0  0  0  0  0  0  0  0  0  0  0  0
   19.1764   -7.2715    6.9352 C   0  0  0  0  0  0  0  0  0  0  0  0
   19.5345   -7.6405    8.2304 C   0  0  0  0  0  0  0  0  0  0  0  0
   18.6625   -8.4254    8.9867 C   0  0  0  0  0  0  0  0  0  0  0  0
   19.0138   -8.7855   10.2481 N   0  0  0  0  0  0  0  0  0  0  0  0
 18 19  1  0  0  0
 19 17  1  0  0  0
 17 11  1  0  0  0
 11 12  2  0  0  0
 12 13  1  0  0  0
 13 14  2  0  0  0
 14 15  1  0  0  0
 14  7  1  0  0  0
 15 16  2  0  0  0
 16 11  1  0  0  0
  7  8  2  0  0  0
  7  9  1  0  0  0
  9  1  1  0  0  0
  1  2  2  0  0  0
  2  3  1  0  0  0
  3 20  1  0  0  0
  3  4  2  0  0  0
 20 21  1  0  0  0
 21 22  1  0  0  0
 22 23  2  0  0  0
 23 24  1  0  0  0
 24 25  2  0  0  0
 24 26  1  0  0  0
 26 27  1  0  0  0
 27 28  2  0  0  0
 28 29  1  0  0  0
 29 30  2  0  0  0
 30 31  1  0  0  0
 31 32  2  0  0  0
 31 26  1  0  0  0
 32 22  1  0  0  0
  4  5  1  0  0  0
  5  6  2  0  0  0
  6  1  1  0  0  0
  9 10  1  0  0  0
M  END
>  <minimizedAffinity>
-8.98569

>  <minimizedRMSD>
0.84203

$$$$
CHEMBL2336021 PubChem-71624908 ZINC000095590354


 32 35  0  0  0  0  0  0  0  0999 V2000
   18.7260  -12.0726   13.8345 C   0  0  0  0  0  0  0  0  0  0  0  0
   17.9335  -11.0861   14.6251 C   0  0  0  0  0  0  0  0  0  0  0  0
   17.7956  -11.2869   16.0014 C   0  0  0  0  0  0  0  0  0  0  0  0
   17.0613  -10.3855   16.7757 C   0  0  0  0  0  0  0  0  0  0  0  0
   16.4552   -9.2705   16.1820 C   0  0  0  0  0  0  0  0  0  0  0  0
   16.5942   -9.0700   14.8014 C   0  0  0  0  0  0  0  0  0  0  0  0
   17.3278   -9.9682   14.0197 C   0  0  0  0  0  0  0  0  0  0  0  0
   15.6809   -8.3200   16.9995 C   0  0  0  0  0  0  0  0  0  0  0  0
   15.0290   -7.3982   16.4372 O   0  0  0  0  0  0  0  0  0  0  0  0
   15.6752   -8.4519   18.4294 N   0  0  0  0  0  0  0  0  0  0  0  0
   16.2036   -9.1928   18.8050 H   0  0  0  0  0  0  0  0  0  0  0  0
   14.9815   -7.6189   19.3683 C   0  0  0  0  0  0  0  0  0  0  0  0
   13.7805   -6.9718   19.0424 C   0  0  0  0  0  0  0  0  0  0  0  0
   13.1379   -6.1608   19.9808 C   0  0  0  0  0  0  0  0  0  0  0  0
   13.6888   -5.9951   21.2536 C   0  0  0  0  0  0  0  0  0  0  0  0
   14.8790   -6.6497   21.6001 C   0  0  0  0  0  0  0  0  0  0  0  0
   15.5268   -7.4462   20.6448 C   0  0  0  0  0  0  0  0  0  0  0  0
   15.4999   -6.4296   22.9490 C   0  0  0  0  0  0  0  0  0  0  0  0
   14.7243   -5.5658   23.7027 F   0  0  0  0  0  0  0  0  0  0  0  0
   15.6119   -7.6294   23.6302 F   0  0  0  0  0  0  0  0  0  0  0  0
   16.7591   -5.8825   22.7882 F   0  0  0  0  0  0  0  0  0  0  0  0
   17.4429   -9.7213   12.6054 C   0  0  0  0  0  0  0  0  0  0  0  0
   17.5396   -9.5150   11.4214 C   0  0  0  0  0  0  0  0  0  0  0  0
   17.6548   -9.2702   10.0122 C   0  0  0  0  0  0  0  0  0  0  0  0
   16.7611   -9.8730    9.1055 C   0  0  0  0  0  0  0  0  0  0  0  0
   16.8724   -9.6390    7.7646 N   0  0  0  0  0  0  0  0  0  0  0  0
   17.8584   -8.8170    7.3289 C   0  0  0  0  0  0  0  0  0  0  0  0
   18.1417   -8.4526    6.0325 C   0  0  0  0  0  0  0  0  0  0  0  0
   19.2447   -7.6044    6.1980 C   0  0  0  0  0  0  0  0  0  0  0  0
   19.5684   -7.4938    7.5106 N   0  0  0  0  0  0  0  0  0  0  0  0
   18.7113   -8.2397    8.1758 N   0  0  0  0  0  0  0  0  0  0  0  0
   18.6584   -8.4277    9.5156 C   0  0  0  0  0  0  0  0  0  0  0  0
  1  2  1  0  0  0
  2  3  2  0  0  0
  3  4  1  0  0  0
  4  5  2  0  0  0
  5  8  1  0  0  0
  5  6  1  0  0  0
  8  9  2  0  0  0
  8 10  1  0  0  0
 10 12  1  0  0  0
 12 13  2  0  0  0
 13 14  1  0  0  0
 14 15  2  0  0  0
 15 16  1  0  0  0
 16 18  1  0  0  0
 16 17  2  0  0  0
 18 19  1  0  0  0
 18 20  1  0  0  0
 18 21  1  0  0  0
 17 12  1  0  0  0
  6  7  2  0  0  0
  7 22  1  0  0  0
  7  2  1  0  0  0
 22 23  3  0  0  0
 23 24  1  0  0  0
 24 25  1  0  0  0
 25 26  2  0  0  0
 26 27  1  0  0  0
 27 28  2  0  0  0
 28 29  1  0  0  0
 29 30  2  0  0  0
 30 31  1  0  0  0
 31 32  1  0  0  0
 31 27  1  0  0  0
 32 24  2  0  0  0
 10 11  1  0  0  0
M  END
>  <minimizedAffinity>
-12.27882

>  <minimizedRMSD>
0.84229

$$$$
CHEMBL3809705 PubChem-76903460


 35 38  0  0  0  0  0  0  0  0999 V2000
   18.9340  -12.2204   13.6255 C   0  0  0  0  0  0  0  0  0  0  0  0
   18.2237  -11.4082   14.6550 C   0  0  0  0  0  0  0  0  0  0  0  0
   17.8097  -10.0884   14.3951 C   0  0  0  0  0  0  0  0  0  0  0  0
   17.1374   -9.3667   15.3872 C   0  0  0  0  0  0  0  0  0  0  0  0
   16.8828   -9.9400   16.6415 C   0  0  0  0  0  0  0  0  0  0  0  0
   17.3041  -11.2492   16.8925 C   0  0  0  0  0  0  0  0  0  0  0  0
   17.9701  -11.9799   15.9051 C   0  0  0  0  0  0  0  0  0  0  0  0
   16.1996   -9.2242   17.6793 N   0  0  0  0  0  0  0  0  0  0  0  0
   15.3226   -8.0988   17.5161 C   0  0  0  0  0  0  0  0  0  0  0  0
   15.0769   -7.6374   16.3681 O   0  0  0  0  0  0  0  0  0  0  0  0
   16.3473   -9.5373   18.6009 H   0  0  0  0  0  0  0  0  0  0  0  0
   14.7038   -7.4778   18.7006 C   0  0  0  0  0  0  0  0  0  0  0  0
   13.4894   -6.7886   18.5888 C   0  0  0  0  0  0  0  0  0  0  0  0
   12.9195   -6.2071   19.7234 C   0  0  0  0  0  0  0  0  0  0  0  0
   13.5416   -6.3110   20.9282 N   0  0  0  0  0  0  0  0  0  0  0  0
   14.7208   -6.9743   21.0648 C   0  0  0  0  0  0  0  0  0  0  0  0
   15.3223   -7.5691   19.9536 C   0  0  0  0  0  0  0  0  0  0  0  0
   11.6314   -5.4741   19.6136 C   0  0  0  0  0  0  0  0  0  0  0  0
   18.0366   -9.4449   13.0675 C   0  0  0  0  0  0  0  0  0  0  0  0
   16.9948   -9.8553   12.1381 N   0  0  0  0  0  0  0  0  0  0  0  0
   16.1884  -10.2913   12.4971 H   0  0  0  0  0  0  0  0  0  0  0  0
   17.0916   -9.6528   10.7270 C   0  0  0  0  0  0  0  0  0  0  0  0
   16.1442  -10.2624    9.8749 C   0  0  0  0  0  0  0  0  0  0  0  0
   16.2093  -10.0885    8.5208 N   0  0  0  0  0  0  0  0  0  0  0  0
   17.1991   -9.3199    8.0023 C   0  0  0  0  0  0  0  0  0  0  0  0
   18.1333   -8.7141    8.7880 C   0  0  0  0  0  0  0  0  0  0  0  0
   18.1145   -8.8570   10.1703 C   0  0  0  0  0  0  0  0  0  0  0  0
   18.9920   -8.0137    7.9747 C   0  0  0  0  0  0  0  0  0  0  0  0
   18.4854   -8.2623    6.6944 C   0  0  0  0  0  0  0  0  0  0  0  0
   17.3883   -9.0606    6.7016 N   0  0  0  0  0  0  0  0  0  0  0  0
   16.8578   -9.3745    5.9340 H   0  0  0  0  0  0  0  0  0  0  0  0
   19.0642   -7.7243    5.4581 C   0  0  0  0  0  0  0  0  0  0  0  0
   20.0779   -6.9748    5.5106 O   0  0  0  0  0  0  0  0  0  0  0  0
   18.4846   -8.0481    4.2302 O   0  0  0  0  0  0  0  0  0  0  0  0
   19.1277   -7.7588    2.9981 C   0  0  0  0  0  0  0  0  0  0  0  0
  1  2  1  0  0  0
  2  3  2  0  0  0
  3  4  1  0  0  0
  3 19  1  0  0  0
  4  5  2  0  0  0
  5  6  1  0  0  0
  5  8  1  0  0  0
  6  7  2  0  0  0
  7  2  1  0  0  0
  8  9  1  0  0  0
  9 10  2  0  0  0
  9 12  1  0  0  0
 12 13  2  0  0  0
 13 14  1  0  0  0
 14 15  2  0  0  0
 14 18  1  0  0  0
 15 16  1  0  0  0
 16 17  2  0  0  0
 17 12  1  0  0  0
 19 20  1  0  0  0
 20 22  1  0  0  0
 22 23  2  0  0  0
 23 24  1  0  0  0
 24 25  2  0  0  0
 25 26  1  0  0  0
 26 27  2  0  0  0
 26 28  1  0  0  0
 27 22  1  0  0  0
 28 29  2  0  0  0
 29 30  1  0  0  0
 29 32  1  0  0  0
 30 25  1  0  0  0
 32 33  2  0  0  0
 32 34  1  0  0  0
 34 35  1  0  0  0
  8 11  1  0  0  0
 20 21  1  0  0  0
 30 31  1  0  0  0
M  END
>  <minimizedAffinity>
-11.07392

>  <minimizedRMSD>
0.85235

$$$$
CHEMBL3808753 PubChem-76903275


 35 38  0  0  0  0  0  0  0  0999 V2000
   18.9337  -12.2275   13.6374 C   0  0  0  0  0  0  0  0  0  0  0  0
   18.2233  -11.4119   14.6642 C   0  0  0  0  0  0  0  0  0  0  0  0
   17.8113  -10.0921   14.4005 C   0  0  0  0  0  0  0  0  0  0  0  0
   17.1387   -9.3672   15.3899 C   0  0  0  0  0  0  0  0  0  0  0  0
   16.8819   -9.9370   16.6452 C   0  0  0  0  0  0  0  0  0  0  0  0
   17.3014  -11.2459   16.9002 C   0  0  0  0  0  0  0  0  0  0  0  0
   17.9676  -11.9799   15.9155 C   0  0  0  0  0  0  0  0  0  0  0  0
   16.1978   -9.2178   17.6802 N   0  0  0  0  0  0  0  0  0  0  0  0
   15.3196   -8.0941   17.5125 C   0  0  0  0  0  0  0  0  0  0  0  0
   15.0751   -7.6358   16.3633 O   0  0  0  0  0  0  0  0  0  0  0  0
   16.3458   -9.5270   18.6030 H   0  0  0  0  0  0  0  0  0  0  0  0
   14.6983   -7.4711   18.6940 C   0  0  0  0  0  0  0  0  0  0  0  0
   13.4747   -6.7981   18.5879 C   0  0  0  0  0  0  0  0  0  0  0  0
   12.8979   -6.2129   19.7157 C   0  0  0  0  0  0  0  0  0  0  0  0
   13.5526   -6.3062   20.9448 C   0  0  0  0  0  0  0  0  0  0  0  0
   14.7403   -6.9625   21.0351 N   0  0  0  0  0  0  0  0  0  0  0  0
   15.3196   -7.5400   19.9479 C   0  0  0  0  0  0  0  0  0  0  0  0
   11.5999   -5.4975   19.6091 C   0  0  0  0  0  0  0  0  0  0  0  0
   18.0414   -9.4521   13.0717 C   0  0  0  0  0  0  0  0  0  0  0  0
   16.9964   -9.8576   12.1435 N   0  0  0  0  0  0  0  0  0  0  0  0
   16.1888  -10.2907   12.5034 H   0  0  0  0  0  0  0  0  0  0  0  0
   17.0919   -9.6544   10.7324 C   0  0  0  0  0  0  0  0  0  0  0  0
   16.1428  -10.2624    9.8810 C   0  0  0  0  0  0  0  0  0  0  0  0
   16.2068  -10.0878    8.5270 N   0  0  0  0  0  0  0  0  0  0  0  0
   17.1970   -9.3202    8.0079 C   0  0  0  0  0  0  0  0  0  0  0  0
   18.1325   -8.7157    8.7929 C   0  0  0  0  0  0  0  0  0  0  0  0
   18.1150   -8.8594   10.1751 C   0  0  0  0  0  0  0  0  0  0  0  0
   18.9913   -8.0158    7.9791 C   0  0  0  0  0  0  0  0  0  0  0  0
   18.4831   -8.2633    6.6991 C   0  0  0  0  0  0  0  0  0  0  0  0
   17.3852   -9.0605    6.7071 N   0  0  0  0  0  0  0  0  0  0  0  0
   16.8536   -9.3736    5.9398 H   0  0  0  0  0  0  0  0  0  0  0  0
   19.0619   -7.7263    5.4625 C   0  0  0  0  0  0  0  0  0  0  0  0
   20.0753   -6.9765    5.5144 O   0  0  0  0  0  0  0  0  0  0  0  0
   18.4829   -8.0518    4.2347 O   0  0  0  0  0  0  0  0  0  0  0  0
   19.1241   -7.7597    3.0025 C   0  0  0  0  0  0  0  0  0  0  0  0
  1  2  1  0  0  0
  2  3  2  0  0  0
  3  4  1  0  0  0
  3 19  1  0  0  0
  4  5  2  0  0  0
  5  6  1  0  0  0
  5  8  1  0  0  0
  6  7  2  0  0  0
  7  2  1  0  0  0
  8  9  1  0  0  0
  9 10  2  0  0  0
  9 12  1  0  0  0
 12 13  2  0  0  0
 13 14  1  0  0  0
 14 15  2  0  0  0
 14 18  1  0  0  0
 15 16  1  0  0  0
 16 17  2  0  0  0
 17 12  1  0  0  0
 19 20  1  0  0  0
 20 22  1  0  0  0
 22 23  2  0  0  0
 23 24  1  0  0  0
 24 25  2  0  0  0
 25 26  1  0  0  0
 26 27  2  0  0  0
 26 28  1  0  0  0
 27 22  1  0  0  0
 28 29  2  0  0  0
 29 30  1  0  0  0
 29 32  1  0  0  0
 30 25  1  0  0  0
 32 33  2  0  0  0
 32 34  1  0  0  0
 34 35  1  0  0  0
  8 11  1  0  0  0
 20 21  1  0  0  0
 30 31  1  0  0  0
M  END
>  <minimizedAffinity>
-11.07160

>  <minimizedRMSD>
0.85289

$$$$
CHEMBL1733951 8603804 ChemDiv-C679-5588 MCULE-2913188413 MolPort-007-656-138 PubChem-16009578 ZINC000008603804


 30 33  0  0  0  0  0  0  0  0999 V2000
   17.3463   -9.9415   15.1181 C   0  0  0  0  0  0  0  0  0  0  0  0
   18.0214  -11.0454   15.6625 C   0  0  0  0  0  0  0  0  0  0  0  0
   17.9705  -11.2928   17.0363 C   0  0  0  0  0  0  0  0  0  0  0  0
   17.2458  -10.4401   17.8733 C   0  0  0  0  0  0  0  0  0  0  0  0
   16.5683   -9.3365   17.3447 C   0  0  0  0  0  0  0  0  0  0  0  0
   16.6237   -9.0940   15.9638 C   0  0  0  0  0  0  0  0  0  0  0  0
   15.8359   -8.4852   18.2367 N   0  0  0  0  0  0  0  0  0  0  0  0
   14.6741   -7.7023   17.9212 C   0  0  0  0  0  0  0  0  0  0  0  0
   14.1882   -7.7147   16.7574 O   0  0  0  0  0  0  0  0  0  0  0  0
   16.1644   -8.4318   19.1632 H   0  0  0  0  0  0  0  0  0  0  0  0
   14.0439   -6.8773   18.9671 C   0  0  0  0  0  0  0  0  0  0  0  0
   12.9579   -6.0446   18.6574 C   0  0  0  0  0  0  0  0  0  0  0  0
   12.3608   -5.2625   19.6503 C   0  0  0  0  0  0  0  0  0  0  0  0
   12.8451   -5.3070   20.9603 C   0  0  0  0  0  0  0  0  0  0  0  0
   13.9263   -6.1335   21.2776 C   0  0  0  0  0  0  0  0  0  0  0  0
   14.3959   -6.1770   22.5473 F   0  0  0  0  0  0  0  0  0  0  0  0
   14.5234   -6.9157   20.2847 C   0  0  0  0  0  0  0  0  0  0  0  0
   17.3767   -9.6653   13.7489 O   0  0  0  0  0  0  0  0  0  0  0  0
   18.0264  -10.5114   12.8093 C   0  0  0  0  0  0  0  0  0  0  0  0
   17.4309   -8.9518    8.9342 N   0  0  0  0  0  0  0  0  0  0  0  0
   17.4123   -8.3642    7.7078 C   0  0  0  0  0  0  0  0  0  0  0  0
   18.5788   -7.6543    7.4324 C   0  0  0  0  0  0  0  0  0  0  0  0
   19.6477   -7.7618    8.7396 S   0  0  0  0  0  0  0  0  0  0  0  0
   18.5770   -8.7155    9.6111 C   0  0  0  0  0  0  0  0  0  0  0  0
   18.7864   -9.2148   10.8538 N   0  0  0  0  0  0  0  0  0  0  0  0
   17.8215   -9.9808   11.4358 C   0  0  0  0  0  0  0  0  0  0  0  0
   16.6174  -10.2367   10.7615 C   0  0  0  0  0  0  0  0  0  0  0  0
   16.4370   -9.7042    9.4804 C   0  0  0  0  0  0  0  0  0  0  0  0
   15.3672   -9.9221    8.8510 O   0  0  0  0  0  0  0  0  0  0  0  0
   18.8464   -6.9101    6.1746 C   0  0  0  0  0  0  0  0  0  0  0  0
 20 21  1  0  0  0
 21 22  2  0  0  0
 22 23  1  0  0  0
 23 24  1  0  0  0
 24 25  2  0  0  0
 25 26  1  0  0  0
 26 19  1  0  0  0
 19 18  1  0  0  0
 18  1  1  0  0  0
  1  2  2  0  0  0
  2  3  1  0  0  0
  3  4  2  0  0  0
  4  5  1  0  0  0
  5  6  2  0  0  0
  5  7  1  0  0  0
  7  8  1  0  0  0
  8  9  2  0  0  0
  8 11  1  0  0  0
 11 12  2  0  0  0
 12 13  1  0  0  0
 13 14  2  0  0  0
 14 15  1  0  0  0
 15 16  1  0  0  0
 15 17  2  0  0  0
 26 27  2  0  0  0
 27 28  1  0  0  0
 28 29  2  0  0  0
 22 30  1  0  0  0
 24 20  1  0  0  0
  6  1  1  0  0  0
 17 11  1  0  0  0
 28 20  1  0  0  0
  7 10  1  0  0  0
M  END
>  <minimizedAffinity>
-7.06399

>  <minimizedRMSD>
0.85751

$$$$
CHEMBL3809587 PubChem-76903459


 35 38  0  0  0  0  0  0  0  0999 V2000
   18.9259  -12.2040   13.6156 C   0  0  0  0  0  0  0  0  0  0  0  0
   18.2172  -11.3958   14.6495 C   0  0  0  0  0  0  0  0  0  0  0  0
   17.7995  -10.0762   14.3942 C   0  0  0  0  0  0  0  0  0  0  0  0
   17.1288   -9.3585   15.3901 C   0  0  0  0  0  0  0  0  0  0  0  0
   16.8797   -9.9353   16.6437 C   0  0  0  0  0  0  0  0  0  0  0  0
   17.3048  -11.2441   16.8903 C   0  0  0  0  0  0  0  0  0  0  0  0
   17.9692  -11.9709   15.8992 C   0  0  0  0  0  0  0  0  0  0  0  0
   16.1976   -9.2237   17.6853 N   0  0  0  0  0  0  0  0  0  0  0  0
   15.3217   -8.0967   17.5279 C   0  0  0  0  0  0  0  0  0  0  0  0
   15.0781   -7.6278   16.3827 O   0  0  0  0  0  0  0  0  0  0  0  0
   16.3454   -9.5413   18.6053 H   0  0  0  0  0  0  0  0  0  0  0  0
   14.7017   -7.4826   18.7153 C   0  0  0  0  0  0  0  0  0  0  0  0
   13.4852   -6.7923   18.6048 C   0  0  0  0  0  0  0  0  0  0  0  0
   12.8977   -6.2102   19.7318 C   0  0  0  0  0  0  0  0  0  0  0  0
   13.5219   -6.3139   20.9777 C   0  0  0  0  0  0  0  0  0  0  0  0
   14.7337   -6.9995   21.0969 C   0  0  0  0  0  0  0  0  0  0  0  0
   15.3213   -7.5817   19.9698 C   0  0  0  0  0  0  0  0  0  0  0  0
   11.6091   -5.4811   19.6047 C   0  0  0  0  0  0  0  0  0  0  0  0
   18.0213   -9.4289   13.0675 C   0  0  0  0  0  0  0  0  0  0  0  0
   16.9874   -9.8526   12.1351 N   0  0  0  0  0  0  0  0  0  0  0  0
   16.1846  -10.2969   12.4920 H   0  0  0  0  0  0  0  0  0  0  0  0
   17.0871   -9.6517   10.7240 C   0  0  0  0  0  0  0  0  0  0  0  0
   16.1435  -10.2650    9.8704 C   0  0  0  0  0  0  0  0  0  0  0  0
   16.2116  -10.0928    8.5162 N   0  0  0  0  0  0  0  0  0  0  0  0
   17.2004   -9.3222    7.9992 C   0  0  0  0  0  0  0  0  0  0  0  0
   18.1309   -8.7125    8.7864 C   0  0  0  0  0  0  0  0  0  0  0  0
   18.1090   -8.8536   10.1688 C   0  0  0  0  0  0  0  0  0  0  0  0
   18.9896   -8.0105    7.9743 C   0  0  0  0  0  0  0  0  0  0  0  0
   18.4869   -8.2625    6.6930 C   0  0  0  0  0  0  0  0  0  0  0  0
   17.3923   -9.0642    6.6985 N   0  0  0  0  0  0  0  0  0  0  0  0
   16.8648   -9.3808    5.9300 H   0  0  0  0  0  0  0  0  0  0  0  0
   19.0679   -7.7254    5.4574 C   0  0  0  0  0  0  0  0  0  0  0  0
   20.0829   -6.9778    5.5109 O   0  0  0  0  0  0  0  0  0  0  0  0
   18.4894   -8.0486    4.2289 O   0  0  0  0  0  0  0  0  0  0  0  0
   19.1297   -7.7515    2.9972 C   0  0  0  0  0  0  0  0  0  0  0  0
  1  2  1  0  0  0
  2  3  2  0  0  0
  3  4  1  0  0  0
  4  5  2  0  0  0
  5  6  1  0  0  0
  6  7  2  0  0  0
  5  8  1  0  0  0
  8  9  1  0  0  0
  9 10  2  0  0  0
  9 12  1  0  0  0
 12 13  2  0  0  0
 13 14  1  0  0  0
 14 15  2  0  0  0
 15 16  1  0  0  0
 16 17  2  0  0  0
 14 18  1  0  0  0
  3 19  1  0  0  0
 19 20  1  0  0  0
 20 22  1  0  0  0
 22 23  2  0  0  0
 23 24  1  0  0  0
 24 25  2  0  0  0
 25 26  1  0  0  0
 26 27  2  0  0  0
 26 28  1  0  0  0
 28 29  2  0  0  0
 29 30  1  0  0  0
 29 32  1  0  0  0
 32 33  2  0  0  0
 32 34  1  0  0  0
 34 35  1  0  0  0
  7  2  1  0  0  0
 17 12  1  0  0  0
 27 22  1  0  0  0
 30 25  1  0  0  0
  8 11  1  0  0  0
 20 21  1  0  0  0
 30 31  1  0  0  0
M  END
>  <minimizedAffinity>
-11.24751

>  <minimizedRMSD>
0.86296

$$$$
CHEMBL5094239 PubChem-72949376


 36 41  0  0  0  0  0  0  0  0999 V2000
   18.7442  -12.3023   13.6689 C   0  0  0  0  0  0  0  0  0  0  0  0
   17.9826  -11.3428   14.5209 C   0  0  0  0  0  0  0  0  0  0  0  0
   17.2440  -10.2820   13.9622 C   0  0  0  0  0  0  0  0  0  0  0  0
   16.5457   -9.4073   14.8006 C   0  0  0  0  0  0  0  0  0  0  0  0
   16.5736   -9.5760   16.1911 C   0  0  0  0  0  0  0  0  0  0  0  0
   17.3105  -10.6333   16.7396 C   0  0  0  0  0  0  0  0  0  0  0  0
   18.0106  -11.5110   15.9085 C   0  0  0  0  0  0  0  0  0  0  0  0
   15.8352   -8.6509   17.0664 C   0  0  0  0  0  0  0  0  0  0  0  0
   14.6112   -8.1510   16.7448 N   0  0  0  0  0  0  0  0  0  0  0  0
   14.3259   -7.3770   17.8008 C   0  0  0  0  0  0  0  0  0  0  0  0
   15.3419   -7.4210   18.7045 C   0  0  0  0  0  0  0  0  0  0  0  0
   16.3194   -8.2250   18.2646 N   0  0  0  0  0  0  0  0  0  0  0  0
   15.3024   -6.7065   19.8983 C   0  0  0  0  0  0  0  0  0  0  0  0
   14.1553   -5.9292   20.1535 C   0  0  0  0  0  0  0  0  0  0  0  0
   13.1066   -5.8755   19.2055 C   0  0  0  0  0  0  0  0  0  0  0  0
   13.1826   -6.6105   18.0082 C   0  0  0  0  0  0  0  0  0  0  0  0
   17.1734   -8.4509   18.6993 H   0  0  0  0  0  0  0  0  0  0  0  0
   14.0583   -5.1327   21.4207 C   0  0  0  0  0  0  0  0  0  0  0  0
   13.3786   -5.8254   22.5261 N   0  0  0  0  0  0  0  0  0  0  0  0
   11.9112   -5.8201   22.4100 C   0  0  0  0  0  0  0  0  0  0  0  0
   11.3845   -7.0249   21.6283 C   0  0  0  0  0  0  0  0  0  0  0  0
   11.8839   -8.2573   22.2216 N   0  0  0  0  0  0  0  0  0  0  0  0
   13.3288   -8.2721   22.0423 C   0  0  0  0  0  0  0  0  0  0  0  0
   13.9653   -7.1367   22.8461 C   0  0  0  0  0  0  0  0  0  0  0  0
   11.3553   -9.3468   21.4222 C   0  0  0  0  0  0  0  0  0  0  0  0
   17.1870  -10.0695   12.5389 C   0  0  0  0  0  0  0  0  0  0  0  0
   17.1403   -9.8912   11.3477 C   0  0  0  0  0  0  0  0  0  0  0  0
   17.0871   -9.6771    9.9273 C   0  0  0  0  0  0  0  0  0  0  0  0
   16.1815  -10.2399    9.0382 C   0  0  0  0  0  0  0  0  0  0  0  0
   16.4621   -9.7880    7.7853 N   0  0  0  0  0  0  0  0  0  0  0  0
   17.5216   -8.9719    7.9568 C   0  0  0  0  0  0  0  0  0  0  0  0
   17.9127   -8.8905    9.2309 N   0  0  0  0  0  0  0  0  0  0  0  0
   18.9352   -8.1492    9.6522 N   0  0  0  0  0  0  0  0  0  0  0  0
   19.6386   -7.4207    8.7389 C   0  0  0  0  0  0  0  0  0  0  0  0
   19.2729   -7.4660    7.3790 C   0  0  0  0  0  0  0  0  0  0  0  0
   18.1890   -8.2585    6.9686 C   0  0  0  0  0  0  0  0  0  0  0  0
  1  2  1  0  0  0
  2  3  2  0  0  0
  3  4  1  0  0  0
  3 26  1  0  0  0
  4  5  2  0  0  0
  5  6  1  0  0  0
  5  8  1  0  0  0
  6  7  2  0  0  0
  7  2  1  0  0  0
  8  9  2  0  0  0
  9 10  1  0  0  0
 10 11  2  0  0  0
 11 12  1  0  0  0
 11 13  1  0  0  0
 12  8  1  0  0  0
 13 14  2  0  0  0
 14 15  1  0  0  0
 14 18  1  0  0  0
 15 16  2  0  0  0
 16 10  1  0  0  0
 18 19  1  0  0  0
 19 20  1  0  0  0
 20 21  1  0  0  0
 21 22  1  0  0  0
 22 23  1  0  0  0
 22 25  1  0  0  0
 23 24  1  0  0  0
 24 19  1  0  0  0
 26 27  3  0  0  0
 27 28  1  0  0  0
 28 29  2  0  0  0
 29 30  1  0  0  0
 30 31  2  0  0  0
 31 32  1  0  0  0
 32 33  1  0  0  0
 32 28  1  0  0  0
 33 34  2  0  0  0
 34 35  1  0  0  0
 35 36  2  0  0  0
 36 31  1  0  0  0
 12 17  1  0  0  0
M  END
>  <minimizedAffinity>
-5.00930

>  <minimizedRMSD>
0.86300

$$$$
CHEMBL3966238


 36 40  0  0  0  0  0  0  0  0999 V2000
   19.7224   -8.5610   11.2810 C   0  0  0  0  0  0  0  0  0  0  0  0
   19.2741   -9.0970   12.4480 N   0  0  0  0  0  0  0  0  0  0  0  0
   19.9802   -8.9651   13.6031 C   0  0  0  0  0  0  0  0  0  0  0  0
   21.1875   -8.2640   13.5949 C   0  0  0  0  0  0  0  0  0  0  0  0
   21.6338   -7.7190   12.3925 C   0  0  0  0  0  0  0  0  0  0  0  0
   20.8976   -7.8761   11.2616 N   0  0  0  0  0  0  0  0  0  0  0  0
   21.9170   -8.1116   14.7276 F   0  0  0  0  0  0  0  0  0  0  0  0
   15.4819  -10.0939   10.2914 C   0  0  0  0  0  0  0  0  0  0  0  0
   15.2536  -10.0263    8.8970 C   0  0  0  0  0  0  0  0  0  0  0  0
   16.2229   -9.5551    8.0542 N   0  0  0  0  0  0  0  0  0  0  0  0
   17.4054   -9.1542    8.5824 C   0  0  0  0  0  0  0  0  0  0  0  0
   17.6608   -9.2040    9.9179 C   0  0  0  0  0  0  0  0  0  0  0  0
   16.7147   -9.6741   10.8230 C   0  0  0  0  0  0  0  0  0  0  0  0
   18.9446   -8.7213   10.0439 C   0  0  0  0  0  0  0  0  0  0  0  0
   19.4050   -8.4058    8.8075 N   0  0  0  0  0  0  0  0  0  0  0  0
   18.4606   -8.6708    7.9072 N   0  0  0  0  0  0  0  0  0  0  0  0
   14.5141  -10.5629   11.1147 F   0  0  0  0  0  0  0  0  0  0  0  0
   18.5238   -8.5380    6.9338 H   0  0  0  0  0  0  0  0  0  0  0  0
   19.4921   -9.5353   14.8204 N   0  0  0  0  0  0  0  0  0  0  0  0
   20.1426   -9.8111   15.5060 H   0  0  0  0  0  0  0  0  0  0  0  0
   18.0736   -9.7252   15.0883 C   0  0  0  0  0  0  0  0  0  0  0  0
   17.7414  -11.2258   15.1717 C   0  0  0  0  0  0  0  0  0  0  0  0
   17.7609  -11.7271   16.6132 C   0  0  0  0  0  0  0  0  0  0  0  0
   16.7197  -10.9959   17.4712 C   0  0  0  0  0  0  0  0  0  0  0  0
   16.4548   -9.5529   17.0200 C   0  0  0  0  0  0  0  0  0  0  0  0
   17.6898   -8.9469   16.3532 C   0  0  0  0  0  0  0  0  0  0  0  0
   16.0535   -8.7525   18.1676 N   0  0  0  0  0  0  0  0  0  0  0  0
   14.9400   -7.8527   18.1392 C   0  0  0  0  0  0  0  0  0  0  0  0
   14.2312   -7.7612   17.0993 O   0  0  0  0  0  0  0  0  0  0  0  0
   14.6218   -7.0674   19.2957 N   0  0  0  0  0  0  0  0  0  0  0  0
   13.5552   -6.0670   19.2297 C   0  0  0  0  0  0  0  0  0  0  0  0
   12.9712   -5.8478   20.6254 C   0  0  0  0  0  0  0  0  0  0  0  0
   14.0029   -5.5570   21.5342 O   0  0  0  0  0  0  0  0  0  0  0  0
   14.7141   -6.7549   21.7189 C   0  0  0  0  0  0  0  0  0  0  0  0
   15.5117   -7.0849   20.4573 C   0  0  0  0  0  0  0  0  0  0  0  0
   16.5712   -8.8335   19.0011 H   0  0  0  0  0  0  0  0  0  0  0  0
  8  9  2  0  0  0
  9 10  1  0  0  0
 10 11  2  0  0  0
 11 12  1  0  0  0
 12 13  2  0  0  0
 12 14  1  0  0  0
 14 15  2  0  0  0
 15 16  1  0  0  0
 14  1  1  0  0  0
  1  2  2  0  0  0
  2  3  1  0  0  0
  3  4  2  0  0  0
  4  5  1  0  0  0
  5  6  2  0  0  0
  4  7  1  0  0  0
  3 19  1  0  0  0
 21 19  1  0  0  0
 21 22  1  0  0  0
 22 23  1  0  0  0
 23 24  1  0  0  0
 24 25  1  0  0  0
 25 26  1  0  0  0
 25 27  1  0  0  0
 27 28  1  0  0  0
 28 29  2  0  0  0
 28 30  1  0  0  0
 30 31  1  0  0  0
 31 32  1  0  0  0
 32 33  1  0  0  0
 33 34  1  0  0  0
 34 35  1  0  0  0
  8 17  1  0  0  0
 13  8  1  0  0  0
  6  1  1  0  0  0
 26 21  1  0  0  0
 35 30  1  0  0  0
 16 11  1  0  0  0
 16 18  1  0  0  0
 19 20  1  0  0  0
 27 36  1  0  0  0
M  END
>  <minimizedAffinity>
10.81685

>  <minimizedRMSD>
0.86373

$$$$
CHEMBL4163939 PubChem-145960033


 30 34  0  0  0  0  0  0  0  0999 V2000
   17.4272   -7.6176   12.0732 C   0  0  0  0  0  0  0  0  0  0  0  0
   16.7368   -6.8406   13.0234 C   0  0  0  0  0  0  0  0  0  0  0  0
   16.5155   -7.3955   14.2808 C   0  0  0  0  0  0  0  0  0  0  0  0
   16.9552   -8.6462   14.6048 C   0  0  0  0  0  0  0  0  0  0  0  0
   17.6649   -9.4404   13.7066 C   0  0  0  0  0  0  0  0  0  0  0  0
   17.8983   -8.9097   12.4256 C   0  0  0  0  0  0  0  0  0  0  0  0
   16.6279   -8.9059   15.8772 N   0  0  0  0  0  0  0  0  0  0  0  0
   15.9850   -7.7815   16.2896 C   0  0  0  0  0  0  0  0  0  0  0  0
   15.9087   -6.8181   15.3347 N   0  0  0  0  0  0  0  0  0  0  0  0
   17.0515  -10.0511   16.6695 C   0  0  0  0  0  0  0  0  0  0  0  0
   15.5097   -7.5644   17.6239 N   0  0  0  0  0  0  0  0  0  0  0  0
   15.6690   -6.6776   18.0209 H   0  0  0  0  0  0  0  0  0  0  0  0
   14.8227   -8.5291   18.4279 C   0  0  0  0  0  0  0  0  0  0  0  0
   14.1885   -9.6411   17.8524 C   0  0  0  0  0  0  0  0  0  0  0  0
   13.4879  -10.5460   18.6549 C   0  0  0  0  0  0  0  0  0  0  0  0
   13.4074  -10.3383   20.0345 C   0  0  0  0  0  0  0  0  0  0  0  0
   14.0199   -9.2216   20.6101 C   0  0  0  0  0  0  0  0  0  0  0  0
   14.7210   -8.3170   19.8070 C   0  0  0  0  0  0  0  0  0  0  0  0
   12.5312  -11.4713   21.0401 Cl  0  0  0  0  0  0  0  0  0  0  0  0
   17.6726   -7.0677   10.8085 O   0  0  0  0  0  0  0  0  0  0  0  0
   18.9487   -7.3104    8.7996 N   0  0  0  0  0  0  0  0  0  0  0  0
   19.2949   -7.9817    7.6544 C   0  0  0  0  0  0  0  0  0  0  0  0
   18.6967   -9.1687    7.3369 N   0  0  0  0  0  0  0  0  0  0  0  0
   17.7612   -9.6535    8.1881 C   0  0  0  0  0  0  0  0  0  0  0  0
   17.4011   -9.0105    9.3259 C   0  0  0  0  0  0  0  0  0  0  0  0
   18.0121   -7.8023    9.6647 C   0  0  0  0  0  0  0  0  0  0  0  0
   16.3803   -9.7634    9.8834 C   0  0  0  0  0  0  0  0  0  0  0  0
   16.1798  -10.8338    9.0675 N   0  0  0  0  0  0  0  0  0  0  0  0
   17.0216  -10.7571    8.0436 N   0  0  0  0  0  0  0  0  0  0  0  0
   17.0797  -11.7145    6.9533 C   0  0  0  0  0  0  0  0  0  0  0  0
 21 22  2  0  0  0
 22 23  1  0  0  0
 23 24  2  0  0  0
 24 25  1  0  0  0
 25 26  2  0  0  0
 26 20  1  0  0  0
 20  1  1  0  0  0
  1  2  2  0  0  0
  2  3  1  0  0  0
  3  4  2  0  0  0
  4  5  1  0  0  0
  5  6  2  0  0  0
  4  7  1  0  0  0
  7  8  1  0  0  0
  8  9  2  0  0  0
  8 11  1  0  0  0
 11 13  1  0  0  0
 13 14  2  0  0  0
 14 15  1  0  0  0
 15 16  2  0  0  0
 16 17  1  0  0  0
 17 18  2  0  0  0
 16 19  1  0  0  0
  7 10  1  0  0  0
 25 27  1  0  0  0
 27 28  2  0  0  0
 28 29  1  0  0  0
 29 30  1  0  0  0
 26 21  1  0  0  0
  6  1  1  0  0  0
 18 13  1  0  0  0
 29 24  1  0  0  0
  9  3  1  0  0  0
 11 12  1  0  0  0
M  END
>  <minimizedAffinity>
32.38587

>  <minimizedRMSD>
0.86701

$$$$
CHEMBL2180439 PubChem-71452033


 34 38  0  0  0  0  0  0  0  0999 V2000
   17.2209   -9.8844   14.0002 C   0  0  0  0  0  0  0  0  0  0  0  0
   16.3498   -8.9911   14.5456 N   0  0  0  0  0  0  0  0  0  0  0  0
   16.1487   -8.9316   15.8892 C   0  0  0  0  0  0  0  0  0  0  0  0
   16.8478   -9.8030   16.7273 C   0  0  0  0  0  0  0  0  0  0  0  0
   17.7401  -10.7172   16.1589 C   0  0  0  0  0  0  0  0  0  0  0  0
   17.9050  -10.7358   14.8082 N   0  0  0  0  0  0  0  0  0  0  0  0
   18.4769  -11.6290   16.9851 N   0  0  0  0  0  0  0  0  0  0  0  0
   19.0669  -12.8515   16.4801 C   0  0  0  0  0  0  0  0  0  0  0  0
   19.6283  -13.5670   17.6938 C   0  0  0  0  0  0  0  0  0  0  0  0
   19.6272  -12.5544   18.8309 C   0  0  0  0  0  0  0  0  0  0  0  0
   18.7076  -11.4274   18.4017 C   0  0  0  0  0  0  0  0  0  0  0  0
   15.2001   -7.9567   16.4481 C   0  0  0  0  0  0  0  0  0  0  0  0
   14.5506   -7.2016   15.6746 O   0  0  0  0  0  0  0  0  0  0  0  0
   15.0159   -7.8627   17.8645 N   0  0  0  0  0  0  0  0  0  0  0  0
   15.5539   -8.4433   18.4499 H   0  0  0  0  0  0  0  0  0  0  0  0
   14.0656   -6.9439   18.4754 C   0  0  0  0  0  0  0  0  0  0  0  0
   12.6581   -7.2287   17.9779 C   0  0  0  0  0  0  0  0  0  0  0  0
   11.7493   -6.0760   18.3303 C   0  0  0  0  0  0  0  0  0  0  0  0
   10.4665   -6.7398   18.7305 C   0  0  0  0  0  0  0  0  0  0  0  0
   10.7630   -8.2158   18.6023 C   0  0  0  0  0  0  0  0  0  0  0  0
   12.1544   -8.3891   18.5841 O   0  0  0  0  0  0  0  0  0  0  0  0
   17.4433   -9.9525   12.5204 C   0  0  0  0  0  0  0  0  0  0  0  0
   16.5359   -9.0096   11.7430 C   0  0  0  0  0  0  0  0  0  0  0  0
   15.0486  -10.6483    9.7636 C   0  0  0  0  0  0  0  0  0  0  0  0
   16.2112   -9.8051    9.3613 C   0  0  0  0  0  0  0  0  0  0  0  0
   16.6016   -9.7961    8.0585 N   0  0  0  0  0  0  0  0  0  0  0  0
   17.6551   -9.0465    7.6444 C   0  0  0  0  0  0  0  0  0  0  0  0
   18.0451   -9.0476    6.3025 C   0  0  0  0  0  0  0  0  0  0  0  0
   19.1344   -8.2705    5.8944 C   0  0  0  0  0  0  0  0  0  0  0  0
   19.8333   -7.4936    6.8259 C   0  0  0  0  0  0  0  0  0  0  0  0
   19.4462   -7.4898    8.1704 C   0  0  0  0  0  0  0  0  0  0  0  0
   18.3583   -8.2641    8.5821 C   0  0  0  0  0  0  0  0  0  0  0  0
   17.9691   -8.2727    9.8826 N   0  0  0  0  0  0  0  0  0  0  0  0
   16.9098   -9.0190   10.2975 C   0  0  0  0  0  0  0  0  0  0  0  0
 24 25  1  0  0  0
 25 26  2  0  0  0
 26 27  1  0  0  0
 27 28  2  0  0  0
 28 29  1  0  0  0
 29 30  2  0  0  0
 30 31  1  0  0  0
 31 32  2  0  0  0
 32 33  1  0  0  0
 32 27  1  0  0  0
 33 34  2  0  0  0
 34 23  1  0  0  0
 34 25  1  0  0  0
 23 22  1  0  0  0
 22  1  1  0  0  0
  1  2  2  0  0  0
  2  3  1  0  0  0
  3 12  1  0  0  0
  3  4  2  0  0  0
 12 13  2  0  0  0
 12 14  1  0  0  0
 14 16  1  0  0  0
 17 16  1  0  0  0
 17 18  1  0  0  0
 18 19  1  0  0  0
 19 20  1  0  0  0
 20 21  1  0  0  0
 21 17  1  0  0  0
  4  5  1  0  0  0
  5  7  1  0  0  0
  5  6  2  0  0  0
  7  8  1  0  0  0
  8  9  1  0  0  0
  9 10  1  0  0  0
 10 11  1  0  0  0
 11  7  1  0  0  0
  6  1  1  0  0  0
 14 15  1  0  0  0
M  END
>  <minimizedAffinity>
0.76477

>  <minimizedRMSD>
0.88550

$$$$
CHEMBL1315306 ChemDiv-G756-0570 MCULE-9503530363 MolPort-007-879-273 PubChem-16030279 ZINC000008831412 ZINC08831412


 33 36  0  0  0  0  0  0  0  0999 V2000
   16.7409   -9.2689   17.2631 C   0  0  0  0  0  0  0  0  0  0  0  0
   16.9616   -9.0146   15.9008 C   0  0  0  0  0  0  0  0  0  0  0  0
   17.5858   -9.9667   15.0886 C   0  0  0  0  0  0  0  0  0  0  0  0
   17.9931  -11.1879   15.6478 C   0  0  0  0  0  0  0  0  0  0  0  0
   17.7761  -11.4478   17.0031 C   0  0  0  0  0  0  0  0  0  0  0  0
   17.1519  -10.4903   17.8067 C   0  0  0  0  0  0  0  0  0  0  0  0
   14.9552   -7.5122   17.8062 C   0  0  0  0  0  0  0  0  0  0  0  0
   14.3944   -7.5840   16.6809 O   0  0  0  0  0  0  0  0  0  0  0  0
   16.1015   -8.3133   18.1195 N   0  0  0  0  0  0  0  0  0  0  0  0
   16.4903   -8.1952   19.0163 H   0  0  0  0  0  0  0  0  0  0  0  0
   14.3983   -6.5991   18.8439 C   0  0  0  0  0  0  0  0  0  0  0  0
   12.9778   -6.5546   18.7506 O   0  0  0  0  0  0  0  0  0  0  0  0
    9.2128   -9.4082   17.4224 C   0  0  0  0  0  0  0  0  0  0  0  0
   10.2926   -9.0664   18.3840 C   0  0  0  0  0  0  0  0  0  0  0  0
   10.4669   -9.8322   19.5402 C   0  0  0  0  0  0  0  0  0  0  0  0
   11.4819   -9.5103   20.4452 C   0  0  0  0  0  0  0  0  0  0  0  0
   12.3229   -8.4228   20.1929 C   0  0  0  0  0  0  0  0  0  0  0  0
   12.1541   -7.6506   19.0316 C   0  0  0  0  0  0  0  0  0  0  0  0
   11.1337   -7.9783   18.1322 C   0  0  0  0  0  0  0  0  0  0  0  0
   17.7880   -9.6750   13.7375 O   0  0  0  0  0  0  0  0  0  0  0  0
   18.0028  -10.6828   12.7584 C   0  0  0  0  0  0  0  0  0  0  0  0
   17.6667  -10.1499   11.4119 C   0  0  0  0  0  0  0  0  0  0  0  0
   16.4210  -10.4102   10.8513 C   0  0  0  0  0  0  0  0  0  0  0  0
   16.1232   -9.8760    9.5994 C   0  0  0  0  0  0  0  0  0  0  0  0
   14.9949  -10.1156    9.0877 O   0  0  0  0  0  0  0  0  0  0  0  0
   17.0449   -9.1042    8.9427 N   0  0  0  0  0  0  0  0  0  0  0  0
   16.7454   -8.5843    7.7150 C   0  0  0  0  0  0  0  0  0  0  0  0
   17.6656   -7.7929    7.0282 C   0  0  0  0  0  0  0  0  0  0  0  0
   18.9050   -7.5309    7.6055 C   0  0  0  0  0  0  0  0  0  0  0  0
   19.2167   -8.0579    8.8572 C   0  0  0  0  0  0  0  0  0  0  0  0
   20.5502   -7.7632    9.4563 C   0  0  0  0  0  0  0  0  0  0  0  0
   18.2693   -8.8530    9.5245 C   0  0  0  0  0  0  0  0  0  0  0  0
   18.5594   -9.3750   10.7474 N   0  0  0  0  0  0  0  0  0  0  0  0
 13 14  1  0  0  0
 14 15  2  0  0  0
 15 16  1  0  0  0
 16 17  2  0  0  0
 17 18  1  0  0  0
 18 12  1  0  0  0
 18 19  2  0  0  0
 12 11  1  0  0  0
 11  7  1  0  0  0
  7  8  2  0  0  0
  7  9  1  0  0  0
  9  1  1  0  0  0
  1  2  2  0  0  0
  2  3  1  0  0  0
  3 20  1  0  0  0
  3  4  2  0  0  0
 20 21  1  0  0  0
 21 22  1  0  0  0
 22 23  2  0  0  0
 23 24  1  0  0  0
 24 25  2  0  0  0
 24 26  1  0  0  0
 26 27  1  0  0  0
 27 28  2  0  0  0
 28 29  1  0  0  0
 29 30  2  0  0  0
 30 31  1  0  0  0
 30 32  1  0  0  0
 32 33  2  0  0  0
 32 26  1  0  0  0
 33 22  1  0  0  0
  4  5  1  0  0  0
  5  6  2  0  0  0
  6  1  1  0  0  0
 19 14  1  0  0  0
  9 10  1  0  0  0
M  END
>  <minimizedAffinity>
-4.76935

>  <minimizedRMSD>
0.88635

$$$$
CHEMBL1733951 8603804 ChemDiv-C679-5588 MCULE-2913188413 MolPort-007-656-138 PubChem-16009578 ZINC000008603804


 30 33  0  0  0  0  0  0  0  0999 V2000
   17.3489   -9.9269   15.0816 C   0  0  0  0  0  0  0  0  0  0  0  0
   17.9935  -11.0550   15.6140 C   0  0  0  0  0  0  0  0  0  0  0  0
   17.9379  -11.3148   16.9854 C   0  0  0  0  0  0  0  0  0  0  0  0
   17.2393  -10.4500   17.8324 C   0  0  0  0  0  0  0  0  0  0  0  0
   16.5956   -9.3201   17.3168 C   0  0  0  0  0  0  0  0  0  0  0  0
   16.6535   -9.0662   15.9376 C   0  0  0  0  0  0  0  0  0  0  0  0
   15.8829   -8.4614   18.2176 N   0  0  0  0  0  0  0  0  0  0  0  0
   14.6985   -7.7026   17.9280 C   0  0  0  0  0  0  0  0  0  0  0  0
   14.2197   -7.6818   16.7615 O   0  0  0  0  0  0  0  0  0  0  0  0
   16.2435   -8.3839   19.1304 H   0  0  0  0  0  0  0  0  0  0  0  0
   14.0448   -6.9312   19.0002 C   0  0  0  0  0  0  0  0  0  0  0  0
   14.5348   -6.9874   20.3132 C   0  0  0  0  0  0  0  0  0  0  0  0
   13.9137   -6.2582   21.3316 C   0  0  0  0  0  0  0  0  0  0  0  0
   12.7994   -5.4658   21.0445 C   0  0  0  0  0  0  0  0  0  0  0  0
   12.3064   -5.4018   19.7389 C   0  0  0  0  0  0  0  0  0  0  0  0
   11.2269   -4.6329   19.4603 F   0  0  0  0  0  0  0  0  0  0  0  0
   12.9268   -6.1315   18.7203 C   0  0  0  0  0  0  0  0  0  0  0  0
   17.3815   -9.6413   13.7141 O   0  0  0  0  0  0  0  0  0  0  0  0
   18.0644  -10.4633   12.7764 C   0  0  0  0  0  0  0  0  0  0  0  0
   17.4522   -8.9500    8.8859 N   0  0  0  0  0  0  0  0  0  0  0  0
   17.4316   -8.3856    7.6492 C   0  0  0  0  0  0  0  0  0  0  0  0
   18.5978   -7.6809    7.3584 C   0  0  0  0  0  0  0  0  0  0  0  0
   19.6687   -7.7627    8.6655 S   0  0  0  0  0  0  0  0  0  0  0  0
   18.5990   -8.7006    9.5565 C   0  0  0  0  0  0  0  0  0  0  0  0
   18.8124   -9.1816   10.8059 N   0  0  0  0  0  0  0  0  0  0  0  0
   17.8499   -9.9405   11.4014 C   0  0  0  0  0  0  0  0  0  0  0  0
   16.6439  -10.2068   10.7349 C   0  0  0  0  0  0  0  0  0  0  0  0
   16.4598   -9.6937    9.4468 C   0  0  0  0  0  0  0  0  0  0  0  0
   15.3889   -9.9233    8.8235 O   0  0  0  0  0  0  0  0  0  0  0  0
   18.8620   -6.9573    6.0879 C   0  0  0  0  0  0  0  0  0  0  0  0
 20 21  1  0  0  0
 21 22  2  0  0  0
 22 23  1  0  0  0
 23 24  1  0  0  0
 24 25  2  0  0  0
 25 26  1  0  0  0
 26 19  1  0  0  0
 19 18  1  0  0  0
 18  1  1  0  0  0
  1  2  2  0  0  0
  2  3  1  0  0  0
  3  4  2  0  0  0
  4  5  1  0  0  0
  5  6  2  0  0  0
  5  7  1  0  0  0
  7  8  1  0  0  0
  8  9  2  0  0  0
  8 11  1  0  0  0
 11 12  2  0  0  0
 12 13  1  0  0  0
 13 14  2  0  0  0
 14 15  1  0  0  0
 15 16  1  0  0  0
 15 17  2  0  0  0
 26 27  2  0  0  0
 27 28  1  0  0  0
 28 29  2  0  0  0
 22 30  1  0  0  0
 24 20  1  0  0  0
  6  1  1  0  0  0
 17 11  1  0  0  0
 28 20  1  0  0  0
  7 10  1  0  0  0
M  END
>  <minimizedAffinity>
-7.49547

>  <minimizedRMSD>
0.88788

$$$$
CHEMBL3680556 PubChem-66763542


 40 44  0  0  0  0  0  0  0  0999 V2000
   18.2440  -12.1152   16.0718 C   0  0  0  0  0  0  0  0  0  0  0  0
   18.5269  -11.6070   14.8011 C   0  0  0  0  0  0  0  0  0  0  0  0
   17.9833  -10.3827   14.4013 C   0  0  0  0  0  0  0  0  0  0  0  0
   17.1468   -9.6738   15.2701 C   0  0  0  0  0  0  0  0  0  0  0  0
   16.8556  -10.1804   16.5459 C   0  0  0  0  0  0  0  0  0  0  0  0
   17.4131  -11.4018   16.9408 C   0  0  0  0  0  0  0  0  0  0  0  0
   16.0149   -9.4750   17.4686 N   0  0  0  0  0  0  0  0  0  0  0  0
   15.3743   -8.2079   17.2530 C   0  0  0  0  0  0  0  0  0  0  0  0
   15.4520   -7.6320   16.1334 O   0  0  0  0  0  0  0  0  0  0  0  0
   15.8607   -9.9041   18.3411 H   0  0  0  0  0  0  0  0  0  0  0  0
   14.6154   -7.5777   18.3481 C   0  0  0  0  0  0  0  0  0  0  0  0
   13.3530   -7.0167   18.1064 C   0  0  0  0  0  0  0  0  0  0  0  0
   12.6382   -6.4106   19.1430 C   0  0  0  0  0  0  0  0  0  0  0  0
   13.1764   -6.3565   20.4356 C   0  0  0  0  0  0  0  0  0  0  0  0
   14.4376   -6.9167   20.6780 C   0  0  0  0  0  0  0  0  0  0  0  0
   15.1520   -7.5233   19.6416 C   0  0  0  0  0  0  0  0  0  0  0  0
   12.4250   -5.7169   21.5282 C   0  0  0  0  0  0  0  0  0  0  0  0
   11.2664   -5.0553   21.3434 N   0  0  0  0  0  0  0  0  0  0  0  0
   10.9166   -4.6360   22.5730 C   0  0  0  0  0  0  0  0  0  0  0  0
   11.8744   -5.0548   23.4754 C   0  0  0  0  0  0  0  0  0  0  0  0
   12.8262   -5.7382   22.8135 N   0  0  0  0  0  0  0  0  0  0  0  0
   13.6346   -6.1594   23.1855 H   0  0  0  0  0  0  0  0  0  0  0  0
   18.2738   -9.8480   13.0446 C   0  0  0  0  0  0  0  0  0  0  0  0
   17.1987  -10.2085   12.1326 N   0  0  0  0  0  0  0  0  0  0  0  0
   16.4694  -10.7545   12.5058 H   0  0  0  0  0  0  0  0  0  0  0  0
   17.0890   -9.8516   10.7442 C   0  0  0  0  0  0  0  0  0  0  0  0
   15.9660  -10.2421   10.0872 N   0  0  0  0  0  0  0  0  0  0  0  0
   15.7659   -9.9573    8.7774 C   0  0  0  0  0  0  0  0  0  0  0  0
   16.6993   -9.2638    8.0814 N   0  0  0  0  0  0  0  0  0  0  0  0
   17.8503   -8.8362    8.6645 C   0  0  0  0  0  0  0  0  0  0  0  0
   18.0789   -9.1259   10.0350 C   0  0  0  0  0  0  0  0  0  0  0  0
   19.2656   -8.6893   10.6359 C   0  0  0  0  0  0  0  0  0  0  0  0
   20.2149   -7.9774    9.9078 C   0  0  0  0  0  0  0  0  0  0  0  0
   19.9895   -7.6916    8.5638 C   0  0  0  0  0  0  0  0  0  0  0  0
   18.8155   -8.1099    7.9200 C   0  0  0  0  0  0  0  0  0  0  0  0
   18.6511   -7.7625    6.4836 C   0  0  0  0  0  0  0  0  0  0  0  0
   19.0091   -6.6275    6.0683 O   0  0  0  0  0  0  0  0  0  0  0  0
   18.0952   -8.6845    5.5501 N   0  0  0  0  0  0  0  0  0  0  0  0
   17.8083   -9.5769    5.8510 H   0  0  0  0  0  0  0  0  0  0  0  0
   17.9979   -8.4291    4.6043 H   0  0  0  0  0  0  0  0  0  0  0  0
  1  2  2  0  0  0
  2  3  1  0  0  0
  3  4  2  0  0  0
  3 23  1  0  0  0
  4  5  1  0  0  0
  5  6  2  0  0  0
  5  7  1  0  0  0
  6  1  1  0  0  0
  7  8  1  0  0  0
  8  9  2  0  0  0
  8 11  1  0  0  0
 11 12  2  0  0  0
 12 13  1  0  0  0
 13 14  2  0  0  0
 14 15  1  0  0  0
 14 17  1  0  0  0
 15 16  2  0  0  0
 16 11  1  0  0  0
 17 18  2  0  0  0
 18 19  1  0  0  0
 19 20  2  0  0  0
 20 21  1  0  0  0
 21 17  1  0  0  0
 23 24  1  0  0  0
 24 26  1  0  0  0
 26 27  2  0  0  0
 27 28  1  0  0  0
 28 29  2  0  0  0
 29 30  1  0  0  0
 30 31  2  0  0  0
 31 32  1  0  0  0
 31 26  1  0  0  0
 32 33  2  0  0  0
 33 34  1  0  0  0
 34 35  2  0  0  0
 35 36  1  0  0  0
 35 30  1  0  0  0
 36 37  2  0  0  0
 36 38  1  0  0  0
  7 10  1  0  0  0
 21 22  1  0  0  0
 24 25  1  0  0  0
 38 39  1  0  0  0
 38 40  1  0  0  0
M  END
>  <minimizedAffinity>
-10.22916

>  <minimizedRMSD>
0.88801

$$$$
CHEMBL5069445


 38 42  0  0  0  0  0  0  0  0999 V2000
   15.6530   -8.9503   15.0551 C   0  0  0  0  0  0  0  0  0  0  0  0
   14.6366   -9.6870   14.5533 C   0  0  0  0  0  0  0  0  0  0  0  0
   14.6963  -10.1688   13.2102 N   0  0  0  0  0  0  0  0  0  0  0  0
   15.8207   -9.9036   12.3758 C   0  0  0  0  0  0  0  0  0  0  0  0
   16.8051   -9.1894   12.8268 N   0  0  0  0  0  0  0  0  0  0  0  0
   16.8369   -8.5916   14.1649 C   0  0  0  0  0  0  0  0  0  0  0  0
   13.3980   -9.9874   15.3314 C   0  0  0  0  0  0  0  0  0  0  0  0
   13.9449  -10.6953   12.8532 H   0  0  0  0  0  0  0  0  0  0  0  0
   18.1695   -8.8454   14.8141 C   0  0  0  0  0  0  0  0  0  0  0  0
   18.9870   -9.9520   14.4898 C   0  0  0  0  0  0  0  0  0  0  0  0
   18.5208  -11.1479   13.2893 Cl  0  0  0  0  0  0  0  0  0  0  0  0
   20.2169  -10.1176   15.1349 C   0  0  0  0  0  0  0  0  0  0  0  0
   20.6427   -9.1954   16.0932 C   0  0  0  0  0  0  0  0  0  0  0  0
   19.8400   -8.0989   16.4114 C   0  0  0  0  0  0  0  0  0  0  0  0
   18.6101   -7.9254   15.7728 C   0  0  0  0  0  0  0  0  0  0  0  0
   15.0501   -9.1208   17.5140 N   0  0  0  0  0  0  0  0  0  0  0  0
   15.6214   -8.3834   16.4280 C   0  0  0  0  0  0  0  0  0  0  0  0
   16.1453   -7.2571   16.6456 O   0  0  0  0  0  0  0  0  0  0  0  0
   14.7039  -10.0255   17.3381 H   0  0  0  0  0  0  0  0  0  0  0  0
   14.9588   -8.5912   18.8668 C   0  0  0  0  0  0  0  0  0  0  0  0
   12.5521   -8.1751   19.4291 N   0  0  0  0  0  0  0  0  0  0  0  0
   11.7620   -7.1167   19.3531 N   0  0  0  0  0  0  0  0  0  0  0  0
   12.4447   -6.0797   18.8929 N   0  0  0  0  0  0  0  0  0  0  0  0
   13.6967   -6.4364   18.6576 N   0  0  0  0  0  0  0  0  0  0  0  0
   13.7473   -7.7341   19.0018 C   0  0  0  0  0  0  0  0  0  0  0  0
   12.0759   -5.1785   18.7477 H   0  0  0  0  0  0  0  0  0  0  0  0
   15.8562  -10.4527   11.0545 N   0  0  0  0  0  0  0  0  0  0  0  0
   15.3473  -11.2794   10.8909 H   0  0  0  0  0  0  0  0  0  0  0  0
   16.5762   -9.8896    9.9534 C   0  0  0  0  0  0  0  0  0  0  0  0
   17.5452   -8.9976   10.0859 O   0  0  0  0  0  0  0  0  0  0  0  0
   17.9469   -8.7385    8.8721 C   0  0  0  0  0  0  0  0  0  0  0  0
   17.2116   -9.4828    7.9988 C   0  0  0  0  0  0  0  0  0  0  0  0
   16.3198  -10.2354    8.6649 N   0  0  0  0  0  0  0  0  0  0  0  0
   17.4149   -9.4188    6.6228 C   0  0  0  0  0  0  0  0  0  0  0  0
   18.4188   -8.5475    6.1584 C   0  0  0  0  0  0  0  0  0  0  0  0
   19.1804   -7.7761    7.0663 C   0  0  0  0  0  0  0  0  0  0  0  0
   18.9471   -7.8668    8.4517 C   0  0  0  0  0  0  0  0  0  0  0  0
   20.1417   -6.9439    6.5997 F   0  0  0  0  0  0  0  0  0  0  0  0
 21 22  2  0  0  0
 22 23  1  0  0  0
 23 24  1  0  0  0
 24 25  2  0  0  0
 25 20  1  0  0  0
 20 16  1  0  0  0
 16 17  1  0  0  0
 17 18  2  0  0  0
 17  1  1  0  0  0
  1  2  2  0  0  0
  2  3  1  0  0  0
  3  4  1  0  0  0
  4  5  2  0  0  0
  5  6  1  0  0  0
  6  9  1  0  0  0
  9 10  2  0  0  0
 10 11  1  0  0  0
 10 12  1  0  0  0
 12 13  2  0  0  0
 13 14  1  0  0  0
 14 15  2  0  0  0
  4 27  1  0  0  0
 27 29  1  0  0  0
 29 30  1  0  0  0
 30 31  1  0  0  0
 31 32  2  0  0  0
 32 33  1  0  0  0
 32 34  1  0  0  0
 34 35  2  0  0  0
 35 36  1  0  0  0
 36 37  2  0  0  0
 36 38  1  0  0  0
  2  7  1  0  0  0
 25 21  1  0  0  0
  6  1  1  0  0  0
 15  9  1  0  0  0
 33 29  2  0  0  0
 37 31  1  0  0  0
 23 26  1  0  0  0
 16 19  1  0  0  0
  3  8  1  0  0  0
 27 28  1  0  0  0
M  END
>  <minimizedAffinity>
2.36951

>  <minimizedRMSD>
0.88847

$$$$
CHEMBL3670470 PubChem-66763393


 37 40  0  0  0  0  0  0  0  0999 V2000
   17.0123  -10.1243   16.5221 C   0  0  0  0  0  0  0  0  0  0  0  0
   17.4748  -11.4108   16.8201 C   0  0  0  0  0  0  0  0  0  0  0  0
   18.1847  -12.1469   15.8667 C   0  0  0  0  0  0  0  0  0  0  0  0
   18.4382  -11.5979   14.6071 C   0  0  0  0  0  0  0  0  0  0  0  0
   17.9857  -10.3105   14.3020 C   0  0  0  0  0  0  0  0  0  0  0  0
   17.2701   -9.5790   15.2550 C   0  0  0  0  0  0  0  0  0  0  0  0
   15.4853   -8.2271   17.3345 C   0  0  0  0  0  0  0  0  0  0  0  0
   15.3363   -7.7327   16.1839 O   0  0  0  0  0  0  0  0  0  0  0  0
   16.2890   -9.4014   17.5273 N   0  0  0  0  0  0  0  0  0  0  0  0
   16.3500   -9.7468   18.4472 H   0  0  0  0  0  0  0  0  0  0  0  0
   13.5756   -6.3805   20.7092 C   0  0  0  0  0  0  0  0  0  0  0  0
   12.9676   -6.3571   19.4437 C   0  0  0  0  0  0  0  0  0  0  0  0
   13.5881   -6.9586   18.3454 C   0  0  0  0  0  0  0  0  0  0  0  0
   14.8284   -7.5944   18.4922 C   0  0  0  0  0  0  0  0  0  0  0  0
   15.4385   -7.6202   19.7531 C   0  0  0  0  0  0  0  0  0  0  0  0
   14.8182   -7.0190   20.8512 C   0  0  0  0  0  0  0  0  0  0  0  0
   13.5662   -5.7543   23.1529 C   0  0  0  0  0  0  0  0  0  0  0  0
   12.9367   -5.7604   21.8410 N   0  0  0  0  0  0  0  0  0  0  0  0
   11.6386   -5.1149   21.7147 C   0  0  0  0  0  0  0  0  0  0  0  0
   18.2334   -9.7324   12.9543 C   0  0  0  0  0  0  0  0  0  0  0  0
   17.0596   -9.9212   12.1150 N   0  0  0  0  0  0  0  0  0  0  0  0
   16.2275  -10.1790   12.5737 H   0  0  0  0  0  0  0  0  0  0  0  0
   16.9862   -9.7710   10.6871 C   0  0  0  0  0  0  0  0  0  0  0  0
   15.9104  -10.3113   10.0578 N   0  0  0  0  0  0  0  0  0  0  0  0
   15.7482  -10.2280    8.7145 C   0  0  0  0  0  0  0  0  0  0  0  0
   16.6717   -9.5897    7.9558 N   0  0  0  0  0  0  0  0  0  0  0  0
   17.7752   -9.0198    8.5089 C   0  0  0  0  0  0  0  0  0  0  0  0
   17.9633   -9.0965    9.9134 C   0  0  0  0  0  0  0  0  0  0  0  0
   19.0965   -8.5031   10.4825 C   0  0  0  0  0  0  0  0  0  0  0  0
   20.0334   -7.8465    9.6889 C   0  0  0  0  0  0  0  0  0  0  0  0
   19.8494   -7.7737    8.3102 C   0  0  0  0  0  0  0  0  0  0  0  0
   18.7290   -8.3526    7.6986 C   0  0  0  0  0  0  0  0  0  0  0  0
   18.6000   -8.2358    6.2238 C   0  0  0  0  0  0  0  0  0  0  0  0
   17.6802   -8.8290    5.6007 O   0  0  0  0  0  0  0  0  0  0  0  0
   19.5270   -7.4435    5.4856 N   0  0  0  0  0  0  0  0  0  0  0  0
   20.2533   -6.9717    5.9536 H   0  0  0  0  0  0  0  0  0  0  0  0
   19.4408   -7.3681    4.5078 H   0  0  0  0  0  0  0  0  0  0  0  0
 17 18  1  0  0  0
 18 19  1  0  0  0
 18 11  1  0  0  0
 11 12  2  0  0  0
 12 13  1  0  0  0
 13 14  2  0  0  0
 14 15  1  0  0  0
 14  7  1  0  0  0
 15 16  2  0  0  0
 16 11  1  0  0  0
  7  8  2  0  0  0
  7  9  1  0  0  0
  9  1  1  0  0  0
  1  2  2  0  0  0
  2  3  1  0  0  0
  3  4  2  0  0  0
  4  5  1  0  0  0
  5  6  2  0  0  0
  5 20  1  0  0  0
  6  1  1  0  0  0
 20 21  1  0  0  0
 21 23  1  0  0  0
 23 24  2  0  0  0
 24 25  1  0  0  0
 25 26  2  0  0  0
 26 27  1  0  0  0
 27 28  2  0  0  0
 28 29  1  0  0  0
 28 23  1  0  0  0
 29 30  2  0  0  0
 30 31  1  0  0  0
 31 32  2  0  0  0
 32 33  1  0  0  0
 32 27  1  0  0  0
 33 34  2  0  0  0
 33 35  1  0  0  0
  9 10  1  0  0  0
 21 22  1  0  0  0
 35 36  1  0  0  0
 35 37  1  0  0  0
M  END
>  <minimizedAffinity>
-9.61358

>  <minimizedRMSD>
0.89648

$$$$
CHEMBL3780933


 32 34  0  0  0  0  0  0  0  0999 V2000
   16.5657   -9.6573   14.4664 C   0  0  0  0  0  0  0  0  0  0  0  0
   16.9837  -10.9220   14.8936 C   0  0  0  0  0  0  0  0  0  0  0  0
   17.4004  -11.1119   16.2147 C   0  0  0  0  0  0  0  0  0  0  0  0
   17.4057  -10.0358   17.1076 C   0  0  0  0  0  0  0  0  0  0  0  0
   16.9988   -8.7672   16.6788 C   0  0  0  0  0  0  0  0  0  0  0  0
   16.5797   -8.5793   15.3574 C   0  0  0  0  0  0  0  0  0  0  0  0
   16.1461   -9.4498   13.0551 C   0  0  0  0  0  0  0  0  0  0  0  0
   17.2894   -9.4450   12.2130 O   0  0  0  0  0  0  0  0  0  0  0  0
   17.9556   -8.8557    8.6739 C   0  0  0  0  0  0  0  0  0  0  0  0
   18.9081   -8.1222    8.0865 N   0  0  0  0  0  0  0  0  0  0  0  0
   19.5966   -7.6287    9.1530 C   0  0  0  0  0  0  0  0  0  0  0  0
   19.1077   -8.0274   10.3604 N   0  0  0  0  0  0  0  0  0  0  0  0
   18.0708   -8.8016   10.0153 C   0  0  0  0  0  0  0  0  0  0  0  0
   17.1803   -9.4935   10.8231 C   0  0  0  0  0  0  0  0  0  0  0  0
   16.1987  -10.2191   10.2044 N   0  0  0  0  0  0  0  0  0  0  0  0
   16.0985  -10.2612    8.8367 C   0  0  0  0  0  0  0  0  0  0  0  0
   16.9859   -9.5723    8.0564 N   0  0  0  0  0  0  0  0  0  0  0  0
   15.0659  -11.0257    8.2268 N   0  0  0  0  0  0  0  0  0  0  0  0
   19.0703   -7.9762    7.1264 H   0  0  0  0  0  0  0  0  0  0  0  0
   14.4256  -11.5225    8.7858 H   0  0  0  0  0  0  0  0  0  0  0  0
   14.9913  -11.0580    7.2457 H   0  0  0  0  0  0  0  0  0  0  0  0
   16.9925   -7.6213   17.6327 C   0  0  0  0  0  0  0  0  0  0  0  0
   15.9972   -7.8339   18.6749 N   0  0  0  0  0  0  0  0  0  0  0  0
   14.6029   -7.5696   18.4846 C   0  0  0  0  0  0  0  0  0  0  0  0
   14.1958   -7.0834   17.3945 O   0  0  0  0  0  0  0  0  0  0  0  0
   13.6670   -7.8520   19.5326 N   0  0  0  0  0  0  0  0  0  0  0  0
   16.2965   -8.1743   19.5488 H   0  0  0  0  0  0  0  0  0  0  0  0
   12.3054   -7.5651   19.3397 N   0  0  0  0  0  0  0  0  0  0  0  0
   11.4942   -8.4607   19.0252 O   0  0  0  0  0  0  0  0  0  0  0  0
   14.1327   -8.3879   20.8071 C   0  0  0  0  0  0  0  0  0  0  0  0
   13.9611   -7.3490   21.8983 C   0  0  0  0  0  0  0  0  0  0  0  0
   15.0011   -7.7648   23.2784 Cl  0  0  0  0  0  0  0  0  0  0  0  0
  9 10  1  0  0  0
 10 11  1  0  0  0
 11 12  2  0  0  0
 12 13  1  0  0  0
 13 14  1  0  0  0
 14 15  2  0  0  0
 15 16  1  0  0  0
 16 17  2  0  0  0
 16 18  1  0  0  0
 14  8  1  0  0  0
  8  7  1  0  0  0
  7  1  1  0  0  0
  1  2  2  0  0  0
  2  3  1  0  0  0
  3  4  2  0  0  0
  4  5  1  0  0  0
  5  6  2  0  0  0
  5 22  1  0  0  0
 22 23  1  0  0  0
 23 24  1  0  0  0
 24 25  2  0  0  0
 24 26  1  0  0  0
 26 30  1  0  0  0
 30 31  1  0  0  0
 31 32  1  0  0  0
 26 28  1  0  0  0
 28 29  2  0  0  0
 13  9  2  0  0  0
  6  1  1  0  0  0
 17  9  1  0  0  0
 10 19  1  0  0  0
 18 20  1  0  0  0
 18 21  1  0  0  0
 23 27  1  0  0  0
M  END
>  <minimizedAffinity>
-3.22379

>  <minimizedRMSD>
0.90285

$$$$
CHEMBL5094239 PubChem-72949376


 36 41  0  0  0  0  0  0  0  0999 V2000
   19.0865  -11.5795   14.1002 C   0  0  0  0  0  0  0  0  0  0  0  0
   18.1464  -10.7545   14.9136 C   0  0  0  0  0  0  0  0  0  0  0  0
   17.2068   -9.8947   14.3127 C   0  0  0  0  0  0  0  0  0  0  0  0
   16.3477   -9.1376   15.1160 C   0  0  0  0  0  0  0  0  0  0  0  0
   16.4125   -9.2265   16.5126 C   0  0  0  0  0  0  0  0  0  0  0  0
   17.3504  -10.0826   17.1031 C   0  0  0  0  0  0  0  0  0  0  0  0
   18.2120  -10.8416   16.3072 C   0  0  0  0  0  0  0  0  0  0  0  0
   15.5022   -8.4302   17.3510 C   0  0  0  0  0  0  0  0  0  0  0  0
   14.3648   -7.8592   16.8689 N   0  0  0  0  0  0  0  0  0  0  0  0
   13.8706   -7.2370   17.9477 C   0  0  0  0  0  0  0  0  0  0  0  0
   14.6869   -7.4332   19.0190 C   0  0  0  0  0  0  0  0  0  0  0  0
   15.7358   -8.1907   18.6699 N   0  0  0  0  0  0  0  0  0  0  0  0
   14.4116   -6.8872   20.2696 C   0  0  0  0  0  0  0  0  0  0  0  0
   13.2414   -6.1127   20.3963 C   0  0  0  0  0  0  0  0  0  0  0  0
   12.4001   -5.9029   19.2801 C   0  0  0  0  0  0  0  0  0  0  0  0
   12.7098   -6.4729   18.0311 C   0  0  0  0  0  0  0  0  0  0  0  0
   16.4869   -8.4971   19.2277 H   0  0  0  0  0  0  0  0  0  0  0  0
   12.9076   -5.4783   21.7020 C   0  0  0  0  0  0  0  0  0  0  0  0
   14.1279   -5.1119   22.4014 N   0  0  0  0  0  0  0  0  0  0  0  0
   13.8165   -3.9364   23.2158 C   0  0  0  0  0  0  0  0  0  0  0  0
   14.9779   -3.5824   24.1585 C   0  0  0  0  0  0  0  0  0  0  0  0
   16.0993   -4.5080   23.9941 N   0  0  0  0  0  0  0  0  0  0  0  0
   15.6235   -5.8713   24.2278 C   0  0  0  0  0  0  0  0  0  0  0  0
   14.4625   -6.2291   23.2867 C   0  0  0  0  0  0  0  0  0  0  0  0
   17.0467   -4.2097   25.0519 C   0  0  0  0  0  0  0  0  0  0  0  0
   17.1092   -9.7656   12.8816 C   0  0  0  0  0  0  0  0  0  0  0  0
   17.0301   -9.6613   11.6834 C   0  0  0  0  0  0  0  0  0  0  0  0
   16.9400   -9.5426   10.2539 C   0  0  0  0  0  0  0  0  0  0  0  0
   15.9906  -10.1324    9.4310 C   0  0  0  0  0  0  0  0  0  0  0  0
   16.2486   -9.7766    8.1431 N   0  0  0  0  0  0  0  0  0  0  0  0
   17.3394   -8.9893    8.2286 C   0  0  0  0  0  0  0  0  0  0  0  0
   17.7705   -8.8355    9.4828 N   0  0  0  0  0  0  0  0  0  0  0  0
   18.8305   -8.1054    9.8236 N   0  0  0  0  0  0  0  0  0  0  0  0
   19.5302   -7.4658    8.8439 C   0  0  0  0  0  0  0  0  0  0  0  0
   19.1216   -7.5891    7.5015 C   0  0  0  0  0  0  0  0  0  0  0  0
   18.0001   -8.3683    7.1763 C   0  0  0  0  0  0  0  0  0  0  0  0
  1  2  1  0  0  0
  2  3  2  0  0  0
  3  4  1  0  0  0
  3 26  1  0  0  0
  4  5  2  0  0  0
  5  6  1  0  0  0
  5  8  1  0  0  0
  6  7  2  0  0  0
  7  2  1  0  0  0
  8  9  2  0  0  0
  9 10  1  0  0  0
 10 11  2  0  0  0
 11 12  1  0  0  0
 11 13  1  0  0  0
 12  8  1  0  0  0
 13 14  2  0  0  0
 14 15  1  0  0  0
 14 18  1  0  0  0
 15 16  2  0  0  0
 16 10  1  0  0  0
 18 19  1  0  0  0
 19 20  1  0  0  0
 20 21  1  0  0  0
 21 22  1  0  0  0
 22 23  1  0  0  0
 22 25  1  0  0  0
 23 24  1  0  0  0
 24 19  1  0  0  0
 26 27  3  0  0  0
 27 28  1  0  0  0
 28 29  2  0  0  0
 29 30  1  0  0  0
 30 31  2  0  0  0
 31 32  1  0  0  0
 32 33  1  0  0  0
 32 28  1  0  0  0
 33 34  2  0  0  0
 34 35  1  0  0  0
 35 36  2  0  0  0
 36 31  1  0  0  0
 12 17  1  0  0  0
M  END
>  <minimizedAffinity>
-12.61089

>  <minimizedRMSD>
0.90471

$$$$
CHEMBL5193141 PubChem-147900757


 37 41  0  0  0  0  0  0  0  0999 V2000
   15.6096   -8.2291   18.5161 N   0  0  0  0  0  0  0  0  0  0  0  0
   15.5164   -8.1993   17.0835 C   0  0  0  0  0  0  0  0  0  0  0  0
   14.6578   -7.4742   16.5108 O   0  0  0  0  0  0  0  0  0  0  0  0
   16.3009   -8.8155   18.9002 H   0  0  0  0  0  0  0  0  0  0  0  0
   12.8384   -6.1619   19.9920 C   0  0  0  0  0  0  0  0  0  0  0  0
   13.2760   -6.0772   21.3204 C   0  0  0  0  0  0  0  0  0  0  0  0
   14.4697   -6.6943   21.7228 C   0  0  0  0  0  0  0  0  0  0  0  0
   15.2249   -7.4013   20.7752 C   0  0  0  0  0  0  0  0  0  0  0  0
   14.8020   -7.4950   19.4463 C   0  0  0  0  0  0  0  0  0  0  0  0
   13.6067   -6.8722   19.0617 C   0  0  0  0  0  0  0  0  0  0  0  0
   14.9124   -6.6038   23.0864 N   0  0  0  0  0  0  0  0  0  0  0  0
   14.2655   -5.9967   24.0985 C   0  0  0  0  0  0  0  0  0  0  0  0
   15.0575   -6.1614   25.2116 C   0  0  0  0  0  0  0  0  0  0  0  0
   16.1731   -6.8528   24.9113 N   0  0  0  0  0  0  0  0  0  0  0  0
   16.0551   -7.1116   23.5933 C   0  0  0  0  0  0  0  0  0  0  0  0
   14.7414   -5.6522   26.5718 C   0  0  0  0  0  0  0  0  0  0  0  0
   11.8109   -4.6926   18.4625 F   0  0  0  0  0  0  0  0  0  0  0  0
   11.5621   -5.5041   19.5544 C   0  0  0  0  0  0  0  0  0  0  0  0
   10.6415   -6.4727   19.1980 F   0  0  0  0  0  0  0  0  0  0  0  0
   11.0256   -4.7317   20.5710 F   0  0  0  0  0  0  0  0  0  0  0  0
   16.4323   -9.0234   16.2751 C   0  0  0  0  0  0  0  0  0  0  0  0
   16.3812   -8.9759   14.8740 C   0  0  0  0  0  0  0  0  0  0  0  0
   17.2505   -9.7580   14.1075 C   0  0  0  0  0  0  0  0  0  0  0  0
   18.1773  -10.5935   14.7370 C   0  0  0  0  0  0  0  0  0  0  0  0
   18.2350  -10.6470   16.1322 C   0  0  0  0  0  0  0  0  0  0  0  0
   17.3656   -9.8648   16.8982 C   0  0  0  0  0  0  0  0  0  0  0  0
   17.1911   -9.7022   12.6748 C   0  0  0  0  0  0  0  0  0  0  0  0
   17.1416   -9.6546   11.4712 C   0  0  0  0  0  0  0  0  0  0  0  0
   17.0843   -9.5961   10.0361 C   0  0  0  0  0  0  0  0  0  0  0  0
   17.8848   -8.8620    9.2580 N   0  0  0  0  0  0  0  0  0  0  0  0
   18.8810   -8.0458    9.5956 N   0  0  0  0  0  0  0  0  0  0  0  0
   19.5620   -7.3970    8.6081 C   0  0  0  0  0  0  0  0  0  0  0  0
   19.2016   -7.6012    7.2615 C   0  0  0  0  0  0  0  0  0  0  0  0
   18.1458   -8.4692    6.9402 C   0  0  0  0  0  0  0  0  0  0  0  0
   17.5000   -9.0936    8.0004 C   0  0  0  0  0  0  0  0  0  0  0  0
   16.4689   -9.9585    7.9193 N   0  0  0  0  0  0  0  0  0  0  0  0
   16.2003  -10.2815    9.2140 C   0  0  0  0  0  0  0  0  0  0  0  0
 17 18  1  0  0  0
 18 19  1  0  0  0
 18 20  1  0  0  0
 18  5  1  0  0  0
  5  6  2  0  0  0
  6  7  1  0  0  0
  7 11  1  0  0  0
 11 12  1  0  0  0
 12 13  2  0  0  0
 13 14  1  0  0  0
 14 15  2  0  0  0
 13 16  1  0  0  0
  7  8  2  0  0  0
  8  9  1  0  0  0
  9  1  1  0  0  0
  1  2  1  0  0  0
  2  3  2  0  0  0
  2 21  1  0  0  0
 21 22  2  0  0  0
 22 23  1  0  0  0
 23 24  2  0  0  0
 24 25  1  0  0  0
 25 26  2  0  0  0
 23 27  1  0  0  0
 27 28  3  0  0  0
 28 29  1  0  0  0
 29 30  1  0  0  0
 30 31  1  0  0  0
 31 32  2  0  0  0
 32 33  1  0  0  0
 33 34  2  0  0  0
 34 35  1  0  0  0
 35 36  2  0  0  0
 36 37  1  0  0  0
  9 10  2  0  0  0
 10  5  1  0  0  0
 15 11  1  0  0  0
 26 21  1  0  0  0
 37 29  2  0  0  0
 35 30  1  0  0  0
  1  4  1  0  0  0
M  END
>  <minimizedAffinity>
-12.95187

>  <minimizedRMSD>
0.91162

$$$$
CHEMBL3680437 PubChem-68078784


 36 39  0  0  0  0  0  0  0  0999 V2000
   17.0314  -10.1416   16.5151 C   0  0  0  0  0  0  0  0  0  0  0  0
   17.4836  -11.4343   16.8020 C   0  0  0  0  0  0  0  0  0  0  0  0
   18.1832  -12.1697   15.8401 C   0  0  0  0  0  0  0  0  0  0  0  0
   18.4361  -11.6139   14.5830 C   0  0  0  0  0  0  0  0  0  0  0  0
   17.9944  -10.3202   14.2896 C   0  0  0  0  0  0  0  0  0  0  0  0
   17.2894   -9.5894   15.2511 C   0  0  0  0  0  0  0  0  0  0  0  0
   15.5146   -8.2427   17.3420 C   0  0  0  0  0  0  0  0  0  0  0  0
   15.3646   -7.7428   16.1939 O   0  0  0  0  0  0  0  0  0  0  0  0
   16.3154   -9.4205   17.5272 N   0  0  0  0  0  0  0  0  0  0  0  0
   16.3796   -9.7696   18.4455 H   0  0  0  0  0  0  0  0  0  0  0  0
   12.9970   -6.4051   19.4796 C   0  0  0  0  0  0  0  0  0  0  0  0
   13.6284   -6.4323   20.6843 N   0  0  0  0  0  0  0  0  0  0  0  0
   14.8428   -7.0226   20.8451 C   0  0  0  0  0  0  0  0  0  0  0  0
   15.4791   -7.6235   19.7577 C   0  0  0  0  0  0  0  0  0  0  0  0
   14.8594   -7.6146   18.5030 C   0  0  0  0  0  0  0  0  0  0  0  0
   13.6089   -7.0001   18.3658 C   0  0  0  0  0  0  0  0  0  0  0  0
   11.5160   -4.6586   18.5433 C   0  0  0  0  0  0  0  0  0  0  0  0
   11.7494   -5.7830   19.3805 O   0  0  0  0  0  0  0  0  0  0  0  0
   18.2419   -9.7359   12.9442 C   0  0  0  0  0  0  0  0  0  0  0  0
   17.0655   -9.9156   12.1062 N   0  0  0  0  0  0  0  0  0  0  0  0
   16.2313  -10.1638   12.5663 H   0  0  0  0  0  0  0  0  0  0  0  0
   16.9924   -9.7689   10.6778 C   0  0  0  0  0  0  0  0  0  0  0  0
   15.9209  -10.3185   10.0487 N   0  0  0  0  0  0  0  0  0  0  0  0
   15.7572  -10.2358    8.7057 C   0  0  0  0  0  0  0  0  0  0  0  0
   16.6760   -9.5912    7.9466 N   0  0  0  0  0  0  0  0  0  0  0  0
   17.7764   -9.0145    8.4990 C   0  0  0  0  0  0  0  0  0  0  0  0
   17.9659   -9.0902    9.9032 C   0  0  0  0  0  0  0  0  0  0  0  0
   19.1025   -8.5004   10.4701 C   0  0  0  0  0  0  0  0  0  0  0  0
   20.0388   -7.8447    9.6750 C   0  0  0  0  0  0  0  0  0  0  0  0
   19.8516   -7.7703    8.2967 C   0  0  0  0  0  0  0  0  0  0  0  0
   18.7289   -8.3472    7.6871 C   0  0  0  0  0  0  0  0  0  0  0  0
   18.5961   -8.2290    6.2126 C   0  0  0  0  0  0  0  0  0  0  0  0
   17.6700   -8.8151    5.5921 O   0  0  0  0  0  0  0  0  0  0  0  0
   19.5276   -7.4442    5.4716 N   0  0  0  0  0  0  0  0  0  0  0  0
   20.2589   -6.9779    5.9375 H   0  0  0  0  0  0  0  0  0  0  0  0
   19.4396   -7.3685    4.4939 H   0  0  0  0  0  0  0  0  0  0  0  0
 17 18  1  0  0  0
 18 11  1  0  0  0
 11 12  2  0  0  0
 12 13  1  0  0  0
 13 14  2  0  0  0
 14 15  1  0  0  0
 15 16  2  0  0  0
 15  7  1  0  0  0
 16 11  1  0  0  0
  7  8  2  0  0  0
  7  9  1  0  0  0
  9  1  1  0  0  0
  1  2  2  0  0  0
  2  3  1  0  0  0
  3  4  2  0  0  0
  4  5  1  0  0  0
  5  6  2  0  0  0
  5 19  1  0  0  0
  6  1  1  0  0  0
 19 20  1  0  0  0
 20 22  1  0  0  0
 22 23  2  0  0  0
 23 24  1  0  0  0
 24 25  2  0  0  0
 25 26  1  0  0  0
 26 27  2  0  0  0
 27 28  1  0  0  0
 27 22  1  0  0  0
 28 29  2  0  0  0
 29 30  1  0  0  0
 30 31  2  0  0  0
 31 32  1  0  0  0
 31 26  1  0  0  0
 32 33  2  0  0  0
 32 34  1  0  0  0
  9 10  1  0  0  0
 20 21  1  0  0  0
 34 35  1  0  0  0
 34 36  1  0  0  0
M  END
>  <minimizedAffinity>
-9.40830

>  <minimizedRMSD>
0.91248

$$$$
CHEMBL1668276 PubChem-53323643


 29 32  0  0  0  0  0  0  0  0999 V2000
   15.6253   -6.1898   14.0208 C   0  0  0  0  0  0  0  0  0  0  0  0
   16.0254   -7.4003   14.7841 C   0  0  0  0  0  0  0  0  0  0  0  0
   15.7842   -7.4710   16.1182 N   0  0  0  0  0  0  0  0  0  0  0  0
   16.1366   -8.5667   16.8386 C   0  0  0  0  0  0  0  0  0  0  0  0
   15.8600   -8.6026   18.2366 N   0  0  0  0  0  0  0  0  0  0  0  0
   16.7619   -9.6468   16.1996 C   0  0  0  0  0  0  0  0  0  0  0  0
   17.1239  -10.7975   16.9032 C   0  0  0  0  0  0  0  0  0  0  0  0
   17.7362  -11.8576   16.2405 C   0  0  0  0  0  0  0  0  0  0  0  0
   17.9939  -11.7886   14.8697 C   0  0  0  0  0  0  0  0  0  0  0  0
   18.6904  -12.9518   14.2457 C   0  0  0  0  0  0  0  0  0  0  0  0
   17.6394  -10.6309   14.1318 C   0  0  0  0  0  0  0  0  0  0  0  0
   17.0161   -9.5559   14.8129 C   0  0  0  0  0  0  0  0  0  0  0  0
   16.6314   -8.4336   14.1451 N   0  0  0  0  0  0  0  0  0  0  0  0
   15.4204   -7.8365   18.6712 H   0  0  0  0  0  0  0  0  0  0  0  0
   16.1087   -9.3936   18.7674 H   0  0  0  0  0  0  0  0  0  0  0  0
   17.9124  -10.5422   12.6726 C   0  0  0  0  0  0  0  0  0  0  0  0
   18.8420  -11.2263   12.1655 O   0  0  0  0  0  0  0  0  0  0  0  0
   17.1172   -9.6764   11.8483 N   0  0  0  0  0  0  0  0  0  0  0  0
   16.4178   -9.1552   12.3049 H   0  0  0  0  0  0  0  0  0  0  0  0
   17.2327   -9.4896   10.4316 C   0  0  0  0  0  0  0  0  0  0  0  0
   16.4072  -10.1833    9.5117 C   0  0  0  0  0  0  0  0  0  0  0  0
   16.5382   -9.9837    8.1660 N   0  0  0  0  0  0  0  0  0  0  0  0
   17.4727   -9.1086    7.7198 C   0  0  0  0  0  0  0  0  0  0  0  0
   17.7176   -8.8091    6.4381 N   0  0  0  0  0  0  0  0  0  0  0  0
   18.7234   -7.8991    6.4950 C   0  0  0  0  0  0  0  0  0  0  0  0
   19.1104   -7.6267    7.8114 C   0  0  0  0  0  0  0  0  0  0  0  0
   18.2843   -8.4225    8.5670 C   0  0  0  0  0  0  0  0  0  0  0  0
   18.1947   -8.5864    9.9444 C   0  0  0  0  0  0  0  0  0  0  0  0
   17.2705   -9.1670    5.6374 H   0  0  0  0  0  0  0  0  0  0  0  0
  1  2  1  0  0  0
  2  3  2  0  0  0
  3  4  1  0  0  0
  4  5  1  0  0  0
  4  6  2  0  0  0
  6  7  1  0  0  0
  7  8  2  0  0  0
  8  9  1  0  0  0
  9 10  1  0  0  0
  9 11  2  0  0  0
 11 16  1  0  0  0
 11 12  1  0  0  0
 16 17  2  0  0  0
 16 18  1  0  0  0
 18 20  1  0  0  0
 20 21  2  0  0  0
 21 22  1  0  0  0
 22 23  2  0  0  0
 23 24  1  0  0  0
 24 25  1  0  0  0
 25 26  2  0  0  0
 26 27  1  0  0  0
 27 28  2  0  0  0
 27 23  1  0  0  0
 28 20  1  0  0  0
 12 13  2  0  0  0
 12  6  1  0  0  0
 13  2  1  0  0  0
  5 14  1  0  0  0
  5 15  1  0  0  0
 18 19  1  0  0  0
 24 29  1  0  0  0
M  END
>  <minimizedAffinity>
-5.98045

>  <minimizedRMSD>
0.91291

$$$$
CHEMBL2336018 PubChem-71624905 ZINC000095588005


 30 33  0  0  0  0  0  0  0  0999 V2000
   16.4579   -9.2667   16.2024 C   0  0  0  0  0  0  0  0  0  0  0  0
   17.0607  -10.3839   16.7953 C   0  0  0  0  0  0  0  0  0  0  0  0
   17.7901  -11.2883   16.0199 C   0  0  0  0  0  0  0  0  0  0  0  0
   17.9265  -11.0880   14.6432 C   0  0  0  0  0  0  0  0  0  0  0  0
   18.7139  -12.0776   13.8512 C   0  0  0  0  0  0  0  0  0  0  0  0
   17.3239   -9.9681   14.0387 C   0  0  0  0  0  0  0  0  0  0  0  0
   16.5951   -9.0669   14.8217 C   0  0  0  0  0  0  0  0  0  0  0  0
   15.7018   -8.4318   18.4522 N   0  0  0  0  0  0  0  0  0  0  0  0
   15.6886   -8.3130   17.0212 C   0  0  0  0  0  0  0  0  0  0  0  0
   15.0247   -7.4000   16.4589 O   0  0  0  0  0  0  0  0  0  0  0  0
   16.2404   -9.1653   18.8279 H   0  0  0  0  0  0  0  0  0  0  0  0
   13.7274   -5.9637   21.2889 C   0  0  0  0  0  0  0  0  0  0  0  0
   14.9815   -6.5161   21.5663 C   0  0  0  0  0  0  0  0  0  0  0  0
   15.6204   -7.3267   20.6234 C   0  0  0  0  0  0  0  0  0  0  0  0
   15.0138   -7.5951   19.3921 C   0  0  0  0  0  0  0  0  0  0  0  0
   13.7555   -7.0415   19.1126 C   0  0  0  0  0  0  0  0  0  0  0  0
   13.1156   -6.2309   20.0539 C   0  0  0  0  0  0  0  0  0  0  0  0
   11.7196   -4.8869   22.2520 C   0  0  0  0  0  0  0  0  0  0  0  0
   13.1147   -5.1573   22.2520 O   0  0  0  0  0  0  0  0  0  0  0  0
   17.4375   -9.7216   12.6242 C   0  0  0  0  0  0  0  0  0  0  0  0
   17.5327   -9.5159   11.4400 C   0  0  0  0  0  0  0  0  0  0  0  0
   17.6465   -9.2718   10.0306 C   0  0  0  0  0  0  0  0  0  0  0  0
   16.7504   -9.8732    9.1252 C   0  0  0  0  0  0  0  0  0  0  0  0
   16.8604   -9.6401    7.7842 N   0  0  0  0  0  0  0  0  0  0  0  0
   17.8478   -8.8204    7.3468 C   0  0  0  0  0  0  0  0  0  0  0  0
   18.1303   -8.4575    6.0499 C   0  0  0  0  0  0  0  0  0  0  0  0
   19.2353   -7.6115    6.2135 C   0  0  0  0  0  0  0  0  0  0  0  0
   19.5608   -7.5007    7.5256 N   0  0  0  0  0  0  0  0  0  0  0  0
   18.7028   -8.2445    8.1923 N   0  0  0  0  0  0  0  0  0  0  0  0
   18.6513   -8.4317    9.5323 C   0  0  0  0  0  0  0  0  0  0  0  0
 18 19  1  0  0  0
 19 12  1  0  0  0
 12 13  2  0  0  0
 13 14  1  0  0  0
 14 15  2  0  0  0
 15  8  1  0  0  0
 15 16  1  0  0  0
  8  9  1  0  0  0
  9 10  2  0  0  0
  9  1  1  0  0  0
  1  2  2  0  0  0
  2  3  1  0  0  0
  3  4  2  0  0  0
  4  5  1  0  0  0
  4  6  1  0  0  0
  6 20  1  0  0  0
  6  7  2  0  0  0
 20 21  3  0  0  0
 21 22  1  0  0  0
 22 23  1  0  0  0
 23 24  2  0  0  0
 24 25  1  0  0  0
 25 26  2  0  0  0
 26 27  1  0  0  0
 27 28  2  0  0  0
 28 29  1  0  0  0
 29 30  1  0  0  0
 29 25  1  0  0  0
 30 22  2  0  0  0
  7  1  1  0  0  0
 16 17  2  0  0  0
 17 12  1  0  0  0
  8 11  1  0  0  0
M  END
>  <minimizedAffinity>
-11.57999

>  <minimizedRMSD>
0.92457

$$$$
CHEMBL3808758 PubChem-127043794


 37 41  0  0  0  0  0  0  0  0999 V2000
   17.8229  -10.0978   14.3841 C   0  0  0  0  0  0  0  0  0  0  0  0
   18.2387  -11.4172   14.6440 C   0  0  0  0  0  0  0  0  0  0  0  0
   17.9823  -11.9904   15.8929 C   0  0  0  0  0  0  0  0  0  0  0  0
   17.3117  -11.2618   16.8787 C   0  0  0  0  0  0  0  0  0  0  0  0
   16.8885   -9.9534   16.6274 C   0  0  0  0  0  0  0  0  0  0  0  0
   17.1460   -9.3785   15.3745 C   0  0  0  0  0  0  0  0  0  0  0  0
   18.9539  -12.2269   13.6159 C   0  0  0  0  0  0  0  0  0  0  0  0
   16.1999   -9.2401   17.6634 N   0  0  0  0  0  0  0  0  0  0  0  0
   15.3313   -8.1085   17.4994 C   0  0  0  0  0  0  0  0  0  0  0  0
   15.1012   -7.6365   16.3526 O   0  0  0  0  0  0  0  0  0  0  0  0
   16.3372   -9.5599   18.5843 H   0  0  0  0  0  0  0  0  0  0  0  0
   14.7028   -7.4936   18.6817 C   0  0  0  0  0  0  0  0  0  0  0  0
   13.4813   -6.8011   18.5583 C   0  0  0  0  0  0  0  0  0  0  0  0
   12.9230   -6.2354   19.7027 C   0  0  0  0  0  0  0  0  0  0  0  0
   13.5244   -6.3358   20.9219 C   0  0  0  0  0  0  0  0  0  0  0  0
   14.7318   -7.0120   21.0833 C   0  0  0  0  0  0  0  0  0  0  0  0
   15.3211   -7.5940   19.9487 C   0  0  0  0  0  0  0  0  0  0  0  0
   12.7092   -5.6432   21.9496 C   0  0  0  0  0  0  0  0  0  0  0  0
   11.5144   -5.1115   21.1275 C   0  0  0  0  0  0  0  0  0  0  0  0
   11.7461   -5.5272   19.7813 O   0  0  0  0  0  0  0  0  0  0  0  0
   18.0535   -9.4525   13.0579 C   0  0  0  0  0  0  0  0  0  0  0  0
   17.0293   -9.8823   12.1176 N   0  0  0  0  0  0  0  0  0  0  0  0
   16.2380  -10.3533   12.4658 H   0  0  0  0  0  0  0  0  0  0  0  0
   18.1374   -8.8340   10.1695 C   0  0  0  0  0  0  0  0  0  0  0  0
   17.1226   -9.6504   10.7108 C   0  0  0  0  0  0  0  0  0  0  0  0
   16.1797  -10.2511    9.8475 C   0  0  0  0  0  0  0  0  0  0  0  0
   16.2417  -10.0492    8.4971 N   0  0  0  0  0  0  0  0  0  0  0  0
   17.2240   -9.2615    7.9934 C   0  0  0  0  0  0  0  0  0  0  0  0
   18.1534   -8.6631    8.7903 C   0  0  0  0  0  0  0  0  0  0  0  0
   19.0048   -7.9383    7.9906 C   0  0  0  0  0  0  0  0  0  0  0  0
   18.4993   -8.1656    6.7066 C   0  0  0  0  0  0  0  0  0  0  0  0
   17.4094   -8.9743    6.6980 N   0  0  0  0  0  0  0  0  0  0  0  0
   16.8812   -9.2774    5.9245 H   0  0  0  0  0  0  0  0  0  0  0  0
   19.0776   -7.5952    5.4851 C   0  0  0  0  0  0  0  0  0  0  0  0
   18.6312   -7.9457    4.3586 O   0  0  0  0  0  0  0  0  0  0  0  0
   20.1177   -6.6683    5.5786 O   0  0  0  0  0  0  0  0  0  0  0  0
   20.9087   -6.3131    4.4547 C   0  0  0  0  0  0  0  0  0  0  0  0
 24 25  2  0  0  0
 25 26  1  0  0  0
 26 27  2  0  0  0
 27 28  1  0  0  0
 28 29  2  0  0  0
 29 30  1  0  0  0
 30 31  2  0  0  0
 31 32  1  0  0  0
 31 34  1  0  0  0
 34 35  2  0  0  0
 34 36  1  0  0  0
 36 37  1  0  0  0
 25 22  1  0  0  0
 22 21  1  0  0  0
 21  1  1  0  0  0
  1  2  2  0  0  0
  2  3  1  0  0  0
  3  4  2  0  0  0
  4  5  1  0  0  0
  5  6  2  0  0  0
  5  8  1  0  0  0
  8  9  1  0  0  0
  9 10  2  0  0  0
  9 12  1  0  0  0
 12 13  2  0  0  0
 13 14  1  0  0  0
 14 15  2  0  0  0
 15 16  1  0  0  0
 16 17  2  0  0  0
 15 18  1  0  0  0
 18 19  1  0  0  0
 19 20  1  0  0  0
  2  7  1  0  0  0
 29 24  1  0  0  0
  6  1  1  0  0  0
 17 12  1  0  0  0
 32 28  1  0  0  0
 20 14  1  0  0  0
 32 33  1  0  0  0
 22 23  1  0  0  0
  8 11  1  0  0  0
M  END
>  <minimizedAffinity>
-11.70896

>  <minimizedRMSD>
0.92729

$$$$
CHEMBL378085 PubChem-44414093


 30 33  0  0  0  0  0  0  0  0999 V2000
   15.9945  -10.6522   10.0262 C   0  0  0  0  0  0  0  0  0  0  0  0
   14.6430  -10.5604    9.7413 F   0  0  0  0  0  0  0  0  0  0  0  0
   16.3879  -11.9687    9.8570 F   0  0  0  0  0  0  0  0  0  0  0  0
   19.7090   -7.4698    6.6793 C   0  0  0  0  0  0  0  0  0  0  0  0
   18.5134   -6.8924    6.1953 C   0  0  0  0  0  0  0  0  0  0  0  0
   17.2673   -7.3230    6.6851 C   0  0  0  0  0  0  0  0  0  0  0  0
   17.2626   -8.3271    7.6507 C   0  0  0  0  0  0  0  0  0  0  0  0
   18.4151   -8.8819    8.1159 C   0  0  0  0  0  0  0  0  0  0  0  0
   19.6681   -8.4822    7.6571 C   0  0  0  0  0  0  0  0  0  0  0  0
   18.1413   -9.8148    9.0380 N   0  0  0  0  0  0  0  0  0  0  0  0
   16.7825   -9.7876    9.0898 C   0  0  0  0  0  0  0  0  0  0  0  0
   16.2033   -8.8824    8.2560 N   0  0  0  0  0  0  0  0  0  0  0  0
   16.1135   -6.7763    6.2308 F   0  0  0  0  0  0  0  0  0  0  0  0
   20.9027   -7.0458    6.1998 F   0  0  0  0  0  0  0  0  0  0  0  0
   18.7663  -10.3781    9.5491 H   0  0  0  0  0  0  0  0  0  0  0  0
   16.2358  -10.2260   11.4476 C   0  0  0  0  0  0  0  0  0  0  0  0
   17.4618  -10.2857   12.0357 N   0  0  0  0  0  0  0  0  0  0  0  0
   17.2283   -9.8098   13.2733 C   0  0  0  0  0  0  0  0  0  0  0  0
   15.9140   -9.4782   13.4194 C   0  0  0  0  0  0  0  0  0  0  0  0
   15.2734   -9.7358   12.2727 N   0  0  0  0  0  0  0  0  0  0  0  0
   13.8592   -9.5375   11.9907 C   0  0  0  0  0  0  0  0  0  0  0  0
   15.4044   -8.9599   14.6085 C   0  0  0  0  0  0  0  0  0  0  0  0
   16.3028   -8.7820   15.6828 C   0  0  0  0  0  0  0  0  0  0  0  0
   17.6679   -9.1288   15.5230 C   0  0  0  0  0  0  0  0  0  0  0  0
   18.1462   -9.6501   14.3066 C   0  0  0  0  0  0  0  0  0  0  0  0
   15.8236   -8.2379   16.9652 C   0  0  0  0  0  0  0  0  0  0  0  0
   14.8298   -7.4641   16.9968 O   0  0  0  0  0  0  0  0  0  0  0  0
   16.4778   -8.5801   18.1838 N   0  0  0  0  0  0  0  0  0  0  0  0
   17.2554   -9.1838   18.1724 H   0  0  0  0  0  0  0  0  0  0  0  0
   16.1523   -8.2128   19.0373 H   0  0  0  0  0  0  0  0  0  0  0  0
  4  5  2  0  0  0
  5  6  1  0  0  0
  6  7  2  0  0  0
  7  8  1  0  0  0
  8  9  2  0  0  0
  8 10  1  0  0  0
 10 11  1  0  0  0
 11 12  2  0  0  0
 11  1  1  0  0  0
  1 16  1  0  0  0
 16 17  2  0  0  0
 17 18  1  0  0  0
 18 19  2  0  0  0
 19 20  1  0  0  0
 20 21  1  0  0  0
 19 22  1  0  0  0
 22 23  2  0  0  0
 23 24  1  0  0  0
 24 25  2  0  0  0
 23 26  1  0  0  0
 26 27  2  0  0  0
 26 28  1  0  0  0
  1  2  1  0  0  0
  1  3  1  0  0  0
  6 13  1  0  0  0
  4 14  1  0  0  0
  9  4  1  0  0  0
 20 16  1  0  0  0
 12  7  1  0  0  0
 25 18  1  0  0  0
 10 15  1  0  0  0
 28 29  1  0  0  0
 28 30  1  0  0  0
M  END
>  <minimizedAffinity>
-1.47089

>  <minimizedRMSD>
0.92998

$$$$
CHEMBL3182873 8673371 ChemDiv-G756-0586 MCULE-7175335172 MolPort-007-879-278 PubChem-16030286 ZINC000008673371 ZINC08673371


 32 35  0  0  0  0  0  0  0  0999 V2000
   16.5619   -9.3398   17.3957 C   0  0  0  0  0  0  0  0  0  0  0  0
   16.5987   -9.0901   16.0155 C   0  0  0  0  0  0  0  0  0  0  0  0
   17.3114   -9.9319   15.1559 C   0  0  0  0  0  0  0  0  0  0  0  0
   17.9953  -11.0375   15.6855 C   0  0  0  0  0  0  0  0  0  0  0  0
   17.9624  -11.2925   17.0585 C   0  0  0  0  0  0  0  0  0  0  0  0
   17.2475  -10.4454   17.9094 C   0  0  0  0  0  0  0  0  0  0  0  0
   14.6883   -7.6915   17.9989 C   0  0  0  0  0  0  0  0  0  0  0  0
   14.2076   -7.6720   16.8330 O   0  0  0  0  0  0  0  0  0  0  0  0
   15.8394   -8.4949   18.3016 N   0  0  0  0  0  0  0  0  0  0  0  0
   16.1672   -8.4622   19.2294 H   0  0  0  0  0  0  0  0  0  0  0  0
   13.9664   -6.1652   21.3888 C   0  0  0  0  0  0  0  0  0  0  0  0
   12.8782   -5.3421   21.0836 C   0  0  0  0  0  0  0  0  0  0  0  0
   12.3817   -5.2840   19.7789 C   0  0  0  0  0  0  0  0  0  0  0  0
   12.9724   -6.0506   18.7712 C   0  0  0  0  0  0  0  0  0  0  0  0
   14.0645   -6.8814   19.0602 C   0  0  0  0  0  0  0  0  0  0  0  0
   14.5562   -6.9335   20.3719 C   0  0  0  0  0  0  0  0  0  0  0  0
   15.1197   -7.3265   23.2432 C   0  0  0  0  0  0  0  0  0  0  0  0
   14.4403   -6.2012   22.7030 O   0  0  0  0  0  0  0  0  0  0  0  0
   17.3245   -9.6478   13.7881 O   0  0  0  0  0  0  0  0  0  0  0  0
   17.9316  -10.5064   12.8316 C   0  0  0  0  0  0  0  0  0  0  0  0
   17.6074  -10.0337   11.4600 C   0  0  0  0  0  0  0  0  0  0  0  0
   16.3667  -10.3183   10.9006 C   0  0  0  0  0  0  0  0  0  0  0  0
   16.0798   -9.8394    9.6237 C   0  0  0  0  0  0  0  0  0  0  0  0
   14.9558  -10.1010    9.1134 O   0  0  0  0  0  0  0  0  0  0  0  0
   17.0073   -9.0971    8.9420 N   0  0  0  0  0  0  0  0  0  0  0  0
   16.7187   -8.6321    7.6900 C   0  0  0  0  0  0  0  0  0  0  0  0
   17.6452   -7.8716    6.9770 C   0  0  0  0  0  0  0  0  0  0  0  0
   18.8797   -7.5843    7.5531 C   0  0  0  0  0  0  0  0  0  0  0  0
   19.1801   -8.0554    8.8297 C   0  0  0  0  0  0  0  0  0  0  0  0
   20.5086   -7.7356    9.4263 C   0  0  0  0  0  0  0  0  0  0  0  0
   18.2266   -8.8203    9.5231 C   0  0  0  0  0  0  0  0  0  0  0  0
   18.5060   -9.2881   10.7701 N   0  0  0  0  0  0  0  0  0  0  0  0
 17 18  1  0  0  0
 18 11  1  0  0  0
 11 12  2  0  0  0
 12 13  1  0  0  0
 13 14  2  0  0  0
 14 15  1  0  0  0
 15 16  2  0  0  0
 15  7  1  0  0  0
 16 11  1  0  0  0
  7  8  2  0  0  0
  7  9  1  0  0  0
  9  1  1  0  0  0
  1  2  2  0  0  0
  2  3  1  0  0  0
  3 19  1  0  0  0
  3  4  2  0  0  0
 19 20  1  0  0  0
 20 21  1  0  0  0
 21 22  2  0  0  0
 22 23  1  0  0  0
 23 24  2  0  0  0
 23 25  1  0  0  0
 25 26  1  0  0  0
 26 27  2  0  0  0
 27 28  1  0  0  0
 28 29  2  0  0  0
 29 30  1  0  0  0
 29 31  1  0  0  0
 31 32  2  0  0  0
 31 25  1  0  0  0
 32 21  1  0  0  0
  4  5  1  0  0  0
  5  6  2  0  0  0
  6  1  1  0  0  0
  9 10  1  0  0  0
M  END
>  <minimizedAffinity>
-7.62308

>  <minimizedRMSD>
0.93437

$$$$
CHEMBL1997293 5161504 MolPort-004-258-078 PubChem-9641966 ZINC000005161504 ZINC05161504


 25 27  0  0  0  0  0  0  0  0999 V2000
   16.3688   -9.6329   12.7381 C   0  0  0  0  0  0  0  0  0  0  0  0
   15.5396   -8.3948   12.5700 C   0  0  0  0  0  0  0  0  0  0  0  0
   16.5917  -10.4258   11.7293 N   0  0  0  0  0  0  0  0  0  0  0  0
   16.9007   -9.6791   16.4963 C   0  0  0  0  0  0  0  0  0  0  0  0
   17.8950  -10.6551   16.6110 C   0  0  0  0  0  0  0  0  0  0  0  0
   18.3905  -11.2963   15.4732 C   0  0  0  0  0  0  0  0  0  0  0  0
   17.8925  -10.9638   14.2111 C   0  0  0  0  0  0  0  0  0  0  0  0
   16.8937   -9.9875   14.0746 C   0  0  0  0  0  0  0  0  0  0  0  0
   16.4055   -9.3505   15.2257 C   0  0  0  0  0  0  0  0  0  0  0  0
   15.0375   -7.4740   19.0945 C   0  0  0  0  0  0  0  0  0  0  0  0
   15.4154   -8.0207   17.7657 C   0  0  0  0  0  0  0  0  0  0  0  0
   14.8493   -7.5771   16.7322 O   0  0  0  0  0  0  0  0  0  0  0  0
   16.4174   -9.0424   17.6870 N   0  0  0  0  0  0  0  0  0  0  0  0
   16.8149   -9.3375   18.5380 H   0  0  0  0  0  0  0  0  0  0  0  0
   16.1629  -10.1558   10.4181 N   0  0  0  0  0  0  0  0  0  0  0  0
   15.2542  -10.4278   10.1543 H   0  0  0  0  0  0  0  0  0  0  0  0
   16.9897   -9.5030    9.4507 C   0  0  0  0  0  0  0  0  0  0  0  0
   16.8380   -9.6965    8.1189 N   0  0  0  0  0  0  0  0  0  0  0  0
   17.7693   -8.9955    7.4245 C   0  0  0  0  0  0  0  0  0  0  0  0
   17.8690   -8.9858    6.0332 C   0  0  0  0  0  0  0  0  0  0  0  0
   18.8845   -8.2180    5.4384 C   0  0  0  0  0  0  0  0  0  0  0  0
   19.7805   -7.4770    6.2336 C   0  0  0  0  0  0  0  0  0  0  0  0
   19.6725   -7.4944    7.6331 C   0  0  0  0  0  0  0  0  0  0  0  0
   18.6573   -8.2620    8.1975 C   0  0  0  0  0  0  0  0  0  0  0  0
   18.2911   -8.4777    9.8205 S   0  0  0  0  0  0  0  0  0  0  0  0
 10 11  1  0  0  0
 11 12  2  0  0  0
 11 13  1  0  0  0
 13  4  1  0  0  0
  4  5  2  0  0  0
  5  6  1  0  0  0
  6  7  2  0  0  0
  7  8  1  0  0  0
  8  9  2  0  0  0
  8  1  1  0  0  0
  9  4  1  0  0  0
  1  2  1  0  0  0
  1  3  2  0  0  0
  3 15  1  0  0  0
 15 17  1  0  0  0
 17 18  2  0  0  0
 18 19  1  0  0  0
 19 20  2  0  0  0
 20 21  1  0  0  0
 21 22  2  0  0  0
 22 23  1  0  0  0
 23 24  2  0  0  0
 24 25  1  0  0  0
 24 19  1  0  0  0
 25 17  1  0  0  0
 13 14  1  0  0  0
 15 16  1  0  0  0
M  END
>  <minimizedAffinity>
-8.65408

>  <minimizedRMSD>
0.94737

$$$$
CHEMBL1870034 CSC026439310 MCULE-7340594763 MolPort-004-571-030 PubChem-17428332 Z32279657


 26 28  0  0  0  0  0  0  0  0999 V2000
   16.7697   -8.4646   12.1951 C   0  0  0  0  0  0  0  0  0  0  0  0
   16.1201   -9.2739   13.2715 C   0  0  0  0  0  0  0  0  0  0  0  0
   15.1530  -10.0259   12.9738 O   0  0  0  0  0  0  0  0  0  0  0  0
   16.5762   -9.1909   14.6303 N   0  0  0  0  0  0  0  0  0  0  0  0
   17.6821   -8.3015   14.9826 C   0  0  0  0  0  0  0  0  0  0  0  0
   18.6045   -9.0066   15.9673 C   0  0  0  0  0  0  0  0  0  0  0  0
   17.8637   -9.4647   17.2310 C   0  0  0  0  0  0  0  0  0  0  0  0
   16.3361   -9.5661   17.0852 C   0  0  0  0  0  0  0  0  0  0  0  0
   15.9028   -9.9793   15.6690 C   0  0  0  0  0  0  0  0  0  0  0  0
   15.6689   -8.3051   17.5598 C   0  0  0  0  0  0  0  0  0  0  0  0
   15.8396   -7.8862   18.9094 N   0  0  0  0  0  0  0  0  0  0  0  0
   14.9483   -7.6182   16.7867 O   0  0  0  0  0  0  0  0  0  0  0  0
   16.4003   -8.4152   19.5218 H   0  0  0  0  0  0  0  0  0  0  0  0
   15.3971   -7.0675   19.2304 H   0  0  0  0  0  0  0  0  0  0  0  0
   18.2431   -9.3197   11.5576 S   0  0  0  0  0  0  0  0  0  0  0  0
   20.3851   -7.1114    6.6082 C   0  0  0  0  0  0  0  0  0  0  0  0
   19.2979   -7.9542    7.1795 C   0  0  0  0  0  0  0  0  0  0  0  0
   19.1296   -8.2672    8.5314 C   0  0  0  0  0  0  0  0  0  0  0  0
   20.0619   -7.7705    9.5859 C   0  0  0  0  0  0  0  0  0  0  0  0
   18.0029   -9.0878    8.7548 C   0  0  0  0  0  0  0  0  0  0  0  0
   17.4912   -9.6155    9.9553 C   0  0  0  0  0  0  0  0  0  0  0  0
   16.3748  -10.3968    9.8987 N   0  0  0  0  0  0  0  0  0  0  0  0
   15.7450  -10.6701    8.7196 C   0  0  0  0  0  0  0  0  0  0  0  0
   16.2235  -10.1640    7.5510 N   0  0  0  0  0  0  0  0  0  0  0  0
   17.3325   -9.3888    7.5802 C   0  0  0  0  0  0  0  0  0  0  0  0
   18.0792   -8.6754    6.2601 S   0  0  0  0  0  0  0  0  0  0  0  0
 16 17  1  0  0  0
 17 18  2  0  0  0
 18 19  1  0  0  0
 18 20  1  0  0  0
 20 21  2  0  0  0
 21 15  1  0  0  0
 15  1  1  0  0  0
  1  2  1  0  0  0
  2  3  2  0  0  0
  2  4  1  0  0  0
  4  5  1  0  0  0
  5  6  1  0  0  0
  6  7  1  0  0  0
  7  8  1  0  0  0
  8  9  1  0  0  0
  8 10  1  0  0  0
 10 11  1  0  0  0
 10 12  2  0  0  0
 21 22  1  0  0  0
 22 23  2  0  0  0
 23 24  1  0  0  0
 24 25  2  0  0  0
 25 26  1  0  0  0
 26 17  1  0  0  0
 25 20  1  0  0  0
  9  4  1  0  0  0
 11 13  1  0  0  0
 11 14  1  0  0  0
M  END
>  <minimizedAffinity>
-3.03867

>  <minimizedRMSD>
0.94973

$$$$
CHEMBL5081701 PubChem-156898919


 38 42  0  0  0  0  0  0  0  0999 V2000
   16.6981   -8.5025   14.2800 C   0  0  0  0  0  0  0  0  0  0  0  0
   15.5953   -9.0057   15.2039 C   0  0  0  0  0  0  0  0  0  0  0  0
   14.6550   -9.8510   14.7261 C   0  0  0  0  0  0  0  0  0  0  0  0
   14.7249  -10.3107   13.3758 N   0  0  0  0  0  0  0  0  0  0  0  0
   15.7829   -9.9100   12.5092 C   0  0  0  0  0  0  0  0  0  0  0  0
   16.6922   -9.0900   12.9370 N   0  0  0  0  0  0  0  0  0  0  0  0
   13.4866  -10.3001   15.5404 C   0  0  0  0  0  0  0  0  0  0  0  0
   14.0275  -10.9172   13.0365 H   0  0  0  0  0  0  0  0  0  0  0  0
   21.9535   -8.7016   16.7121 C   0  0  0  0  0  0  0  0  0  0  0  0
   20.6105   -8.6670   16.0775 C   0  0  0  0  0  0  0  0  0  0  0  0
   20.2575   -9.6370   15.1372 C   0  0  0  0  0  0  0  0  0  0  0  0
   18.9958   -9.6134   14.5343 C   0  0  0  0  0  0  0  0  0  0  0  0
   18.0720   -8.6018   14.8830 C   0  0  0  0  0  0  0  0  0  0  0  0
   18.4400   -7.6318   15.8229 C   0  0  0  0  0  0  0  0  0  0  0  0
   19.7025   -7.6635   16.4193 C   0  0  0  0  0  0  0  0  0  0  0  0
   18.6249  -10.8619   13.3545 Cl  0  0  0  0  0  0  0  0  0  0  0  0
   15.5445   -8.4592   16.5843 C   0  0  0  0  0  0  0  0  0  0  0  0
   15.2288   -7.2511   16.7616 O   0  0  0  0  0  0  0  0  0  0  0  0
   15.8979   -9.2718   17.7086 N   0  0  0  0  0  0  0  0  0  0  0  0
   16.2117  -10.1905   17.5453 H   0  0  0  0  0  0  0  0  0  0  0  0
   15.8137   -8.7987   19.0830 C   0  0  0  0  0  0  0  0  0  0  0  0
   14.5910   -7.9666   19.2671 C   0  0  0  0  0  0  0  0  0  0  0  0
   13.3373   -8.2362   18.7614 C   0  0  0  0  0  0  0  0  0  0  0  0
   12.5604   -7.2060   19.1341 N   0  0  0  0  0  0  0  0  0  0  0  0
   13.2500   -6.3154   19.8273 N   0  0  0  0  0  0  0  0  0  0  0  0
   14.5198   -6.7545   19.9262 C   0  0  0  0  0  0  0  0  0  0  0  0
   11.1511   -7.0670   18.8199 C   0  0  0  0  0  0  0  0  0  0  0  0
   15.8383  -10.4411   11.1812 N   0  0  0  0  0  0  0  0  0  0  0  0
   15.3380  -11.2696   11.0009 H   0  0  0  0  0  0  0  0  0  0  0  0
   16.5663   -9.8580   10.0959 C   0  0  0  0  0  0  0  0  0  0  0  0
   16.3299  -10.1950    8.7986 N   0  0  0  0  0  0  0  0  0  0  0  0
   17.2214   -9.4248    8.1529 C   0  0  0  0  0  0  0  0  0  0  0  0
   17.9298   -8.6864    9.0437 C   0  0  0  0  0  0  0  0  0  0  0  0
   17.5236   -8.9548   10.2522 O   0  0  0  0  0  0  0  0  0  0  0  0
   18.9012   -7.8182    8.6704 N   0  0  0  0  0  0  0  0  0  0  0  0
   19.1765   -7.6833    7.3371 C   0  0  0  0  0  0  0  0  0  0  0  0
   18.4613   -8.4345    6.3744 C   0  0  0  0  0  0  0  0  0  0  0  0
   17.4564   -9.3304    6.7861 C   0  0  0  0  0  0  0  0  0  0  0  0
  9 10  1  0  0  0
 10 11  2  0  0  0
 11 12  1  0  0  0
 12 13  2  0  0  0
 13 14  1  0  0  0
 14 15  2  0  0  0
 13  1  1  0  0  0
  1  2  1  0  0  0
  2  3  2  0  0  0
  3  4  1  0  0  0
  4  5  1  0  0  0
  5  6  2  0  0  0
  5 28  1  0  0  0
 28 30  1  0  0  0
 30 31  2  0  0  0
 31 32  1  0  0  0
 32 33  2  0  0  0
 33 34  1  0  0  0
 33 35  1  0  0  0
 35 36  2  0  0  0
 36 37  1  0  0  0
 37 38  2  0  0  0
  3  7  1  0  0  0
  2 17  1  0  0  0
 17 18  2  0  0  0
 17 19  1  0  0  0
 19 21  1  0  0  0
 21 22  1  0  0  0
 22 23  2  0  0  0
 23 24  1  0  0  0
 24 25  1  0  0  0
 25 26  2  0  0  0
 24 27  1  0  0  0
 12 16  1  0  0  0
 15 10  1  0  0  0
  6  1  1  0  0  0
 34 30  1  0  0  0
 38 32  1  0  0  0
 26 22  1  0  0  0
  4  8  1  0  0  0
 28 29  1  0  0  0
 19 20  1  0  0  0
M  END
>  <minimizedAffinity>
5.02277

>  <minimizedRMSD>
0.95369

$$$$
CHEMBL4980140 CSC102905443 MCULE-2011494729 MolPort-046-472-878 PubChem-138008499 Z3077896856


 27 31  0  0  0  0  0  0  0  0999 V2000
   15.7538   -8.7418   13.6347 C   0  0  0  0  0  0  0  0  0  0  0  0
   15.1043   -9.7796   12.7096 C   0  0  0  0  0  0  0  0  0  0  0  0
   16.1366  -10.5088   11.8548 C   0  0  0  0  0  0  0  0  0  0  0  0
   17.0080   -9.5383   11.2004 N   0  0  0  0  0  0  0  0  0  0  0  0
   17.7448   -8.6215   12.0652 C   0  0  0  0  0  0  0  0  0  0  0  0
   16.7675   -7.8305   12.9298 C   0  0  0  0  0  0  0  0  0  0  0  0
   15.4267   -7.7834   16.3655 O   0  0  0  0  0  0  0  0  0  0  0  0
   16.0854   -8.8308   16.1284 C   0  0  0  0  0  0  0  0  0  0  0  0
   16.6721   -9.5635   17.1124 N   0  0  0  0  0  0  0  0  0  0  0  0
   17.2496  -10.5631   16.4207 C   0  0  0  0  0  0  0  0  0  0  0  0
   17.9983  -11.6261   16.9123 C   0  0  0  0  0  0  0  0  0  0  0  0
   18.4964  -12.5459   15.9714 C   0  0  0  0  0  0  0  0  0  0  0  0
   18.2267  -12.3639   14.5955 C   0  0  0  0  0  0  0  0  0  0  0  0
   17.4837  -11.2989   14.1676 N   0  0  0  0  0  0  0  0  0  0  0  0
   17.0113  -10.4219   15.0881 C   0  0  0  0  0  0  0  0  0  0  0  0
   16.2697   -9.3223   14.8768 N   0  0  0  0  0  0  0  0  0  0  0  0
   16.6739   -9.4034   18.0838 H   0  0  0  0  0  0  0  0  0  0  0  0
   17.1103   -9.5114    9.7628 C   0  0  0  0  0  0  0  0  0  0  0  0
   18.0170   -8.6936    9.0738 C   0  0  0  0  0  0  0  0  0  0  0  0
   18.9631   -7.7851    9.4961 C   0  0  0  0  0  0  0  0  0  0  0  0
   19.5319   -7.3058    8.3140 C   0  0  0  0  0  0  0  0  0  0  0  0
   18.9753   -7.8791    7.2187 N   0  0  0  0  0  0  0  0  0  0  0  0
   18.0571   -8.7186    7.7146 C   0  0  0  0  0  0  0  0  0  0  0  0
   17.2426   -9.5151    6.9828 N   0  0  0  0  0  0  0  0  0  0  0  0
   16.3550  -10.3161    7.6398 C   0  0  0  0  0  0  0  0  0  0  0  0
   16.2950  -10.3093    9.0072 N   0  0  0  0  0  0  0  0  0  0  0  0
   19.1960   -7.7155    6.2733 H   0  0  0  0  0  0  0  0  0  0  0  0
  7  8  2  0  0  0
  8  9  1  0  0  0
  9 10  1  0  0  0
 10 11  2  0  0  0
 11 12  1  0  0  0
 12 13  2  0  0  0
 13 14  1  0  0  0
 14 15  2  0  0  0
 15 16  1  0  0  0
 16  1  1  0  0  0
  1  2  1  0  0  0
  2  3  1  0  0  0
  3  4  1  0  0  0
  4  5  1  0  0  0
  5  6  1  0  0  0
  4 18  1  0  0  0
 18 19  2  0  0  0
 19 20  1  0  0  0
 20 21  2  0  0  0
 21 22  1  0  0  0
 22 23  1  0  0  0
 23 24  2  0  0  0
 24 25  1  0  0  0
 25 26  2  0  0  0
 16  8  1  0  0  0
  6  1  1  0  0  0
 26 18  1  0  0  0
 15 10  1  0  0  0
 23 19  1  0  0  0
  9 17  1  0  0  0
 22 27  1  0  0  0
M  END
>  <minimizedAffinity>
-4.25028

>  <minimizedRMSD>
0.95403

$$$$
CHEMBL3809960 PubChem-76900623


 37 41  0  0  0  0  0  0  0  0999 V2000
   18.9426  -12.2293   13.6094 C   0  0  0  0  0  0  0  0  0  0  0  0
   18.2328  -11.4180   14.6401 C   0  0  0  0  0  0  0  0  0  0  0  0
   17.8217  -10.0967   14.3827 C   0  0  0  0  0  0  0  0  0  0  0  0
   17.1496   -9.3760   15.3755 C   0  0  0  0  0  0  0  0  0  0  0  0
   16.8927   -9.9515   16.6282 C   0  0  0  0  0  0  0  0  0  0  0  0
   17.3110  -11.2620   16.8768 C   0  0  0  0  0  0  0  0  0  0  0  0
   17.9767  -11.9917   15.8887 C   0  0  0  0  0  0  0  0  0  0  0  0
   16.2088   -9.2369   17.6665 N   0  0  0  0  0  0  0  0  0  0  0  0
   15.3349   -8.1090   17.5045 C   0  0  0  0  0  0  0  0  0  0  0  0
   15.0961   -7.6410   16.3579 O   0  0  0  0  0  0  0  0  0  0  0  0
   16.3537   -9.5529   18.5876 H   0  0  0  0  0  0  0  0  0  0  0  0
   14.7115   -7.4926   18.6887 C   0  0  0  0  0  0  0  0  0  0  0  0
   15.3366   -7.5896   19.9503 C   0  0  0  0  0  0  0  0  0  0  0  0
   14.7064   -6.9899   21.0370 C   0  0  0  0  0  0  0  0  0  0  0  0
   13.5288   -6.3279   20.9122 C   0  0  0  0  0  0  0  0  0  0  0  0
   12.8752   -6.2059   19.6898 C   0  0  0  0  0  0  0  0  0  0  0  0
   13.4818   -6.7992   18.5680 C   0  0  0  0  0  0  0  0  0  0  0  0
   13.1427   -5.8399   22.1446 O   0  0  0  0  0  0  0  0  0  0  0  0
   14.1395   -6.2185   23.1044 C   0  0  0  0  0  0  0  0  0  0  0  0
   15.1187   -6.9508   22.3540 O   0  0  0  0  0  0  0  0  0  0  0  0
   18.0517   -9.4508   13.0567 C   0  0  0  0  0  0  0  0  0  0  0  0
   17.0286   -9.8823   12.1160 N   0  0  0  0  0  0  0  0  0  0  0  0
   16.2380  -10.3547   12.4639 H   0  0  0  0  0  0  0  0  0  0  0  0
   17.1221   -9.6501   10.7093 C   0  0  0  0  0  0  0  0  0  0  0  0
   16.1798  -10.2513    9.8456 C   0  0  0  0  0  0  0  0  0  0  0  0
   16.2422  -10.0496    8.4952 N   0  0  0  0  0  0  0  0  0  0  0  0
   17.2245   -9.2617    7.9917 C   0  0  0  0  0  0  0  0  0  0  0  0
   18.1532   -8.6626    8.7890 C   0  0  0  0  0  0  0  0  0  0  0  0
   18.1368   -8.8334   10.1682 C   0  0  0  0  0  0  0  0  0  0  0  0
   19.0046   -7.9376    7.9896 C   0  0  0  0  0  0  0  0  0  0  0  0
   18.4999   -8.1654    6.7054 C   0  0  0  0  0  0  0  0  0  0  0  0
   17.4103   -8.9745    6.6963 N   0  0  0  0  0  0  0  0  0  0  0  0
   16.8825   -9.2780    5.9227 H   0  0  0  0  0  0  0  0  0  0  0  0
   19.0783   -7.5949    5.4840 C   0  0  0  0  0  0  0  0  0  0  0  0
   18.6320   -7.9452    4.3573 O   0  0  0  0  0  0  0  0  0  0  0  0
   20.1187   -6.6683    5.5778 O   0  0  0  0  0  0  0  0  0  0  0  0
   20.9089   -6.3119    4.4536 C   0  0  0  0  0  0  0  0  0  0  0  0
  1  2  1  0  0  0
  2  3  2  0  0  0
  3  4  1  0  0  0
  3 21  1  0  0  0
  4  5  2  0  0  0
  5  6  1  0  0  0
  5  8  1  0  0  0
  6  7  2  0  0  0
  7  2  1  0  0  0
  8  9  1  0  0  0
  9 10  2  0  0  0
  9 12  1  0  0  0
 12 13  2  0  0  0
 13 14  1  0  0  0
 14 15  2  0  0  0
 15 16  1  0  0  0
 15 18  1  0  0  0
 16 17  2  0  0  0
 17 12  1  0  0  0
 18 19  1  0  0  0
 19 20  1  0  0  0
 20 14  1  0  0  0
 21 22  1  0  0  0
 22 24  1  0  0  0
 24 25  2  0  0  0
 25 26  1  0  0  0
 26 27  2  0  0  0
 27 28  1  0  0  0
 28 29  2  0  0  0
 28 30  1  0  0  0
 29 24  1  0  0  0
 30 31  2  0  0  0
 31 32  1  0  0  0
 31 34  1  0  0  0
 32 27  1  0  0  0
 34 35  2  0  0  0
 34 36  1  0  0  0
 36 37  1  0  0  0
  8 11  1  0  0  0
 22 23  1  0  0  0
 32 33  1  0  0  0
M  END
>  <minimizedAffinity>
-11.47767

>  <minimizedRMSD>
0.95543

$$$$
CHEMBL400424


 35 39  0  0  0  0  0  0  0  0999 V2000
   16.5395   -7.7702   10.1221 C   0  0  0  0  0  0  0  0  0  0  0  0
   16.2723   -9.8083    8.6743 C   0  0  0  0  0  0  0  0  0  0  0  0
   16.7919  -10.3929    7.5660 N   0  0  0  0  0  0  0  0  0  0  0  0
   17.6859   -9.4848    7.1368 C   0  0  0  0  0  0  0  0  0  0  0  0
   18.5608   -9.6268    6.0646 C   0  0  0  0  0  0  0  0  0  0  0  0
   19.4702   -8.5860    5.8232 C   0  0  0  0  0  0  0  0  0  0  0  0
   19.4795   -7.4394    6.6423 C   0  0  0  0  0  0  0  0  0  0  0  0
   18.5799   -7.3059    7.7195 C   0  0  0  0  0  0  0  0  0  0  0  0
   17.6920   -8.3791    7.9487 C   0  0  0  0  0  0  0  0  0  0  0  0
   16.7969   -8.5841    8.9373 N   0  0  0  0  0  0  0  0  0  0  0  0
   18.5840   -6.0504    8.4891 C   0  0  0  0  0  0  0  0  0  0  0  0
   19.1002   -6.0194    9.6374 O   0  0  0  0  0  0  0  0  0  0  0  0
   18.1088   -4.8722    7.9281 O   0  0  0  0  0  0  0  0  0  0  0  0
   17.7226   -4.8822    7.0745 H   0  0  0  0  0  0  0  0  0  0  0  0
   15.2424  -10.4755    9.5325 C   0  0  0  0  0  0  0  0  0  0  0  0
   15.6482  -11.9021    9.8766 C   0  0  0  0  0  0  0  0  0  0  0  0
   16.8061  -12.7414   11.8981 C   0  0  0  0  0  0  0  0  0  0  0  0
   16.9628  -11.9252   10.6334 C   0  0  0  0  0  0  0  0  0  0  0  0
   16.8317   -8.5340   11.3712 C   0  0  0  0  0  0  0  0  0  0  0  0
   18.1067   -9.0622   11.6046 C   0  0  0  0  0  0  0  0  0  0  0  0
   18.3660   -9.7728   12.7794 C   0  0  0  0  0  0  0  0  0  0  0  0
   17.3591   -9.9461   13.7402 C   0  0  0  0  0  0  0  0  0  0  0  0
   16.0816   -9.4207   13.4958 C   0  0  0  0  0  0  0  0  0  0  0  0
   15.8218   -8.7106   12.3208 C   0  0  0  0  0  0  0  0  0  0  0  0
   17.6181  -10.7238   14.9196 N   0  0  0  0  0  0  0  0  0  0  0  0
   18.3422  -11.8582   14.9266 C   0  0  0  0  0  0  0  0  0  0  0  0
   18.3279  -12.4121   16.1940 C   0  0  0  0  0  0  0  0  0  0  0  0
   17.5649  -11.5765   16.9927 C   0  0  0  0  0  0  0  0  0  0  0  0
   17.1468  -10.5461   16.1742 C   0  0  0  0  0  0  0  0  0  0  0  0
   16.3892   -9.3800   16.6662 C   0  0  0  0  0  0  0  0  0  0  0  0
   15.4838   -8.6885   15.9511 N   0  0  0  0  0  0  0  0  0  0  0  0
   15.1036   -7.7044   16.7489 N   0  0  0  0  0  0  0  0  0  0  0  0
   15.7558   -7.7832   17.8976 N   0  0  0  0  0  0  0  0  0  0  0  0
   16.5763   -8.8205   17.8755 N   0  0  0  0  0  0  0  0  0  0  0  0
   17.1886   -9.1176   18.5868 H   0  0  0  0  0  0  0  0  0  0  0  0
 17 18  1  0  0  0
 18 16  1  0  0  0
 16 15  1  0  0  0
 15  2  1  0  0  0
  2  3  2  0  0  0
  3  4  1  0  0  0
  4  5  2  0  0  0
  5  6  1  0  0  0
  6  7  2  0  0  0
  7  8  1  0  0  0
  8 11  1  0  0  0
  8  9  2  0  0  0
 11 12  2  0  0  0
 11 13  1  0  0  0
  9 10  1  0  0  0
  9  4  1  0  0  0
 10  1  1  0  0  0
 10  2  1  0  0  0
  1 19  1  0  0  0
 19 20  2  0  0  0
 20 21  1  0  0  0
 21 22  2  0  0  0
 22 25  1  0  0  0
 22 23  1  0  0  0
 25 26  1  0  0  0
 26 27  2  0  0  0
 27 28  1  0  0  0
 28 29  2  0  0  0
 29 30  1  0  0  0
 29 25  1  0  0  0
 30 31  2  0  0  0
 31 32  1  0  0  0
 32 33  2  0  0  0
 33 34  1  0  0  0
 34 30  1  0  0  0
 23 24  2  0  0  0
 24 19  1  0  0  0
 13 14  1  0  0  0
 34 35  1  0  0  0
M  END
>  <minimizedAffinity>
7.28489

>  <minimizedRMSD>
0.95798

$$$$
CHEMBL1524414 8607128 ChemDiv-G357-1296 MCULE-4815775207 MolPort-007-847-481 PubChem-16027478 ZINC000008607128 ZINC08607128


 35 39  0  0  0  0  0  0  0  0999 V2000
   16.6029   -9.1540   16.9171 C   0  0  0  0  0  0  0  0  0  0  0  0
   16.6599   -8.4736   15.6919 C   0  0  0  0  0  0  0  0  0  0  0  0
   17.2536   -9.0724   14.5774 C   0  0  0  0  0  0  0  0  0  0  0  0
   17.7984  -10.3593   14.6725 C   0  0  0  0  0  0  0  0  0  0  0  0
   17.7430  -11.0387   15.8974 C   0  0  0  0  0  0  0  0  0  0  0  0
   17.1496  -10.4381   17.0115 C   0  0  0  0  0  0  0  0  0  0  0  0
   14.8279   -7.7485   18.1275 C   0  0  0  0  0  0  0  0  0  0  0  0
   14.1884   -7.4841   17.0728 O   0  0  0  0  0  0  0  0  0  0  0  0
   16.0039   -8.5719   18.0828 N   0  0  0  0  0  0  0  0  0  0  0  0
   16.4453   -8.7562   18.9433 H   0  0  0  0  0  0  0  0  0  0  0  0
   13.4645   -6.1889   21.8822 C   0  0  0  0  0  0  0  0  0  0  0  0
   14.5631   -7.0626   21.8340 C   0  0  0  0  0  0  0  0  0  0  0  0
   15.0067   -7.5700   20.6098 C   0  0  0  0  0  0  0  0  0  0  0  0
   14.3604   -7.2120   19.4182 C   0  0  0  0  0  0  0  0  0  0  0  0
   13.2632   -6.3398   19.4697 C   0  0  0  0  0  0  0  0  0  0  0  0
   12.8188   -5.8325   20.6942 C   0  0  0  0  0  0  0  0  0  0  0  0
   13.8303   -5.5032   24.2303 C   0  0  0  0  0  0  0  0  0  0  0  0
   12.9970   -5.6638   23.0900 O   0  0  0  0  0  0  0  0  0  0  0  0
   18.4204  -10.9859   13.4953 C   0  0  0  0  0  0  0  0  0  0  0  0
   18.9038  -12.1492   13.5795 O   0  0  0  0  0  0  0  0  0  0  0  0
   18.4739  -10.2881   12.2869 O   0  0  0  0  0  0  0  0  0  0  0  0
   17.3205   -9.6928   11.7103 C   0  0  0  0  0  0  0  0  0  0  0  0
   17.5747   -9.4066   10.2735 C   0  0  0  0  0  0  0  0  0  0  0  0
   16.7795  -10.0161    9.2889 C   0  0  0  0  0  0  0  0  0  0  0  0
   17.0185   -9.7074    7.9451 C   0  0  0  0  0  0  0  0  0  0  0  0
   16.3233  -10.2378    7.0383 O   0  0  0  0  0  0  0  0  0  0  0  0
   18.0078   -8.8263    7.6410 N   0  0  0  0  0  0  0  0  0  0  0  0
   18.3300   -8.4419    6.4080 N   0  0  0  0  0  0  0  0  0  0  0  0
   19.3587   -7.5568    6.4005 C   0  0  0  0  0  0  0  0  0  0  0  0
   19.8913   -7.1924    7.9730 S   0  0  0  0  0  0  0  0  0  0  0  0
   18.7516   -8.2496    8.6083 C   0  0  0  0  0  0  0  0  0  0  0  0
   18.5487   -8.5205    9.9209 N   0  0  0  0  0  0  0  0  0  0  0  0
   19.8853   -6.9169    5.1585 C   0  0  0  0  0  0  0  0  0  0  0  0
   20.4487   -7.9746    4.2274 C   0  0  0  0  0  0  0  0  0  0  0  0
   21.3843   -7.1343    5.0660 C   0  0  0  0  0  0  0  0  0  0  0  0
 17 18  1  0  0  0
 18 11  1  0  0  0
 11 12  2  0  0  0
 12 13  1  0  0  0
 13 14  2  0  0  0
 14 15  1  0  0  0
 15 16  2  0  0  0
 14  7  1  0  0  0
  7  8  2  0  0  0
  7  9  1  0  0  0
  9  1  1  0  0  0
  1  2  2  0  0  0
  2  3  1  0  0  0
  3  4  2  0  0  0
  4  5  1  0  0  0
  5  6  2  0  0  0
  4 19  1  0  0  0
 19 20  2  0  0  0
 19 21  1  0  0  0
 21 22  1  0  0  0
 22 23  1  0  0  0
 23 24  2  0  0  0
 24 25  1  0  0  0
 25 26  2  0  0  0
 25 27  1  0  0  0
 27 28  1  0  0  0
 28 29  2  0  0  0
 29 30  1  0  0  0
 30 31  1  0  0  0
 31 32  2  0  0  0
 29 33  1  0  0  0
 33 34  1  0  0  0
 34 35  1  0  0  0
 16 11  1  0  0  0
  6  1  1  0  0  0
 32 23  1  0  0  0
 35 33  1  0  0  0
 31 27  1  0  0  0
  9 10  1  0  0  0
M  END
>  <minimizedAffinity>
-8.98722

>  <minimizedRMSD>
0.96096

$$$$
CHEMBL1611888


 28 31  0  0  0  0  0  0  0  0999 V2000
   16.7862  -10.2728   13.7245 C   0  0  0  0  0  0  0  0  0  0  0  0
   17.4059  -10.2516   12.5706 O   0  0  0  0  0  0  0  0  0  0  0  0
   16.4704   -9.9682   11.6964 C   0  0  0  0  0  0  0  0  0  0  0  0
   15.2724   -9.8139   12.2921 N   0  0  0  0  0  0  0  0  0  0  0  0
   15.4740  -10.0087   13.5860 N   0  0  0  0  0  0  0  0  0  0  0  0
   16.6935   -9.8344   10.2529 C   0  0  0  0  0  0  0  0  0  0  0  0
   15.9693  -10.4766    9.3061 N   0  0  0  0  0  0  0  0  0  0  0  0
   16.4277  -10.1353    8.1042 N   0  0  0  0  0  0  0  0  0  0  0  0
   17.4438   -9.2756    8.2935 C   0  0  0  0  0  0  0  0  0  0  0  0
   17.6425   -9.0604    9.6274 C   0  0  0  0  0  0  0  0  0  0  0  0
   18.6359   -8.2086   10.1054 C   0  0  0  0  0  0  0  0  0  0  0  0
   19.4438   -7.5645    9.1497 C   0  0  0  0  0  0  0  0  0  0  0  0
   19.2400   -7.7858    7.7683 C   0  0  0  0  0  0  0  0  0  0  0  0
   18.2252   -8.6543    7.3229 C   0  0  0  0  0  0  0  0  0  0  0  0
   15.2239  -11.0960    9.4789 H   0  0  0  0  0  0  0  0  0  0  0  0
   17.5808  -10.6098   15.2910 S   0  0  0  0  0  0  0  0  0  0  0  0
   17.8607   -8.8460   15.6433 C   0  0  0  0  0  0  0  0  0  0  0  0
   16.6492   -8.2341   16.2578 C   0  0  0  0  0  0  0  0  0  0  0  0
   15.8727   -7.5531   15.5371 O   0  0  0  0  0  0  0  0  0  0  0  0
   16.3952   -8.4189   17.6568 N   0  0  0  0  0  0  0  0  0  0  0  0
   17.0684   -8.9270   18.1646 H   0  0  0  0  0  0  0  0  0  0  0  0
   15.2614   -7.9397   18.3923 C   0  0  0  0  0  0  0  0  0  0  0  0
   14.0597   -7.5872   17.7585 C   0  0  0  0  0  0  0  0  0  0  0  0
   12.9731   -7.1285   18.5086 C   0  0  0  0  0  0  0  0  0  0  0  0
   13.0796   -7.0201   19.8977 C   0  0  0  0  0  0  0  0  0  0  0  0
   14.2726   -7.3708   20.5356 C   0  0  0  0  0  0  0  0  0  0  0  0
   15.3588   -7.8295   19.7839 C   0  0  0  0  0  0  0  0  0  0  0  0
   11.7051   -6.7569   17.8289 C   0  0  0  0  0  0  0  0  0  0  0  0
 16  1  1  0  0  0
  1  2  1  0  0  0
  2  3  1  0  0  0
  3  4  2  0  0  0
  4  5  1  0  0  0
  3  6  1  0  0  0
  6  7  1  0  0  0
  7  8  1  0  0  0
  8  9  2  0  0  0
  9 10  1  0  0  0
 10 11  1  0  0  0
 11 12  2  0  0  0
 12 13  1  0  0  0
 13 14  2  0  0  0
 16 17  1  0  0  0
 17 18  1  0  0  0
 18 19  2  0  0  0
 18 20  1  0  0  0
 20 22  1  0  0  0
 22 23  2  0  0  0
 23 24  1  0  0  0
 24 25  2  0  0  0
 25 26  1  0  0  0
 26 27  2  0  0  0
 24 28  1  0  0  0
  5  1  2  0  0  0
 10  6  2  0  0  0
 27 22  1  0  0  0
 14  9  1  0  0  0
  7 15  1  0  0  0
 20 21  1  0  0  0
M  END
>  <minimizedAffinity>
-10.21964

>  <minimizedRMSD>
0.96665

$$$$
CHEMBL3685257 PubChem-66763877


 38 41  0  0  0  0  0  0  0  0999 V2000
   17.0346  -10.1923   16.4314 C   0  0  0  0  0  0  0  0  0  0  0  0
   17.4887  -11.4781   16.7465 C   0  0  0  0  0  0  0  0  0  0  0  0
   18.2311  -12.2145   15.8182 C   0  0  0  0  0  0  0  0  0  0  0  0
   18.5271  -11.6663   14.5673 C   0  0  0  0  0  0  0  0  0  0  0  0
   18.0853  -10.3790   14.2466 C   0  0  0  0  0  0  0  0  0  0  0  0
   17.3361   -9.6475   15.1737 C   0  0  0  0  0  0  0  0  0  0  0  0
   15.5133   -8.2711   17.1958 C   0  0  0  0  0  0  0  0  0  0  0  0
   15.4364   -7.7561   16.0472 O   0  0  0  0  0  0  0  0  0  0  0  0
   16.2758   -9.4691   17.4101 N   0  0  0  0  0  0  0  0  0  0  0  0
   16.2778   -9.8322   18.3252 H   0  0  0  0  0  0  0  0  0  0  0  0
   13.4747   -6.4237   20.4938 C   0  0  0  0  0  0  0  0  0  0  0  0
   14.7370   -7.0364   20.6943 C   0  0  0  0  0  0  0  0  0  0  0  0
   15.3879   -7.6370   19.6033 C   0  0  0  0  0  0  0  0  0  0  0  0
   14.8128   -7.6396   18.3279 C   0  0  0  0  0  0  0  0  0  0  0  0
   13.5666   -7.0327   18.1416 C   0  0  0  0  0  0  0  0  0  0  0  0
   12.9077   -6.4324   19.2147 C   0  0  0  0  0  0  0  0  0  0  0  0
   12.8598   -4.4299   21.8759 C   0  0  0  0  0  0  0  0  0  0  0  0
   12.7407   -5.7975   21.5122 O   0  0  0  0  0  0  0  0  0  0  0  0
   15.3333   -7.0466   21.9606 O   0  0  0  0  0  0  0  0  0  0  0  0
   16.6125   -6.4824   22.2191 C   0  0  0  0  0  0  0  0  0  0  0  0
   18.3819   -9.8019   12.9083 C   0  0  0  0  0  0  0  0  0  0  0  0
   17.1587   -9.7241   12.1239 N   0  0  0  0  0  0  0  0  0  0  0  0
   16.3126   -9.7182   12.6272 H   0  0  0  0  0  0  0  0  0  0  0  0
   17.0552   -9.6549   10.6914 C   0  0  0  0  0  0  0  0  0  0  0  0
   15.9824  -10.2562   10.1142 N   0  0  0  0  0  0  0  0  0  0  0  0
   15.7914  -10.2481    8.7723 C   0  0  0  0  0  0  0  0  0  0  0  0
   16.6833   -9.6294    7.9615 N   0  0  0  0  0  0  0  0  0  0  0  0
   17.7833   -9.0050    8.4601 C   0  0  0  0  0  0  0  0  0  0  0  0
   18.0012   -9.0023    9.8623 C   0  0  0  0  0  0  0  0  0  0  0  0
   19.1355   -8.3613   10.3743 C   0  0  0  0  0  0  0  0  0  0  0  0
   20.0424   -7.7305    9.5271 C   0  0  0  0  0  0  0  0  0  0  0  0
   19.8273   -7.7324    8.1509 C   0  0  0  0  0  0  0  0  0  0  0  0
   18.7055   -8.3627    7.5954 C   0  0  0  0  0  0  0  0  0  0  0  0
   18.5428   -8.3249    6.1197 C   0  0  0  0  0  0  0  0  0  0  0  0
   17.5625   -8.8813    5.5579 O   0  0  0  0  0  0  0  0  0  0  0  0
   19.5039   -7.6503    5.3110 N   0  0  0  0  0  0  0  0  0  0  0  0
   20.2774   -7.2090    5.7306 H   0  0  0  0  0  0  0  0  0  0  0  0
   19.3939   -7.6258    4.3329 H   0  0  0  0  0  0  0  0  0  0  0  0
 17 18  1  0  0  0
 18 11  1  0  0  0
 11 12  2  0  0  0
 12 13  1  0  0  0
 12 19  1  0  0  0
 13 14  2  0  0  0
 14 15  1  0  0  0
 14  7  1  0  0  0
 15 16  2  0  0  0
 16 11  1  0  0  0
  7  8  2  0  0  0
  7  9  1  0  0  0
  9  1  1  0  0  0
  1  2  2  0  0  0
  2  3  1  0  0  0
  3  4  2  0  0  0
  4  5  1  0  0  0
  5  6  2  0  0  0
  5 21  1  0  0  0
  6  1  1  0  0  0
 21 22  1  0  0  0
 22 24  1  0  0  0
 24 25  2  0  0  0
 25 26  1  0  0  0
 26 27  2  0  0  0
 27 28  1  0  0  0
 28 29  2  0  0  0
 29 30  1  0  0  0
 29 24  1  0  0  0
 30 31  2  0  0  0
 31 32  1  0  0  0
 32 33  2  0  0  0
 33 34  1  0  0  0
 33 28  1  0  0  0
 34 35  2  0  0  0
 34 36  1  0  0  0
 19 20  1  0  0  0
  9 10  1  0  0  0
 22 23  1  0  0  0
 36 37  1  0  0  0
 36 38  1  0  0  0
M  END
>  <minimizedAffinity>
-9.36756

>  <minimizedRMSD>
0.97524

$$$$
CHEMBL3809960 PubChem-76900623


 37 41  0  0  0  0  0  0  0  0999 V2000
   18.9195  -12.1612   13.6051 C   0  0  0  0  0  0  0  0  0  0  0  0
   18.2055  -11.3681   14.6470 C   0  0  0  0  0  0  0  0  0  0  0  0
   17.7672  -10.0536   14.4003 C   0  0  0  0  0  0  0  0  0  0  0  0
   17.0914   -9.3504   15.4032 C   0  0  0  0  0  0  0  0  0  0  0  0
   16.8568   -9.9371   16.6551 C   0  0  0  0  0  0  0  0  0  0  0  0
   17.3056  -11.2394   16.8944 C   0  0  0  0  0  0  0  0  0  0  0  0
   17.9746  -11.9520   15.8959 C   0  0  0  0  0  0  0  0  0  0  0  0
   16.1735   -9.2388   17.7049 N   0  0  0  0  0  0  0  0  0  0  0  0
   15.3146   -8.0967   17.5621 C   0  0  0  0  0  0  0  0  0  0  0  0
   15.0678   -7.6178   16.4217 O   0  0  0  0  0  0  0  0  0  0  0  0
   16.3072   -9.5780   18.6194 H   0  0  0  0  0  0  0  0  0  0  0  0
   14.7136   -7.4806   18.7581 C   0  0  0  0  0  0  0  0  0  0  0  0
   13.4784   -6.8038   18.6637 C   0  0  0  0  0  0  0  0  0  0  0  0
   12.9554   -6.2388   19.8236 C   0  0  0  0  0  0  0  0  0  0  0  0
   13.5946   -6.3218   21.0173 C   0  0  0  0  0  0  0  0  0  0  0  0
   14.8133   -6.9785   21.1592 C   0  0  0  0  0  0  0  0  0  0  0  0
   15.3730   -7.5632   20.0089 C   0  0  0  0  0  0  0  0  0  0  0  0
   12.8504   -5.6747   21.9833 O   0  0  0  0  0  0  0  0  0  0  0  0
   11.6691   -5.1526   21.3584 C   0  0  0  0  0  0  0  0  0  0  0  0
   11.7777   -5.5357   19.9803 O   0  0  0  0  0  0  0  0  0  0  0  0
   17.9788   -9.3949   13.0776 C   0  0  0  0  0  0  0  0  0  0  0  0
   16.9718   -9.8528   12.1323 N   0  0  0  0  0  0  0  0  0  0  0  0
   16.1801  -10.3248   12.4784 H   0  0  0  0  0  0  0  0  0  0  0  0
   17.0836   -9.6462   10.7227 C   0  0  0  0  0  0  0  0  0  0  0  0
   16.1398  -10.2454    9.8592 C   0  0  0  0  0  0  0  0  0  0  0  0
   16.2197  -10.0669    8.5064 N   0  0  0  0  0  0  0  0  0  0  0  0
   17.2200   -9.3035    8.0006 C   0  0  0  0  0  0  0  0  0  0  0  0
   18.1506   -8.7072    8.7978 C   0  0  0  0  0  0  0  0  0  0  0  0
   18.1174   -8.8555   10.1790 C   0  0  0  0  0  0  0  0  0  0  0  0
   19.0212   -8.0083    7.9960 C   0  0  0  0  0  0  0  0  0  0  0  0
   18.5254   -8.2478    6.7107 C   0  0  0  0  0  0  0  0  0  0  0  0
   17.4231   -9.0395    6.7029 N   0  0  0  0  0  0  0  0  0  0  0  0
   16.8981   -9.3464    5.9287 H   0  0  0  0  0  0  0  0  0  0  0  0
   19.1247   -7.7051    5.4868 C   0  0  0  0  0  0  0  0  0  0  0  0
   18.8337   -8.2123    4.3691 O   0  0  0  0  0  0  0  0  0  0  0  0
   20.0137   -6.6313    5.5686 O   0  0  0  0  0  0  0  0  0  0  0  0
   20.9070   -6.3155    4.5115 C   0  0  0  0  0  0  0  0  0  0  0  0
  1  2  1  0  0  0
  2  3  2  0  0  0
  3  4  1  0  0  0
  3 21  1  0  0  0
  4  5  2  0  0  0
  5  6  1  0  0  0
  5  8  1  0  0  0
  6  7  2  0  0  0
  7  2  1  0  0  0
  8  9  1  0  0  0
  9 10  2  0  0  0
  9 12  1  0  0  0
 12 13  2  0  0  0
 13 14  1  0  0  0
 14 15  2  0  0  0
 15 16  1  0  0  0
 15 18  1  0  0  0
 16 17  2  0  0  0
 17 12  1  0  0  0
 18 19  1  0  0  0
 19 20  1  0  0  0
 20 14  1  0  0  0
 21 22  1  0  0  0
 22 24  1  0  0  0
 24 25  2  0  0  0
 25 26  1  0  0  0
 26 27  2  0  0  0
 27 28  1  0  0  0
 28 29  2  0  0  0
 28 30  1  0  0  0
 29 24  1  0  0  0
 30 31  2  0  0  0
 31 32  1  0  0  0
 31 34  1  0  0  0
 32 27  1  0  0  0
 34 35  2  0  0  0
 34 36  1  0  0  0
 36 37  1  0  0  0
  8 11  1  0  0  0
 22 23  1  0  0  0
 32 33  1  0  0  0
M  END
>  <minimizedAffinity>
-11.54934

>  <minimizedRMSD>
0.97725

$$$$
CHEMBL379076 PubChem-44414195


 33 36  0  0  0  0  0  0  0  0999 V2000
   16.2026  -10.2050   11.6268 C   0  0  0  0  0  0  0  0  0  0  0  0
   17.3950  -10.2694   12.2798 N   0  0  0  0  0  0  0  0  0  0  0  0
   17.1109   -9.7381   13.4837 C   0  0  0  0  0  0  0  0  0  0  0  0
   15.7997   -9.3701   13.5481 C   0  0  0  0  0  0  0  0  0  0  0  0
   15.2122   -9.6593   12.3806 N   0  0  0  0  0  0  0  0  0  0  0  0
   13.8197   -9.4396   12.0179 C   0  0  0  0  0  0  0  0  0  0  0  0
   15.2434   -8.7921   14.6876 C   0  0  0  0  0  0  0  0  0  0  0  0
   16.0900   -8.5915   15.7993 C   0  0  0  0  0  0  0  0  0  0  0  0
   17.4522   -8.9766   15.7245 C   0  0  0  0  0  0  0  0  0  0  0  0
   17.9786   -9.5580   14.5562 C   0  0  0  0  0  0  0  0  0  0  0  0
   15.5602   -7.9852   17.0330 C   0  0  0  0  0  0  0  0  0  0  0  0
   14.5400   -7.2444   16.9844 O   0  0  0  0  0  0  0  0  0  0  0  0
   16.2044   -8.2335   18.2870 N   0  0  0  0  0  0  0  0  0  0  0  0
   17.0133   -8.7945   18.2986 H   0  0  0  0  0  0  0  0  0  0  0  0
   15.7136   -7.6911   19.5465 C   0  0  0  0  0  0  0  0  0  0  0  0
   14.2074   -7.8626   19.6486 C   0  0  0  0  0  0  0  0  0  0  0  0
   13.5885   -6.6128   19.6822 O   0  0  0  0  0  0  0  0  0  0  0  0
   13.9043   -6.1163   20.4533 H   0  0  0  0  0  0  0  0  0  0  0  0
   16.0235  -10.6830   10.2127 C   0  0  0  0  0  0  0  0  0  0  0  0
   14.6785  -10.6602    9.8860 F   0  0  0  0  0  0  0  0  0  0  0  0
   16.4793  -11.9850   10.0953 F   0  0  0  0  0  0  0  0  0  0  0  0
   19.6948   -7.4397    6.8765 C   0  0  0  0  0  0  0  0  0  0  0  0
   18.4902   -6.9245    6.3466 C   0  0  0  0  0  0  0  0  0  0  0  0
   17.2498   -7.3929    6.8158 C   0  0  0  0  0  0  0  0  0  0  0  0
   17.2598   -8.3708    7.8080 C   0  0  0  0  0  0  0  0  0  0  0  0
   18.4210   -8.8656    8.3175 C   0  0  0  0  0  0  0  0  0  0  0  0
   19.6687   -8.4269    7.8802 C   0  0  0  0  0  0  0  0  0  0  0  0
   18.1605   -9.7846    9.2572 N   0  0  0  0  0  0  0  0  0  0  0  0
   16.8007   -9.8116    9.2735 C   0  0  0  0  0  0  0  0  0  0  0  0
   16.2080   -8.9530    8.4008 N   0  0  0  0  0  0  0  0  0  0  0  0
   16.0874   -6.9060    6.3174 F   0  0  0  0  0  0  0  0  0  0  0  0
   20.8827   -6.9797    6.4165 F   0  0  0  0  0  0  0  0  0  0  0  0
   18.7938  -10.3082    9.7994 H   0  0  0  0  0  0  0  0  0  0  0  0
 22 23  2  0  0  0
 23 24  1  0  0  0
 24 25  2  0  0  0
 25 26  1  0  0  0
 26 27  2  0  0  0
 26 28  1  0  0  0
 28 29  1  0  0  0
 29 30  2  0  0  0
 29 19  1  0  0  0
 19  1  1  0  0  0
  1  2  2  0  0  0
  2  3  1  0  0  0
  3  4  2  0  0  0
  4  5  1  0  0  0
  5  6  1  0  0  0
  4  7  1  0  0  0
  7  8  2  0  0  0
  8  9  1  0  0  0
  9 10  2  0  0  0
  8 11  1  0  0  0
 11 12  2  0  0  0
 11 13  1  0  0  0
 13 15  1  0  0  0
 15 16  1  0  0  0
 16 17  1  0  0  0
 19 20  1  0  0  0
 19 21  1  0  0  0
 24 31  1  0  0  0
 22 32  1  0  0  0
 27 22  1  0  0  0
  5  1  1  0  0  0
 30 25  1  0  0  0
 10  3  1  0  0  0
 28 33  1  0  0  0
 13 14  1  0  0  0
 17 18  1  0  0  0
M  END
>  <minimizedAffinity>
-1.50062

>  <minimizedRMSD>
0.97876

$$$$
CHEMBL3780933


 32 34  0  0  0  0  0  0  0  0999 V2000
   16.7360   -9.5192   14.5042 C   0  0  0  0  0  0  0  0  0  0  0  0
   17.0490  -10.8646   14.7248 C   0  0  0  0  0  0  0  0  0  0  0  0
   17.3727  -11.3057   16.0115 C   0  0  0  0  0  0  0  0  0  0  0  0
   17.3900  -10.4006   17.0771 C   0  0  0  0  0  0  0  0  0  0  0  0
   17.0885   -9.0519   16.8561 C   0  0  0  0  0  0  0  0  0  0  0  0
   16.7623   -8.6124   15.5688 C   0  0  0  0  0  0  0  0  0  0  0  0
   16.4159   -9.0451   13.1317 C   0  0  0  0  0  0  0  0  0  0  0  0
   17.4563   -9.4216   12.2418 O   0  0  0  0  0  0  0  0  0  0  0  0
   17.9076   -8.8738    8.6624 C   0  0  0  0  0  0  0  0  0  0  0  0
   18.8319   -8.1599    8.0093 N   0  0  0  0  0  0  0  0  0  0  0  0
   19.5929   -7.6670    9.0257 C   0  0  0  0  0  0  0  0  0  0  0  0
   19.1749   -8.0476   10.2652 N   0  0  0  0  0  0  0  0  0  0  0  0
   18.1074   -8.8094    9.9934 C   0  0  0  0  0  0  0  0  0  0  0  0
   17.2596   -9.4808   10.8620 C   0  0  0  0  0  0  0  0  0  0  0  0
   16.2310  -10.1973   10.3131 N   0  0  0  0  0  0  0  0  0  0  0  0
   16.0445  -10.2502    8.9547 C   0  0  0  0  0  0  0  0  0  0  0  0
   16.8911   -9.5815    8.1138 N   0  0  0  0  0  0  0  0  0  0  0  0
   14.9649  -11.0045    8.4183 N   0  0  0  0  0  0  0  0  0  0  0  0
   18.9356   -8.0249    7.0396 H   0  0  0  0  0  0  0  0  0  0  0  0
   14.3539  -11.4868    9.0211 H   0  0  0  0  0  0  0  0  0  0  0  0
   14.8284  -11.0444    7.4441 H   0  0  0  0  0  0  0  0  0  0  0  0
   17.0944   -8.0878   17.9935 C   0  0  0  0  0  0  0  0  0  0  0  0
   15.7958   -8.0739   18.6536 N   0  0  0  0  0  0  0  0  0  0  0  0
   14.5941   -7.6527   18.0002 C   0  0  0  0  0  0  0  0  0  0  0  0
   14.6498   -7.2150   16.8180 O   0  0  0  0  0  0  0  0  0  0  0  0
   13.3247   -7.7125   18.6806 N   0  0  0  0  0  0  0  0  0  0  0  0
   15.7424   -8.3674   19.5918 H   0  0  0  0  0  0  0  0  0  0  0  0
   13.1771   -8.2268   19.9822 N   0  0  0  0  0  0  0  0  0  0  0  0
   13.7042   -7.6873   20.9764 O   0  0  0  0  0  0  0  0  0  0  0  0
   12.1375   -7.1829   18.0254 C   0  0  0  0  0  0  0  0  0  0  0  0
   11.9261   -5.7367   18.4294 C   0  0  0  0  0  0  0  0  0  0  0  0
   10.6864   -5.6533   19.7004 Cl  0  0  0  0  0  0  0  0  0  0  0  0
  9 10  1  0  0  0
 10 11  1  0  0  0
 11 12  2  0  0  0
 12 13  1  0  0  0
 13 14  1  0  0  0
 14 15  2  0  0  0
 15 16  1  0  0  0
 16 17  2  0  0  0
 16 18  1  0  0  0
 14  8  1  0  0  0
  8  7  1  0  0  0
  7  1  1  0  0  0
  1  2  2  0  0  0
  2  3  1  0  0  0
  3  4  2  0  0  0
  4  5  1  0  0  0
  5  6  2  0  0  0
  5 22  1  0  0  0
 22 23  1  0  0  0
 23 24  1  0  0  0
 24 25  2  0  0  0
 24 26  1  0  0  0
 26 30  1  0  0  0
 30 31  1  0  0  0
 31 32  1  0  0  0
 26 28  1  0  0  0
 28 29  2  0  0  0
 13  9  2  0  0  0
  6  1  1  0  0  0
 17  9  1  0  0  0
 10 19  1  0  0  0
 18 20  1  0  0  0
 18 21  1  0  0  0
 23 27  1  0  0  0
M  END
>  <minimizedAffinity>
-3.91134

>  <minimizedRMSD>
0.98108

$$$$
CHEMBL1612891 ChemDiv-G357-1526 MCULE-4088120443 MolPort-007-847-567 PubChem-16027632 ZINC000008607660 ZINC08607660


 34 37  0  0  0  0  0  0  0  0999 V2000
   16.4266   -9.0429   16.9847 C   0  0  0  0  0  0  0  0  0  0  0  0
   17.1749  -10.2164   17.1215 C   0  0  0  0  0  0  0  0  0  0  0  0
   17.6069  -10.9161   15.9912 C   0  0  0  0  0  0  0  0  0  0  0  0
   17.2943  -10.4489   14.7069 C   0  0  0  0  0  0  0  0  0  0  0  0
   16.5443   -9.2740   14.5688 C   0  0  0  0  0  0  0  0  0  0  0  0
   16.1130   -8.5756   15.6997 C   0  0  0  0  0  0  0  0  0  0  0  0
   14.8481   -7.5112   18.3006 C   0  0  0  0  0  0  0  0  0  0  0  0
   14.0910   -7.2788   17.3215 O   0  0  0  0  0  0  0  0  0  0  0  0
   15.9990   -8.3555   18.1682 N   0  0  0  0  0  0  0  0  0  0  0  0
   16.5531   -8.4758   18.9731 H   0  0  0  0  0  0  0  0  0  0  0  0
   14.5358   -6.9030   19.6247 C   0  0  0  0  0  0  0  0  0  0  0  0
   13.4546   -7.5929   20.2439 O   0  0  0  0  0  0  0  0  0  0  0  0
    8.6763   -9.0857   17.5193 C   0  0  0  0  0  0  0  0  0  0  0  0
    9.9293   -8.7130   18.2372 C   0  0  0  0  0  0  0  0  0  0  0  0
   10.3255   -7.3725   18.2469 C   0  0  0  0  0  0  0  0  0  0  0  0
   11.4936   -6.9881   18.9094 C   0  0  0  0  0  0  0  0  0  0  0  0
   12.2798   -7.9447   19.5700 C   0  0  0  0  0  0  0  0  0  0  0  0
   11.8809   -9.2847   19.5611 C   0  0  0  0  0  0  0  0  0  0  0  0
   10.7125   -9.6763   18.8997 C   0  0  0  0  0  0  0  0  0  0  0  0
   10.3279  -11.1171   18.9166 C   0  0  0  0  0  0  0  0  0  0  0  0
   17.7456  -11.1814   13.5129 C   0  0  0  0  0  0  0  0  0  0  0  0
   18.2868  -12.3154   13.6338 O   0  0  0  0  0  0  0  0  0  0  0  0
   17.5712  -10.6162   12.2479 O   0  0  0  0  0  0  0  0  0  0  0  0
   18.2562   -9.4372   11.8508 C   0  0  0  0  0  0  0  0  0  0  0  0
   18.1480   -9.2715   10.3774 C   0  0  0  0  0  0  0  0  0  0  0  0
   17.1490   -9.9582    9.6692 C   0  0  0  0  0  0  0  0  0  0  0  0
   17.0495   -9.7631    8.2871 C   0  0  0  0  0  0  0  0  0  0  0  0
   16.1647  -10.3698    7.6258 O   0  0  0  0  0  0  0  0  0  0  0  0
   17.9187   -8.9108    7.6785 N   0  0  0  0  0  0  0  0  0  0  0  0
   17.9557   -8.6082    6.3526 C   0  0  0  0  0  0  0  0  0  0  0  0
   18.9550   -7.6932    6.0008 C   0  0  0  0  0  0  0  0  0  0  0  0
   19.7948   -7.2725    7.4134 S   0  0  0  0  0  0  0  0  0  0  0  0
   18.8624   -8.2595    8.3870 C   0  0  0  0  0  0  0  0  0  0  0  0
   18.9909   -8.4211    9.7267 N   0  0  0  0  0  0  0  0  0  0  0  0
 13 14  1  0  0  0
 14 15  2  0  0  0
 15 16  1  0  0  0
 16 17  2  0  0  0
 17 12  1  0  0  0
 17 18  1  0  0  0
 12 11  1  0  0  0
 11  7  1  0  0  0
  7  8  2  0  0  0
  7  9  1  0  0  0
  9  1  1  0  0  0
  1  2  2  0  0  0
  2  3  1  0  0  0
  3  4  2  0  0  0
  4  5  1  0  0  0
  4 21  1  0  0  0
  5  6  2  0  0  0
  6  1  1  0  0  0
 21 22  2  0  0  0
 21 23  1  0  0  0
 23 24  1  0  0  0
 24 25  1  0  0  0
 25 26  2  0  0  0
 26 27  1  0  0  0
 27 28  2  0  0  0
 27 29  1  0  0  0
 29 30  1  0  0  0
 30 31  2  0  0  0
 31 32  1  0  0  0
 32 33  1  0  0  0
 33 34  2  0  0  0
 33 29  1  0  0  0
 34 25  1  0  0  0
 18 19  2  0  0  0
 19 20  1  0  0  0
 19 14  1  0  0  0
  9 10  1  0  0  0
M  END
>  <minimizedAffinity>
-6.83546

>  <minimizedRMSD>
0.98195

$$$$
CHEMBL1552711 8619696 ChemDiv-G756-0141 MCULE-5731254575 MolPort-007-878-998 PubChem-16030544 ZINC000008619696 ZINC08619696


 32 35  0  0  0  0  0  0  0  0999 V2000
   16.7176   -9.4045   17.1613 C   0  0  0  0  0  0  0  0  0  0  0  0
   16.7687   -9.0860   15.7955 C   0  0  0  0  0  0  0  0  0  0  0  0
   17.3269   -9.9782   14.8748 C   0  0  0  0  0  0  0  0  0  0  0  0
   17.8396  -11.2042   15.3273 C   0  0  0  0  0  0  0  0  0  0  0  0
   17.7912  -11.5280   16.6853 C   0  0  0  0  0  0  0  0  0  0  0  0
   17.2315  -10.6301   17.5979 C   0  0  0  0  0  0  0  0  0  0  0  0
   15.0291   -7.6382   17.9347 C   0  0  0  0  0  0  0  0  0  0  0  0
   14.4299   -7.5783   16.8287 O   0  0  0  0  0  0  0  0  0  0  0  0
   16.1500   -8.5105   18.1283 N   0  0  0  0  0  0  0  0  0  0  0  0
   16.5739   -8.4942   19.0167 H   0  0  0  0  0  0  0  0  0  0  0  0
   14.5562   -6.7927   19.0671 C   0  0  0  0  0  0  0  0  0  0  0  0
   13.5225   -7.4595   19.7856 O   0  0  0  0  0  0  0  0  0  0  0  0
    8.8278   -9.3364   17.4778 F   0  0  0  0  0  0  0  0  0  0  0  0
    9.9715   -8.8718   18.0347 C   0  0  0  0  0  0  0  0  0  0  0  0
   10.4732   -7.6225   17.6599 C   0  0  0  0  0  0  0  0  0  0  0  0
   11.6532   -7.1424   18.2353 C   0  0  0  0  0  0  0  0  0  0  0  0
   12.3397   -7.9116   19.1896 C   0  0  0  0  0  0  0  0  0  0  0  0
   11.8294   -9.1603   19.5610 C   0  0  0  0  0  0  0  0  0  0  0  0
   10.6489   -9.6404   18.9856 C   0  0  0  0  0  0  0  0  0  0  0  0
   17.3599   -9.6231   13.5238 O   0  0  0  0  0  0  0  0  0  0  0  0
   18.3480  -10.1109   12.6258 C   0  0  0  0  0  0  0  0  0  0  0  0
   17.9987   -9.7137   11.2362 C   0  0  0  0  0  0  0  0  0  0  0  0
   16.7889  -10.1182   10.6798 C   0  0  0  0  0  0  0  0  0  0  0  0
   16.4740   -9.7080    9.3852 C   0  0  0  0  0  0  0  0  0  0  0  0
   15.3793  -10.0768    8.8774 O   0  0  0  0  0  0  0  0  0  0  0  0
   17.3441   -8.9160    8.6844 N   0  0  0  0  0  0  0  0  0  0  0  0
   17.0348   -8.5151    7.4150 C   0  0  0  0  0  0  0  0  0  0  0  0
   17.9095   -7.7055    6.6877 C   0  0  0  0  0  0  0  0  0  0  0  0
   19.1108   -7.3039    7.2685 C   0  0  0  0  0  0  0  0  0  0  0  0
   19.4258   -7.7129    8.5630 C   0  0  0  0  0  0  0  0  0  0  0  0
   18.5304   -8.5237    9.2646 C   0  0  0  0  0  0  0  0  0  0  0  0
   18.8398   -8.9210   10.5259 N   0  0  0  0  0  0  0  0  0  0  0  0
 13 14  1  0  0  0
 14 15  2  0  0  0
 15 16  1  0  0  0
 16 17  2  0  0  0
 17 12  1  0  0  0
 12 11  1  0  0  0
 11  7  1  0  0  0
  7  8  2  0  0  0
  7  9  1  0  0  0
  9  1  1  0  0  0
  1  2  2  0  0  0
  2  3  1  0  0  0
  3 20  1  0  0  0
 20 21  1  0  0  0
 21 22  1  0  0  0
 22 23  2  0  0  0
 23 24  1  0  0  0
 24 25  2  0  0  0
 24 26  1  0  0  0
 26 27  1  0  0  0
 27 28  2  0  0  0
 28 29  1  0  0  0
 29 30  2  0  0  0
 30 31  1  0  0  0
 31 32  2  0  0  0
  3  4  2  0  0  0
  4  5  1  0  0  0
  5  6  2  0  0  0
 17 18  1  0  0  0
 18 19  2  0  0  0
 19 14  1  0  0  0
  6  1  1  0  0  0
 32 22  1  0  0  0
 31 26  1  0  0  0
  9 10  1  0  0  0
M  END
>  <minimizedAffinity>
-8.22507

>  <minimizedRMSD>
0.98277

$$$$
CHEMBL5094623 PubChem-156898568


 37 41  0  0  0  0  0  0  0  0999 V2000
   16.7459   -8.5946   14.0086 C   0  0  0  0  0  0  0  0  0  0  0  0
   16.8231   -9.1736   12.6642 N   0  0  0  0  0  0  0  0  0  0  0  0
   15.8838   -9.8905   12.1292 C   0  0  0  0  0  0  0  0  0  0  0  0
   14.7020  -10.1789   12.8714 N   0  0  0  0  0  0  0  0  0  0  0  0
   14.5351   -9.7182   14.2130 C   0  0  0  0  0  0  0  0  0  0  0  0
   15.5023   -8.9795   14.8012 C   0  0  0  0  0  0  0  0  0  0  0  0
   13.2444  -10.0423   14.8902 C   0  0  0  0  0  0  0  0  0  0  0  0
   13.9854  -10.7067   12.4506 H   0  0  0  0  0  0  0  0  0  0  0  0
   18.4867  -11.1583   13.2787 Cl  0  0  0  0  0  0  0  0  0  0  0  0
   18.8662   -9.9521   14.4992 C   0  0  0  0  0  0  0  0  0  0  0  0
   18.0282   -8.8426   14.7541 C   0  0  0  0  0  0  0  0  0  0  0  0
   18.3993   -7.9143   15.7341 C   0  0  0  0  0  0  0  0  0  0  0  0
   19.5799   -8.0822   16.4609 C   0  0  0  0  0  0  0  0  0  0  0  0
   20.4028   -9.1816   16.2109 C   0  0  0  0  0  0  0  0  0  0  0  0
   20.0463  -10.1120   15.2324 C   0  0  0  0  0  0  0  0  0  0  0  0
   15.3600   -8.4342   16.1757 C   0  0  0  0  0  0  0  0  0  0  0  0
   15.9048   -7.3344   16.4657 O   0  0  0  0  0  0  0  0  0  0  0  0
   14.6570   -9.1651   17.1861 N   0  0  0  0  0  0  0  0  0  0  0  0
   14.3003  -10.0548   16.9613 H   0  0  0  0  0  0  0  0  0  0  0  0
   14.4462   -8.6502   18.5316 C   0  0  0  0  0  0  0  0  0  0  0  0
   13.2519   -7.7590   18.5607 C   0  0  0  0  0  0  0  0  0  0  0  0
   13.2612   -6.3894   18.7129 C   0  0  0  0  0  0  0  0  0  0  0  0
   11.9778   -6.0011   18.6337 N   0  0  0  0  0  0  0  0  0  0  0  0
   11.1784   -7.0356   18.4339 N   0  0  0  0  0  0  0  0  0  0  0  0
   11.9381   -8.1468   18.3787 C   0  0  0  0  0  0  0  0  0  0  0  0
   11.5121   -4.6316   18.7415 C   0  0  0  0  0  0  0  0  0  0  0  0
   16.0261  -10.4200   10.8072 N   0  0  0  0  0  0  0  0  0  0  0  0
   15.5844  -11.2774   10.6100 H   0  0  0  0  0  0  0  0  0  0  0  0
   16.7627   -9.7962    9.7506 C   0  0  0  0  0  0  0  0  0  0  0  0
   17.6784   -8.8602    9.9440 O   0  0  0  0  0  0  0  0  0  0  0  0
   18.1177   -8.5531    8.7546 C   0  0  0  0  0  0  0  0  0  0  0  0
   17.4589   -9.3130    7.8344 C   0  0  0  0  0  0  0  0  0  0  0  0
   16.5791  -10.1245    8.4452 N   0  0  0  0  0  0  0  0  0  0  0  0
   17.7167   -9.2071    6.4701 C   0  0  0  0  0  0  0  0  0  0  0  0
   18.6937   -8.2762    6.0680 C   0  0  0  0  0  0  0  0  0  0  0  0
   19.3752   -7.4895    7.0248 C   0  0  0  0  0  0  0  0  0  0  0  0
   19.0890   -7.6229    8.3966 C   0  0  0  0  0  0  0  0  0  0  0  0
  9 10  1  0  0  0
 10 11  2  0  0  0
 11  1  1  0  0  0
  1  2  1  0  0  0
  2  3  2  0  0  0
  3  4  1  0  0  0
  4  5  1  0  0  0
  5  6  2  0  0  0
  6 16  1  0  0  0
 16 17  2  0  0  0
 16 18  1  0  0  0
 18 20  1  0  0  0
 20 21  1  0  0  0
 21 22  2  0  0  0
 22 23  1  0  0  0
 23 24  1  0  0  0
 24 25  2  0  0  0
 23 26  1  0  0  0
  5  7  1  0  0  0
  3 27  1  0  0  0
 27 29  1  0  0  0
 29 30  1  0  0  0
 30 31  1  0  0  0
 31 32  2  0  0  0
 32 33  1  0  0  0
 32 34  1  0  0  0
 34 35  2  0  0  0
 35 36  1  0  0  0
 36 37  2  0  0  0
 11 12  1  0  0  0
 12 13  2  0  0  0
 13 14  1  0  0  0
 14 15  2  0  0  0
 15 10  1  0  0  0
  6  1  1  0  0  0
 25 21  1  0  0  0
 33 29  2  0  0  0
 37 31  1  0  0  0
  4  8  1  0  0  0
 18 19  1  0  0  0
 27 28  1  0  0  0
M  END
>  <minimizedAffinity>
2.10927

>  <minimizedRMSD>
0.98390

$$$$
CHEMBL3582390 PubChem-122179525


 30 33  0  0  0  0  0  0  0  0999 V2000
   17.0212   -9.7300   16.4724 C   0  0  0  0  0  0  0  0  0  0  0  0
   17.4676  -10.9913   16.8794 C   0  0  0  0  0  0  0  0  0  0  0  0
   17.9502  -11.9140   15.9515 C   0  0  0  0  0  0  0  0  0  0  0  0
   17.9933  -11.5867   14.5969 C   0  0  0  0  0  0  0  0  0  0  0  0
   18.4661  -12.4972   13.7089 F   0  0  0  0  0  0  0  0  0  0  0  0
   17.5505  -10.3282   14.1661 C   0  0  0  0  0  0  0  0  0  0  0  0
   17.0635   -9.3958   15.0990 C   0  0  0  0  0  0  0  0  0  0  0  0
   16.6413   -8.1872   14.6521 F   0  0  0  0  0  0  0  0  0  0  0  0
   16.5406   -8.8416   17.4925 N   0  0  0  0  0  0  0  0  0  0  0  0
   17.1889   -8.5837   18.1871 H   0  0  0  0  0  0  0  0  0  0  0  0
   13.9302   -9.2052   17.2471 O   0  0  0  0  0  0  0  0  0  0  0  0
   14.9477   -8.1708   17.6406 S   0  0  0  0  0  0  0  0  0  0  0  0
   14.8189   -6.9527   16.7699 O   0  0  0  0  0  0  0  0  0  0  0  0
   14.6758   -7.7075   19.3098 C   0  0  0  0  0  0  0  0  0  0  0  0
   15.7411   -7.2925   20.1126 C   0  0  0  0  0  0  0  0  0  0  0  0
   15.5095   -6.9184   21.4373 C   0  0  0  0  0  0  0  0  0  0  0  0
   14.2072   -6.9634   21.9405 C   0  0  0  0  0  0  0  0  0  0  0  0
   13.1811   -7.3671   21.1434 N   0  0  0  0  0  0  0  0  0  0  0  0
   13.3870   -7.7355   19.8501 C   0  0  0  0  0  0  0  0  0  0  0  0
   17.5958   -9.9925   12.7652 C   0  0  0  0  0  0  0  0  0  0  0  0
   17.6333   -9.7110   11.5934 C   0  0  0  0  0  0  0  0  0  0  0  0
   17.6778   -9.3756   10.1990 C   0  0  0  0  0  0  0  0  0  0  0  0
   16.7105   -9.8829    9.3094 C   0  0  0  0  0  0  0  0  0  0  0  0
   16.7543   -9.5623    7.9828 N   0  0  0  0  0  0  0  0  0  0  0  0
   17.7456   -8.7483    7.5440 C   0  0  0  0  0  0  0  0  0  0  0  0
   17.9685   -8.3070    6.2598 C   0  0  0  0  0  0  0  0  0  0  0  0
   19.1120   -7.5119    6.4147 C   0  0  0  0  0  0  0  0  0  0  0  0
   19.5141   -7.5024    7.7101 N   0  0  0  0  0  0  0  0  0  0  0  0
   18.6675   -8.2609    8.3747 N   0  0  0  0  0  0  0  0  0  0  0  0
   18.6839   -8.5376    9.7001 C   0  0  0  0  0  0  0  0  0  0  0  0
 11 12  2  0  0  0
 12 13  2  0  0  0
 12  9  1  0  0  0
  9  1  1  0  0  0
  1  2  2  0  0  0
  2  3  1  0  0  0
  3  4  2  0  0  0
  4  5  1  0  0  0
  4  6  1  0  0  0
  6 20  1  0  0  0
 20 21  3  0  0  0
 21 22  1  0  0  0
 22 23  1  0  0  0
 23 24  2  0  0  0
 24 25  1  0  0  0
 25 26  2  0  0  0
 26 27  1  0  0  0
 27 28  2  0  0  0
 28 29  1  0  0  0
 29 30  1  0  0  0
  6  7  2  0  0  0
  7  8  1  0  0  0
 12 14  1  0  0  0
 14 15  2  0  0  0
 15 16  1  0  0  0
 16 17  2  0  0  0
 17 18  1  0  0  0
 18 19  2  0  0  0
  7  1  1  0  0  0
 19 14  1  0  0  0
 30 22  2  0  0  0
 29 25  1  0  0  0
  9 10  1  0  0  0
M  END
>  <minimizedAffinity>
-8.74801

>  <minimizedRMSD>
0.98812

$$$$
CHEMBL1454084 8603797 ChemDiv-C679-5560 MCULE-1799933737 MolPort-007-656-133 PubChem-16009572 ZINC000008603797


 30 33  0  0  0  0  0  0  0  0999 V2000
   17.4618  -10.6351   14.1765 C   0  0  0  0  0  0  0  0  0  0  0  0
   18.2539  -11.7111   14.6068 C   0  0  0  0  0  0  0  0  0  0  0  0
   18.3185  -12.0381   15.9633 C   0  0  0  0  0  0  0  0  0  0  0  0
   17.5931  -11.2930   16.8966 C   0  0  0  0  0  0  0  0  0  0  0  0
   16.7997  -10.2183   16.4824 C   0  0  0  0  0  0  0  0  0  0  0  0
   16.7395   -9.8953   15.1181 C   0  0  0  0  0  0  0  0  0  0  0  0
   16.0705   -9.4782   17.4710 N   0  0  0  0  0  0  0  0  0  0  0  0
   15.4090   -8.2167   17.2890 C   0  0  0  0  0  0  0  0  0  0  0  0
   15.4284   -7.6371   16.1690 O   0  0  0  0  0  0  0  0  0  0  0  0
   16.0178   -9.8773   18.3694 H   0  0  0  0  0  0  0  0  0  0  0  0
   14.7011   -7.5938   18.4213 C   0  0  0  0  0  0  0  0  0  0  0  0
   13.4696   -6.9512   18.2231 C   0  0  0  0  0  0  0  0  0  0  0  0
   12.7991   -6.3605   19.2983 C   0  0  0  0  0  0  0  0  0  0  0  0
   13.3548   -6.4081   20.5796 C   0  0  0  0  0  0  0  0  0  0  0  0
   14.5808   -7.0462   20.7859 C   0  0  0  0  0  0  0  0  0  0  0  0
   15.1721   -7.0971   22.1481 C   0  0  0  0  0  0  0  0  0  0  0  0
   15.2513   -7.6367   19.7108 C   0  0  0  0  0  0  0  0  0  0  0  0
   17.3749  -10.2813   12.8277 O   0  0  0  0  0  0  0  0  0  0  0  0
   18.1627   -9.2470   12.2530 C   0  0  0  0  0  0  0  0  0  0  0  0
   17.6536   -9.2103    8.0646 N   0  0  0  0  0  0  0  0  0  0  0  0
   17.6399   -9.0755    6.7115 C   0  0  0  0  0  0  0  0  0  0  0  0
   18.6675   -8.2614    6.2403 C   0  0  0  0  0  0  0  0  0  0  0  0
   19.6053   -7.7016    7.5326 S   0  0  0  0  0  0  0  0  0  0  0  0
   18.6611   -8.5241    8.6494 C   0  0  0  0  0  0  0  0  0  0  0  0
   18.8421   -8.5312    9.9928 N   0  0  0  0  0  0  0  0  0  0  0  0
   17.9926   -9.2529   10.7762 C   0  0  0  0  0  0  0  0  0  0  0  0
   16.9320   -9.9685   10.1991 C   0  0  0  0  0  0  0  0  0  0  0  0
   16.7765   -9.9374    8.8091 C   0  0  0  0  0  0  0  0  0  0  0  0
   15.8351  -10.5744    8.2647 O   0  0  0  0  0  0  0  0  0  0  0  0
   18.9058   -7.9310    4.8114 C   0  0  0  0  0  0  0  0  0  0  0  0
 20 21  1  0  0  0
 21 22  2  0  0  0
 22 23  1  0  0  0
 23 24  1  0  0  0
 24 25  2  0  0  0
 25 26  1  0  0  0
 26 19  1  0  0  0
 19 18  1  0  0  0
 18  1  1  0  0  0
  1  2  2  0  0  0
  2  3  1  0  0  0
  3  4  2  0  0  0
  4  5  1  0  0  0
  5  6  2  0  0  0
  5  7  1  0  0  0
  7  8  1  0  0  0
  8  9  2  0  0  0
  8 11  1  0  0  0
 11 12  2  0  0  0
 12 13  1  0  0  0
 13 14  2  0  0  0
 14 15  1  0  0  0
 15 16  1  0  0  0
 15 17  2  0  0  0
 26 27  2  0  0  0
 27 28  1  0  0  0
 28 29  2  0  0  0
 22 30  1  0  0  0
 24 20  1  0  0  0
  6  1  1  0  0  0
 17 11  1  0  0  0
 28 20  1  0  0  0
  7 10  1  0  0  0
M  END
>  <minimizedAffinity>
-8.39149

>  <minimizedRMSD>
0.99403

$$$$
CHEMBL4905782 CSC026291997 MCULE-8017930840 MolPort-027-922-155 Z1518022590 ZINC000095440179


 27 31  0  0  0  0  0  0  0  0999 V2000
   17.0240   -9.5998   14.1314 C   0  0  0  0  0  0  0  0  0  0  0  0
   16.2215   -8.8826   15.0244 C   0  0  0  0  0  0  0  0  0  0  0  0
   16.3497   -9.0710   16.4075 C   0  0  0  0  0  0  0  0  0  0  0  0
   17.2924   -9.9877   16.8925 C   0  0  0  0  0  0  0  0  0  0  0  0
   18.0974  -10.7073   16.0054 C   0  0  0  0  0  0  0  0  0  0  0  0
   17.9642  -10.5144   14.6281 C   0  0  0  0  0  0  0  0  0  0  0  0
   15.5019   -8.3132   17.3410 C   0  0  0  0  0  0  0  0  0  0  0  0
   15.8230   -8.0863   18.6292 N   0  0  0  0  0  0  0  0  0  0  0  0
   14.8356   -7.3771   19.1469 N   0  0  0  0  0  0  0  0  0  0  0  0
   13.9352   -7.1980   18.1629 C   0  0  0  0  0  0  0  0  0  0  0  0
   14.3184   -7.7628   17.0007 N   0  0  0  0  0  0  0  0  0  0  0  0
   16.6357   -8.3899   19.0947 H   0  0  0  0  0  0  0  0  0  0  0  0
   12.6811   -6.4026   18.3231 C   0  0  0  0  0  0  0  0  0  0  0  0
   12.0989   -6.6331   19.7054 C   0  0  0  0  0  0  0  0  0  0  0  0
   11.4992   -7.3362   18.5089 C   0  0  0  0  0  0  0  0  0  0  0  0
   16.8694   -9.3842   12.7273 N   0  0  0  0  0  0  0  0  0  0  0  0
   16.0395   -8.9644   12.4045 H   0  0  0  0  0  0  0  0  0  0  0  0
   17.8838   -9.7577   11.7536 C   0  0  0  0  0  0  0  0  0  0  0  0
   17.3316   -9.6155   10.3767 C   0  0  0  0  0  0  0  0  0  0  0  0
   17.8528   -8.8531    9.4069 N   0  0  0  0  0  0  0  0  0  0  0  0
   17.0172   -8.9724    8.3688 C   0  0  0  0  0  0  0  0  0  0  0  0
   17.2733   -8.2940    7.1820 C   0  0  0  0  0  0  0  0  0  0  0  0
   18.3936   -7.5155    7.1247 N   0  0  0  0  0  0  0  0  0  0  0  0
   19.2443   -7.3949    8.1903 C   0  0  0  0  0  0  0  0  0  0  0  0
   18.9705   -8.0858    9.3800 C   0  0  0  0  0  0  0  0  0  0  0  0
   15.9648   -9.7753    8.6210 N   0  0  0  0  0  0  0  0  0  0  0  0
   16.1576  -10.1828    9.9025 C   0  0  0  0  0  0  0  0  0  0  0  0
 18 19  1  0  0  0
 19 20  1  0  0  0
 20 21  1  0  0  0
 21 22  1  0  0  0
 22 23  2  0  0  0
 23 24  1  0  0  0
 24 25  2  0  0  0
 21 26  2  0  0  0
 26 27  1  0  0  0
 18 16  1  0  0  0
 16  1  1  0  0  0
  1  2  2  0  0  0
  2  3  1  0  0  0
  3  7  1  0  0  0
  7  8  1  0  0  0
  8  9  1  0  0  0
  9 10  2  0  0  0
 10 13  1  0  0  0
 13 14  1  0  0  0
 14 15  1  0  0  0
 10 11  1  0  0  0
  3  4  2  0  0  0
  4  5  1  0  0  0
  5  6  2  0  0  0
 27 19  2  0  0  0
  6  1  1  0  0  0
 25 20  1  0  0  0
 11  7  2  0  0  0
 15 13  1  0  0  0
 16 17  1  0  0  0
  8 12  1  0  0  0
M  END
>  <minimizedAffinity>
-9.39552

>  <minimizedRMSD>
0.99858

$$$$
CHEMBL3670479 PubChem-66762173


 38 41  0  0  0  0  0  0  0  0999 V2000
   17.2236  -10.3206   12.1708 N   0  0  0  0  0  0  0  0  0  0  0  0
   16.5960  -10.9905   12.5266 H   0  0  0  0  0  0  0  0  0  0  0  0
   20.2026   -8.2799    9.7260 C   0  0  0  0  0  0  0  0  0  0  0  0
   19.8635   -7.9168    8.4181 C   0  0  0  0  0  0  0  0  0  0  0  0
   18.5972   -8.1968    7.8868 C   0  0  0  0  0  0  0  0  0  0  0  0
   17.6479   -8.8627    8.7030 C   0  0  0  0  0  0  0  0  0  0  0  0
   17.9842   -9.2300   10.0313 C   0  0  0  0  0  0  0  0  0  0  0  0
   19.2612   -8.9298   10.5196 C   0  0  0  0  0  0  0  0  0  0  0  0
   17.0074   -9.8940   10.8147 C   0  0  0  0  0  0  0  0  0  0  0  0
   15.7935  -10.1563   10.2647 N   0  0  0  0  0  0  0  0  0  0  0  0
   15.4905   -9.7981    8.9931 C   0  0  0  0  0  0  0  0  0  0  0  0
   16.4093   -9.1599    8.2286 N   0  0  0  0  0  0  0  0  0  0  0  0
   18.3243   -7.7767    6.4870 C   0  0  0  0  0  0  0  0  0  0  0  0
   18.2454   -6.5508    6.2047 O   0  0  0  0  0  0  0  0  0  0  0  0
   18.1447   -8.7280    5.4424 N   0  0  0  0  0  0  0  0  0  0  0  0
   18.2018   -9.6911    5.6385 H   0  0  0  0  0  0  0  0  0  0  0  0
   17.9634   -8.4225    4.5242 H   0  0  0  0  0  0  0  0  0  0  0  0
   21.4638   -7.9996   10.2638 O   0  0  0  0  0  0  0  0  0  0  0  0
   23.8542   -8.1146   10.5956 C   0  0  0  0  0  0  0  0  0  0  0  0
   22.6797   -8.4983    9.7140 C   0  0  0  0  0  0  0  0  0  0  0  0
   18.2714   -9.8672   13.0734 C   0  0  0  0  0  0  0  0  0  0  0  0
   18.0115  -10.3824   14.4443 C   0  0  0  0  0  0  0  0  0  0  0  0
   17.2648   -9.6213   15.3493 C   0  0  0  0  0  0  0  0  0  0  0  0
   16.9962  -10.1109   16.6369 C   0  0  0  0  0  0  0  0  0  0  0  0
   17.4768  -11.3731   17.0030 C   0  0  0  0  0  0  0  0  0  0  0  0
   18.2174  -12.1386   16.0974 C   0  0  0  0  0  0  0  0  0  0  0  0
   18.4825  -11.6447   14.8175 C   0  0  0  0  0  0  0  0  0  0  0  0
   16.2324   -9.3607   17.5906 N   0  0  0  0  0  0  0  0  0  0  0  0
   15.4276   -8.2005   17.3289 C   0  0  0  0  0  0  0  0  0  0  0  0
   15.3722   -7.7062   16.1702 O   0  0  0  0  0  0  0  0  0  0  0  0
   16.2628   -9.6742   18.5234 H   0  0  0  0  0  0  0  0  0  0  0  0
   14.6626   -7.5808   18.4254 C   0  0  0  0  0  0  0  0  0  0  0  0
   15.1714   -7.5818   19.7324 C   0  0  0  0  0  0  0  0  0  0  0  0
   14.4455   -6.9977   20.7743 C   0  0  0  0  0  0  0  0  0  0  0  0
   13.2047   -6.4083   20.5166 C   0  0  0  0  0  0  0  0  0  0  0  0
   12.6899   -6.4029   19.2175 C   0  0  0  0  0  0  0  0  0  0  0  0
   13.4163   -6.9870   18.1756 C   0  0  0  0  0  0  0  0  0  0  0  0
   12.5014   -5.8423   21.5263 F   0  0  0  0  0  0  0  0  0  0  0  0
 19 20  1  0  0  0
 20 18  1  0  0  0
 18  3  1  0  0  0
  3  4  2  0  0  0
  4  5  1  0  0  0
  5  6  2  0  0  0
  5 13  1  0  0  0
  6  7  1  0  0  0
  7  8  2  0  0  0
  7  9  1  0  0  0
  8  3  1  0  0  0
  9 10  2  0  0  0
  9  1  1  0  0  0
 10 11  1  0  0  0
 11 12  2  0  0  0
 12  6  1  0  0  0
  1 21  1  0  0  0
 21 22  1  0  0  0
 22 23  2  0  0  0
 23 24  1  0  0  0
 24 25  2  0  0  0
 24 28  1  0  0  0
 25 26  1  0  0  0
 26 27  2  0  0  0
 27 22  1  0  0  0
 28 29  1  0  0  0
 29 30  2  0  0  0
 29 32  1  0  0  0
 32 33  2  0  0  0
 33 34  1  0  0  0
 34 35  2  0  0  0
 35 36  1  0  0  0
 35 38  1  0  0  0
 36 37  2  0  0  0
 37 32  1  0  0  0
 13 14  2  0  0  0
 13 15  1  0  0  0
  1  2  1  0  0  0
 28 31  1  0  0  0
 15 16  1  0  0  0
 15 17  1  0  0  0
M  END
>  <minimizedAffinity>
-3.34927

>  <minimizedRMSD>
1.00063

$$$$
CHEMBL313108 PubChem-44318607


 33 36  0  0  0  0  0  0  0  0999 V2000
   17.1244   -8.0558   13.1236 C   0  0  0  0  0  0  0  0  0  0  0  0
   16.3814   -9.2504   12.7488 N   0  0  0  0  0  0  0  0  0  0  0  0
   15.6422   -9.4233   11.6405 C   0  0  0  0  0  0  0  0  0  0  0  0
   15.1173  -10.7038   11.5972 C   0  0  0  0  0  0  0  0  0  0  0  0
   15.5626  -11.3404   12.7494 C   0  0  0  0  0  0  0  0  0  0  0  0
   16.3277  -10.4086   13.4272 C   0  0  0  0  0  0  0  0  0  0  0  0
   15.4467   -8.3860   10.5810 C   0  0  0  0  0  0  0  0  0  0  0  0
   16.3252   -8.6631    9.4001 C   0  0  0  0  0  0  0  0  0  0  0  0
   15.9533   -9.6242    8.5147 N   0  0  0  0  0  0  0  0  0  0  0  0
   16.6901   -9.9354    7.4462 N   0  0  0  0  0  0  0  0  0  0  0  0
   16.2064  -10.9776    6.5559 C   0  0  0  0  0  0  0  0  0  0  0  0
   17.8712   -9.2966    7.1923 C   0  0  0  0  0  0  0  0  0  0  0  0
   18.5572   -9.6033    6.1764 O   0  0  0  0  0  0  0  0  0  0  0  0
   18.3159   -8.2981    8.0696 C   0  0  0  0  0  0  0  0  0  0  0  0
   19.5227   -7.6177    7.8460 C   0  0  0  0  0  0  0  0  0  0  0  0
   19.9473   -6.6250    8.7327 C   0  0  0  0  0  0  0  0  0  0  0  0
   19.1686   -6.3027    9.8468 C   0  0  0  0  0  0  0  0  0  0  0  0
   17.9636   -6.9720   10.0766 C   0  0  0  0  0  0  0  0  0  0  0  0
   17.5284   -7.9727    9.1944 C   0  0  0  0  0  0  0  0  0  0  0  0
   17.1649  -10.7176   14.9834 S   0  0  0  0  0  0  0  0  0  0  0  0
   15.6280  -10.6250   15.9554 C   0  0  0  0  0  0  0  0  0  0  0  0
   15.4891   -9.2876   16.5937 C   0  0  0  0  0  0  0  0  0  0  0  0
   15.2239   -8.2783   15.8872 O   0  0  0  0  0  0  0  0  0  0  0  0
   15.5947   -9.1731   18.0155 N   0  0  0  0  0  0  0  0  0  0  0  0
   15.6022  -10.0039   18.5437 H   0  0  0  0  0  0  0  0  0  0  0  0
   15.6904   -7.9314   18.7225 C   0  0  0  0  0  0  0  0  0  0  0  0
   14.8387   -7.7203   19.8121 C   0  0  0  0  0  0  0  0  0  0  0  0
   14.9009   -6.5303   20.5410 C   0  0  0  0  0  0  0  0  0  0  0  0
   15.8269   -5.5455   20.1908 C   0  0  0  0  0  0  0  0  0  0  0  0
   15.9104   -4.0563   21.1054 Cl  0  0  0  0  0  0  0  0  0  0  0  0
   16.7057   -5.7601   19.1268 C   0  0  0  0  0  0  0  0  0  0  0  0
   16.6490   -6.9479   18.3906 C   0  0  0  0  0  0  0  0  0  0  0  0
   17.8577   -7.1980   17.1396 Cl  0  0  0  0  0  0  0  0  0  0  0  0
  1  2  1  0  0  0
  2  3  1  0  0  0
  3  7  1  0  0  0
  3  4  2  0  0  0
  7  8  1  0  0  0
  8  9  2  0  0  0
  9 10  1  0  0  0
 10 11  1  0  0  0
 10 12  1  0  0  0
 12 13  2  0  0  0
 12 14  1  0  0  0
 14 15  2  0  0  0
 15 16  1  0  0  0
 16 17  2  0  0  0
 17 18  1  0  0  0
 18 19  2  0  0  0
 19  8  1  0  0  0
 19 14  1  0  0  0
  4  5  1  0  0  0
  5  6  2  0  0  0
  6 20  1  0  0  0
  6  2  1  0  0  0
 20 21  1  0  0  0
 21 22  1  0  0  0
 22 23  2  0  0  0
 22 24  1  0  0  0
 24 26  1  0  0  0
 26 27  2  0  0  0
 27 28  1  0  0  0
 28 29  2  0  0  0
 29 30  1  0  0  0
 29 31  1  0  0  0
 31 32  2  0  0  0
 32 33  1  0  0  0
 32 26  1  0  0  0
 24 25  1  0  0  0
M  END
>  <minimizedAffinity>
31.44400

>  <minimizedRMSD>
1.00556

$$$$
CHEMBL5074516 PubChem-156899048


 37 41  0  0  0  0  0  0  0  0999 V2000
   16.7527   -8.6043   13.9741 C   0  0  0  0  0  0  0  0  0  0  0  0
   16.8395   -9.1817   12.6296 N   0  0  0  0  0  0  0  0  0  0  0  0
   15.9040   -9.8979   12.0870 C   0  0  0  0  0  0  0  0  0  0  0  0
   14.7166  -10.1866   12.8201 N   0  0  0  0  0  0  0  0  0  0  0  0
   14.5390   -9.7256   14.1601 C   0  0  0  0  0  0  0  0  0  0  0  0
   15.5018   -8.9872   14.7560 C   0  0  0  0  0  0  0  0  0  0  0  0
   13.2426  -10.0488   14.8268 C   0  0  0  0  0  0  0  0  0  0  0  0
   14.0036  -10.7149   12.3938 H   0  0  0  0  0  0  0  0  0  0  0  0
   18.4891  -11.1758   13.2607 Cl  0  0  0  0  0  0  0  0  0  0  0  0
   18.8637   -9.9696   14.4828 C   0  0  0  0  0  0  0  0  0  0  0  0
   18.0281   -8.8564   14.7298 C   0  0  0  0  0  0  0  0  0  0  0  0
   18.3951   -7.9287   15.7118 C   0  0  0  0  0  0  0  0  0  0  0  0
   19.5692   -8.1006   16.4484 C   0  0  0  0  0  0  0  0  0  0  0  0
   20.3896   -9.2034   16.2059 C   0  0  0  0  0  0  0  0  0  0  0  0
   20.0373  -10.1335   15.2257 C   0  0  0  0  0  0  0  0  0  0  0  0
   15.3486   -8.4411   16.1290 C   0  0  0  0  0  0  0  0  0  0  0  0
   15.8814   -7.3355   16.4193 O   0  0  0  0  0  0  0  0  0  0  0  0
   14.6483   -9.1769   17.1377 N   0  0  0  0  0  0  0  0  0  0  0  0
   14.3000  -10.0698   16.9127 H   0  0  0  0  0  0  0  0  0  0  0  0
   14.4289   -8.6622   18.4818 C   0  0  0  0  0  0  0  0  0  0  0  0
   13.2297   -7.7774   18.5035 C   0  0  0  0  0  0  0  0  0  0  0  0
   11.9719   -8.2140   18.2907 N   0  0  0  0  0  0  0  0  0  0  0  0
   11.2186   -7.0979   18.3616 C   0  0  0  0  0  0  0  0  0  0  0  0
   11.9757   -6.0134   18.6030 N   0  0  0  0  0  0  0  0  0  0  0  0
   13.2530   -6.4129   18.6928 C   0  0  0  0  0  0  0  0  0  0  0  0
   11.4968   -4.6508   18.7351 C   0  0  0  0  0  0  0  0  0  0  0  0
   16.0562  -10.4265   10.7657 N   0  0  0  0  0  0  0  0  0  0  0  0
   15.6237  -11.2884   10.5674 H   0  0  0  0  0  0  0  0  0  0  0  0
   16.7899   -9.7959    9.7113 C   0  0  0  0  0  0  0  0  0  0  0  0
   17.6995   -8.8545    9.9075 O   0  0  0  0  0  0  0  0  0  0  0  0
   18.1381   -8.5421    8.7194 C   0  0  0  0  0  0  0  0  0  0  0  0
   17.4851   -9.3041    7.7968 C   0  0  0  0  0  0  0  0  0  0  0  0
   16.6098  -10.1224    8.4050 N   0  0  0  0  0  0  0  0  0  0  0  0
   17.7436   -9.1936    6.4331 C   0  0  0  0  0  0  0  0  0  0  0  0
   18.7151   -8.2557    6.0339 C   0  0  0  0  0  0  0  0  0  0  0  0
   19.3907   -7.4668    6.9932 C   0  0  0  0  0  0  0  0  0  0  0  0
   19.1041   -7.6051    8.3645 C   0  0  0  0  0  0  0  0  0  0  0  0
  9 10  1  0  0  0
 10 11  2  0  0  0
  1 11  1  0  0  0
  1  2  1  0  0  0
  2  3  2  0  0  0
  3  4  1  0  0  0
  4  5  1  0  0  0
  5  6  2  0  0  0
  6 16  1  0  0  0
 16 17  2  0  0  0
 16 18  1  0  0  0
 18 20  1  0  0  0
 20 21  1  0  0  0
 21 22  1  0  0  0
 22 23  2  0  0  0
 23 24  1  0  0  0
 24 25  1  0  0  0
 24 26  1  0  0  0
  5  7  1  0  0  0
  3 27  1  0  0  0
 27 29  1  0  0  0
 29 30  1  0  0  0
 30 31  1  0  0  0
 31 32  2  0  0  0
 32 33  1  0  0  0
 32 34  1  0  0  0
 34 35  2  0  0  0
 35 36  1  0  0  0
 36 37  2  0  0  0
 11 12  1  0  0  0
 12 13  2  0  0  0
 13 14  1  0  0  0
 14 15  2  0  0  0
 15 10  1  0  0  0
  6  1  1  0  0  0
 25 21  2  0  0  0
 33 29  2  0  0  0
 37 31  1  0  0  0
  4  8  1  0  0  0
 18 19  1  0  0  0
 27 28  1  0  0  0
M  END
>  <minimizedAffinity>
2.12231

>  <minimizedRMSD>
1.01243

$$$$
CHEMBL5092131 PubChem-156898966


 37 41  0  0  0  0  0  0  0  0999 V2000
   16.7532   -8.6052   13.9718 C   0  0  0  0  0  0  0  0  0  0  0  0
   16.8419   -9.1841   12.6280 N   0  0  0  0  0  0  0  0  0  0  0  0
   15.9062   -9.8986   12.0838 C   0  0  0  0  0  0  0  0  0  0  0  0
   14.7165  -10.1845   12.8145 N   0  0  0  0  0  0  0  0  0  0  0  0
   14.5379   -9.7237   14.1545 C   0  0  0  0  0  0  0  0  0  0  0  0
   15.5011   -8.9873   14.7521 C   0  0  0  0  0  0  0  0  0  0  0  0
   13.2399  -10.0450   14.8192 C   0  0  0  0  0  0  0  0  0  0  0  0
   14.0028  -10.7105   12.3866 H   0  0  0  0  0  0  0  0  0  0  0  0
   18.4920  -11.1758   13.2614 Cl  0  0  0  0  0  0  0  0  0  0  0  0
   18.8642   -9.9691   14.4838 C   0  0  0  0  0  0  0  0  0  0  0  0
   18.0277   -8.8565   14.7293 C   0  0  0  0  0  0  0  0  0  0  0  0
   18.3928   -7.9280   15.7115 C   0  0  0  0  0  0  0  0  0  0  0  0
   19.5660   -8.0990   16.4496 C   0  0  0  0  0  0  0  0  0  0  0  0
   20.3875   -9.2014   16.2087 C   0  0  0  0  0  0  0  0  0  0  0  0
   20.0369  -10.1320   15.2282 C   0  0  0  0  0  0  0  0  0  0  0  0
   15.3469   -8.4420   16.1254 C   0  0  0  0  0  0  0  0  0  0  0  0
   15.8802   -7.3369   16.4170 O   0  0  0  0  0  0  0  0  0  0  0  0
   14.6451   -9.1780   17.1329 N   0  0  0  0  0  0  0  0  0  0  0  0
   14.2952  -10.0699   16.9065 H   0  0  0  0  0  0  0  0  0  0  0  0
   14.4261   -8.6649   18.4777 C   0  0  0  0  0  0  0  0  0  0  0  0
   13.2276   -7.7792   18.5007 C   0  0  0  0  0  0  0  0  0  0  0  0
   11.9692   -8.2147   18.2892 N   0  0  0  0  0  0  0  0  0  0  0  0
   11.2169   -7.0979   18.3611 C   0  0  0  0  0  0  0  0  0  0  0  0
   11.9750   -6.0141   18.6022 N   0  0  0  0  0  0  0  0  0  0  0  0
   13.2521   -6.4147   18.6905 C   0  0  0  0  0  0  0  0  0  0  0  0
   11.4974   -4.6512   18.7351 C   0  0  0  0  0  0  0  0  0  0  0  0
   16.0599  -10.4281   10.7631 N   0  0  0  0  0  0  0  0  0  0  0  0
   15.6292  -11.2911   10.5653 H   0  0  0  0  0  0  0  0  0  0  0  0
   16.7928   -9.7969    9.7085 C   0  0  0  0  0  0  0  0  0  0  0  0
   17.7016   -8.8546    9.9046 O   0  0  0  0  0  0  0  0  0  0  0  0
   18.1397   -8.5420    8.7162 C   0  0  0  0  0  0  0  0  0  0  0  0
   17.4874   -9.3048    7.7938 C   0  0  0  0  0  0  0  0  0  0  0  0
   16.6129  -10.1238    8.4022 N   0  0  0  0  0  0  0  0  0  0  0  0
   17.7456   -9.1942    6.4300 C   0  0  0  0  0  0  0  0  0  0  0  0
   18.7161   -8.2554    6.0305 C   0  0  0  0  0  0  0  0  0  0  0  0
   19.3910   -7.4657    6.9897 C   0  0  0  0  0  0  0  0  0  0  0  0
   19.1047   -7.6040    8.3610 C   0  0  0  0  0  0  0  0  0  0  0  0
  9 10  1  0  0  0
 10 11  2  0  0  0
 11  1  1  0  0  0
  1  2  1  0  0  0
  2  3  2  0  0  0
  3  4  1  0  0  0
  4  5  1  0  0  0
  5  6  2  0  0  0
  6 16  1  0  0  0
 16 17  2  0  0  0
 16 18  1  0  0  0
 18 20  1  0  0  0
 20 21  1  0  0  0
 21 22  1  0  0  0
 22 23  2  0  0  0
 23 24  1  0  0  0
 24 25  1  0  0  0
 24 26  1  0  0  0
  5  7  1  0  0  0
  3 27  1  0  0  0
 27 29  1  0  0  0
 29 30  1  0  0  0
 30 31  1  0  0  0
 31 32  2  0  0  0
 32 33  1  0  0  0
 32 34  1  0  0  0
 34 35  2  0  0  0
 35 36  1  0  0  0
 36 37  2  0  0  0
 11 12  1  0  0  0
 12 13  2  0  0  0
 13 14  1  0  0  0
 14 15  2  0  0  0
 15 10  1  0  0  0
  6  1  1  0  0  0
 25 21  2  0  0  0
 33 29  2  0  0  0
 37 31  1  0  0  0
  4  8  1  0  0  0
 18 19  1  0  0  0
 27 28  1  0  0  0
M  END
>  <minimizedAffinity>
2.14503

>  <minimizedRMSD>
1.01825

$$$$
CHEMBL1169875 PubChem-46838615


 37 41  0  0  0  0  0  0  0  0999 V2000
   17.1726  -10.0421   14.0333 C   0  0  0  0  0  0  0  0  0  0  0  0
   17.8768  -11.0929   14.6515 C   0  0  0  0  0  0  0  0  0  0  0  0
   17.8476  -11.2207   16.0432 C   0  0  0  0  0  0  0  0  0  0  0  0
   17.1245  -10.3123   16.8198 C   0  0  0  0  0  0  0  0  0  0  0  0
   16.4208   -9.2636   16.2132 C   0  0  0  0  0  0  0  0  0  0  0  0
   16.4509   -9.1364   14.8174 C   0  0  0  0  0  0  0  0  0  0  0  0
   18.6614  -12.0842   13.8589 C   0  0  0  0  0  0  0  0  0  0  0  0
   15.6584   -8.3055   17.0332 C   0  0  0  0  0  0  0  0  0  0  0  0
   14.9947   -7.3919   16.4716 O   0  0  0  0  0  0  0  0  0  0  0  0
   15.6778   -8.4211   18.4646 N   0  0  0  0  0  0  0  0  0  0  0  0
   16.2135   -9.1573   18.8391 H   0  0  0  0  0  0  0  0  0  0  0  0
   14.9998   -7.5784   19.4066 C   0  0  0  0  0  0  0  0  0  0  0  0
   13.7569   -6.9990   19.1168 C   0  0  0  0  0  0  0  0  0  0  0  0
   13.1241   -6.1910   20.0685 C   0  0  0  0  0  0  0  0  0  0  0  0
   13.7639   -5.9470   21.2887 C   0  0  0  0  0  0  0  0  0  0  0  0
   15.0018   -6.5378   21.5459 C   0  0  0  0  0  0  0  0  0  0  0  0
   15.5852   -7.3338   20.6104 N   0  0  0  0  0  0  0  0  0  0  0  0
   11.8182   -5.5236   19.7486 C   0  0  0  0  0  0  0  0  0  0  0  0
   10.9805   -6.3981   19.0779 F   0  0  0  0  0  0  0  0  0  0  0  0
   12.0528   -4.4207   18.9488 F   0  0  0  0  0  0  0  0  0  0  0  0
   11.1881   -5.1135   20.9108 F   0  0  0  0  0  0  0  0  0  0  0  0
   17.1745   -9.8710   12.6031 C   0  0  0  0  0  0  0  0  0  0  0  0
   17.1772   -9.7277   11.4061 C   0  0  0  0  0  0  0  0  0  0  0  0
   17.1818   -9.5605   10.0150 N   0  0  0  0  0  0  0  0  0  0  0  0
   16.3107  -10.0933    9.1233 C   0  0  0  0  0  0  0  0  0  0  0  0
   16.5980   -9.7323    7.8396 N   0  0  0  0  0  0  0  0  0  0  0  0
   17.6872   -8.9514    7.9752 C   0  0  0  0  0  0  0  0  0  0  0  0
   18.0356   -8.8491    9.2757 C   0  0  0  0  0  0  0  0  0  0  0  0
   19.0979   -8.1209    9.6975 N   0  0  0  0  0  0  0  0  0  0  0  0
   19.8379   -7.4677    8.7506 C   0  0  0  0  0  0  0  0  0  0  0  0
   19.5045   -7.5556    7.4220 N   0  0  0  0  0  0  0  0  0  0  0  0
   18.4299   -8.2935    7.0052 C   0  0  0  0  0  0  0  0  0  0  0  0
   18.0814   -8.3847    5.6229 N   0  0  0  0  0  0  0  0  0  0  0  0
   17.1457   -8.2339    5.3563 H   0  0  0  0  0  0  0  0  0  0  0  0
   19.0642   -8.6929    4.5979 C   0  0  0  0  0  0  0  0  0  0  0  0
   18.5097   -8.3021    3.2443 C   0  0  0  0  0  0  0  0  0  0  0  0
   19.5159   -7.4075    3.9360 C   0  0  0  0  0  0  0  0  0  0  0  0
  1  2  2  0  0  0
  2  3  1  0  0  0
  3  4  2  0  0  0
  4  5  1  0  0  0
  5  6  2  0  0  0
  5  8  1  0  0  0
  8  9  2  0  0  0
  8 10  1  0  0  0
 10 12  1  0  0  0
 12 13  2  0  0  0
 13 14  1  0  0  0
 14 15  2  0  0  0
 15 16  1  0  0  0
 16 17  2  0  0  0
 14 18  1  0  0  0
 18 19  1  0  0  0
 18 20  1  0  0  0
 18 21  1  0  0  0
  2  7  1  0  0  0
  1 22  1  0  0  0
 22 23  3  0  0  0
 23 24  1  0  0  0
 24 25  1  0  0  0
 25 26  2  0  0  0
 26 27  1  0  0  0
 27 28  2  0  0  0
 28 29  1  0  0  0
 29 30  2  0  0  0
 30 31  1  0  0  0
 31 32  2  0  0  0
 32 33  1  0  0  0
 33 35  1  0  0  0
 35 36  1  0  0  0
 36 37  1  0  0  0
  6  1  1  0  0  0
 17 12  1  0  0  0
 28 24  1  0  0  0
 37 35  1  0  0  0
 32 27  1  0  0  0
 10 11  1  0  0  0
 33 34  1  0  0  0
M  END
>  <minimizedAffinity>
-12.04927

>  <minimizedRMSD>
1.02635

$$$$
CHEMBL4980140 CSC102905443 MCULE-2011494729 MolPort-046-472-878 PubChem-138008499 Z3077896856


 27 31  0  0  0  0  0  0  0  0999 V2000
   15.7671   -9.1080   13.7462 C   0  0  0  0  0  0  0  0  0  0  0  0
   16.7108   -8.1122   13.0674 C   0  0  0  0  0  0  0  0  0  0  0  0
   16.1689   -7.7342   11.6930 C   0  0  0  0  0  0  0  0  0  0  0  0
   15.9263   -8.9466   10.9143 N   0  0  0  0  0  0  0  0  0  0  0  0
   15.0373   -9.9464   11.5006 C   0  0  0  0  0  0  0  0  0  0  0  0
   15.5604  -10.3502   12.8758 C   0  0  0  0  0  0  0  0  0  0  0  0
   15.4125   -7.7815   16.3407 O   0  0  0  0  0  0  0  0  0  0  0  0
   16.0901   -8.8382   16.2372 C   0  0  0  0  0  0  0  0  0  0  0  0
   16.6953   -9.4292   17.3033 N   0  0  0  0  0  0  0  0  0  0  0  0
   17.2893  -10.4992   16.7403 C   0  0  0  0  0  0  0  0  0  0  0  0
   18.0606  -11.4790   17.3547 C   0  0  0  0  0  0  0  0  0  0  0  0
   18.5699  -12.5002   16.5306 C   0  0  0  0  0  0  0  0  0  0  0  0
   18.2886  -12.4968   15.1441 C   0  0  0  0  0  0  0  0  0  0  0  0
   17.5233  -11.5073   14.5914 N   0  0  0  0  0  0  0  0  0  0  0  0
   17.0423  -10.5325   15.4031 C   0  0  0  0  0  0  0  0  0  0  0  0
   16.2805   -9.4843   15.0601 N   0  0  0  0  0  0  0  0  0  0  0  0
   16.6982   -9.1466   18.2464 H   0  0  0  0  0  0  0  0  0  0  0  0
   16.5494   -9.1941    9.6380 C   0  0  0  0  0  0  0  0  0  0  0  0
   17.7269   -8.5560    9.2229 C   0  0  0  0  0  0  0  0  0  0  0  0
   18.5442   -7.6219    9.8212 C   0  0  0  0  0  0  0  0  0  0  0  0
   19.5557   -7.3987    8.8842 C   0  0  0  0  0  0  0  0  0  0  0  0
   19.3819   -8.1480    7.7676 N   0  0  0  0  0  0  0  0  0  0  0  0
   18.2608   -8.8412    8.0049 C   0  0  0  0  0  0  0  0  0  0  0  0
   17.6930   -9.7326    7.1584 N   0  0  0  0  0  0  0  0  0  0  0  0
   16.5471  -10.3610    7.5491 C   0  0  0  0  0  0  0  0  0  0  0  0
   15.9901  -10.0918    8.7700 N   0  0  0  0  0  0  0  0  0  0  0  0
   19.9508   -8.1761    6.9646 H   0  0  0  0  0  0  0  0  0  0  0  0
  7  8  2  0  0  0
  8  9  1  0  0  0
  9 10  1  0  0  0
 10 11  2  0  0  0
 11 12  1  0  0  0
 12 13  2  0  0  0
 13 14  1  0  0  0
 14 15  2  0  0  0
 15 16  1  0  0  0
 16  1  1  0  0  0
  1  2  1  0  0  0
  2  3  1  0  0  0
  3  4  1  0  0  0
  4  5  1  0  0  0
  5  6  1  0  0  0
  4 18  1  0  0  0
 18 19  2  0  0  0
 19 20  1  0  0  0
 20 21  2  0  0  0
 21 22  1  0  0  0
 22 23  1  0  0  0
 23 24  2  0  0  0
 24 25  1  0  0  0
 25 26  2  0  0  0
 16  8  1  0  0  0
  6  1  1  0  0  0
 26 18  1  0  0  0
 15 10  1  0  0  0
 23 19  1  0  0  0
  9 17  1  0  0  0
 22 27  1  0  0  0
M  END
>  <minimizedAffinity>
-0.12295

>  <minimizedRMSD>
1.03046

$$$$
CHEMBL1555199 8607126 ChemDiv-G357-2017 MCULE-9100510187 MolPort-007-847-740 PubChem-16027477 ZINC000008607126


 32 35  0  0  0  0  0  0  0  0999 V2000
   17.5064  -10.3470   15.0725 C   0  0  0  0  0  0  0  0  0  0  0  0
   16.6239   -9.2704   14.9188 C   0  0  0  0  0  0  0  0  0  0  0  0
   16.0765   -8.6415   16.0401 C   0  0  0  0  0  0  0  0  0  0  0  0
   16.4041   -9.0812   17.3311 C   0  0  0  0  0  0  0  0  0  0  0  0
   17.2867  -10.1548   17.4835 C   0  0  0  0  0  0  0  0  0  0  0  0
   17.8344  -10.7856   16.3628 C   0  0  0  0  0  0  0  0  0  0  0  0
   15.8674   -8.4574   18.5059 N   0  0  0  0  0  0  0  0  0  0  0  0
   14.6331   -7.7295   18.6107 C   0  0  0  0  0  0  0  0  0  0  0  0
   13.8683   -7.6365   17.6134 O   0  0  0  0  0  0  0  0  0  0  0  0
   16.4023   -8.5364   19.3287 H   0  0  0  0  0  0  0  0  0  0  0  0
   14.2715   -7.0944   19.9042 C   0  0  0  0  0  0  0  0  0  0  0  0
   12.9411   -6.7588   20.2692 C   0  0  0  0  0  0  0  0  0  0  0  0
   11.7672   -7.0220   19.3879 C   0  0  0  0  0  0  0  0  0  0  0  0
   12.6888   -6.1574   21.5070 C   0  0  0  0  0  0  0  0  0  0  0  0
   13.7332   -5.8825   22.3903 C   0  0  0  0  0  0  0  0  0  0  0  0
   15.0427   -6.2097   22.0417 C   0  0  0  0  0  0  0  0  0  0  0  0
   15.3068   -6.8106   20.8097 C   0  0  0  0  0  0  0  0  0  0  0  0
   18.0817  -11.0049   13.8884 C   0  0  0  0  0  0  0  0  0  0  0  0
   18.7394  -12.0748   14.0161 O   0  0  0  0  0  0  0  0  0  0  0  0
   17.8973  -10.4387   12.6251 O   0  0  0  0  0  0  0  0  0  0  0  0
   18.2647  -11.1208   11.4348 C   0  0  0  0  0  0  0  0  0  0  0  0
   19.4165   -6.1428    5.8185 C   0  0  0  0  0  0  0  0  0  0  0  0
   19.0757   -7.1247    6.8800 C   0  0  0  0  0  0  0  0  0  0  0  0
   17.7958   -7.6090    7.1386 C   0  0  0  0  0  0  0  0  0  0  0  0
   17.7672   -8.4960    8.1689 N   0  0  0  0  0  0  0  0  0  0  0  0
   18.9872   -8.7097    8.7104 C   0  0  0  0  0  0  0  0  0  0  0  0
   20.1867   -7.8132    7.9546 S   0  0  0  0  0  0  0  0  0  0  0  0
   19.1649   -9.5555    9.7547 N   0  0  0  0  0  0  0  0  0  0  0  0
   18.0894  -10.2150   10.2691 C   0  0  0  0  0  0  0  0  0  0  0  0
   16.8089  -10.0088    9.7327 C   0  0  0  0  0  0  0  0  0  0  0  0
   16.6643   -9.1279    8.6554 C   0  0  0  0  0  0  0  0  0  0  0  0
   15.5265   -8.9275    8.1522 O   0  0  0  0  0  0  0  0  0  0  0  0
 22 23  1  0  0  0
 23 24  2  0  0  0
 24 25  1  0  0  0
 25 26  1  0  0  0
 26 27  1  0  0  0
 26 28  2  0  0  0
 28 29  1  0  0  0
 29 21  1  0  0  0
 21 20  1  0  0  0
 20 18  1  0  0  0
 18 19  2  0  0  0
 18  1  1  0  0  0
  1  2  2  0  0  0
  2  3  1  0  0  0
  3  4  2  0  0  0
  4  7  1  0  0  0
  7  8  1  0  0  0
  8  9  2  0  0  0
  8 11  1  0  0  0
 11 12  2  0  0  0
 12 13  1  0  0  0
 12 14  1  0  0  0
 14 15  2  0  0  0
 15 16  1  0  0  0
 16 17  2  0  0  0
  4  5  1  0  0  0
  5  6  2  0  0  0
 29 30  2  0  0  0
 30 31  1  0  0  0
 31 32  2  0  0  0
 27 23  1  0  0  0
  6  1  1  0  0  0
 31 25  1  0  0  0
 17 11  1  0  0  0
  7 10  1  0  0  0
M  END
>  <minimizedAffinity>
-3.70121

>  <minimizedRMSD>
1.03293

$$$$
CHEMBL3680564 PubChem-66763818


 38 42  0  0  0  0  0  0  0  0999 V2000
   16.9404  -10.1198   16.5792 C   0  0  0  0  0  0  0  0  0  0  0  0
   17.4427  -11.3772   16.9310 C   0  0  0  0  0  0  0  0  0  0  0  0
   18.2031  -12.1164   16.0196 C   0  0  0  0  0  0  0  0  0  0  0  0
   18.4676  -11.5998   14.7487 C   0  0  0  0  0  0  0  0  0  0  0  0
   17.9749  -10.3417   14.3899 C   0  0  0  0  0  0  0  0  0  0  0  0
   17.2086   -9.6075   15.3005 C   0  0  0  0  0  0  0  0  0  0  0  0
   15.4056   -8.1972   17.3123 C   0  0  0  0  0  0  0  0  0  0  0  0
   15.3501   -7.6829   16.1622 O   0  0  0  0  0  0  0  0  0  0  0  0
   16.1654   -9.3936   17.5421 N   0  0  0  0  0  0  0  0  0  0  0  0
   16.1528   -9.7535   18.4583 H   0  0  0  0  0  0  0  0  0  0  0  0
   11.6370   -4.7372   21.3293 C   0  0  0  0  0  0  0  0  0  0  0  0
   10.7712   -5.2389   20.1724 C   0  0  0  0  0  0  0  0  0  0  0  0
   11.5963   -5.6119   19.0664 O   0  0  0  0  0  0  0  0  0  0  0  0
   12.8083   -6.2771   19.2708 C   0  0  0  0  0  0  0  0  0  0  0  0
   13.3481   -6.3274   20.5632 C   0  0  0  0  0  0  0  0  0  0  0  0
   12.6807   -5.6749   21.6035 O   0  0  0  0  0  0  0  0  0  0  0  0
   14.5378   -7.0189   20.7988 C   0  0  0  0  0  0  0  0  0  0  0  0
   15.2039   -7.6364   19.7356 C   0  0  0  0  0  0  0  0  0  0  0  0
   14.6865   -7.5647   18.4320 C   0  0  0  0  0  0  0  0  0  0  0  0
   13.4821   -6.8790   18.2059 C   0  0  0  0  0  0  0  0  0  0  0  0
   18.2362   -9.7983   13.0301 C   0  0  0  0  0  0  0  0  0  0  0  0
   17.1559  -10.1780   12.1323 N   0  0  0  0  0  0  0  0  0  0  0  0
   16.4285  -10.7157   12.5210 H   0  0  0  0  0  0  0  0  0  0  0  0
   17.0391   -9.8504   10.7371 C   0  0  0  0  0  0  0  0  0  0  0  0
   15.9178  -10.2629   10.0913 N   0  0  0  0  0  0  0  0  0  0  0  0
   15.7187  -10.0198    8.7726 C   0  0  0  0  0  0  0  0  0  0  0  0
   16.6505   -9.3453    8.0573 N   0  0  0  0  0  0  0  0  0  0  0  0
   17.7984   -8.8947    8.6294 C   0  0  0  0  0  0  0  0  0  0  0  0
   18.0229   -9.1351   10.0101 C   0  0  0  0  0  0  0  0  0  0  0  0
   19.1939   -8.6513   10.6059 C   0  0  0  0  0  0  0  0  0  0  0  0
   20.1363   -7.9498    9.8602 C   0  0  0  0  0  0  0  0  0  0  0  0
   19.9202   -7.7213    8.5036 C   0  0  0  0  0  0  0  0  0  0  0  0
   18.7608   -8.1857    7.8655 C   0  0  0  0  0  0  0  0  0  0  0  0
   18.6087   -7.9068    6.4133 C   0  0  0  0  0  0  0  0  0  0  0  0
   18.9764   -6.7951    5.9462 O   0  0  0  0  0  0  0  0  0  0  0  0
   18.0679   -8.8761    5.5192 N   0  0  0  0  0  0  0  0  0  0  0  0
   17.7740   -9.7513    5.8611 H   0  0  0  0  0  0  0  0  0  0  0  0
   17.9882   -8.6704    4.5597 H   0  0  0  0  0  0  0  0  0  0  0  0
 11 12  1  0  0  0
 12 13  1  0  0  0
 13 14  1  0  0  0
 14 15  2  0  0  0
 15 16  1  0  0  0
 15 17  1  0  0  0
 16 11  1  0  0  0
 17 18  2  0  0  0
 18 19  1  0  0  0
 19 20  2  0  0  0
 19  7  1  0  0  0
 20 14  1  0  0  0
  7  8  2  0  0  0
  7  9  1  0  0  0
  9  1  1  0  0  0
  1  2  2  0  0  0
  2  3  1  0  0  0
  3  4  2  0  0  0
  4  5  1  0  0  0
  5  6  2  0  0  0
  5 21  1  0  0  0
  6  1  1  0  0  0
 21 22  1  0  0  0
 22 24  1  0  0  0
 24 25  2  0  0  0
 25 26  1  0  0  0
 26 27  2  0  0  0
 27 28  1  0  0  0
 28 29  2  0  0  0
 29 30  1  0  0  0
 29 24  1  0  0  0
 30 31  2  0  0  0
 31 32  1  0  0  0
 32 33  2  0  0  0
 33 34  1  0  0  0
 33 28  1  0  0  0
 34 35  2  0  0  0
 34 36  1  0  0  0
  9 10  1  0  0  0
 22 23  1  0  0  0
 36 37  1  0  0  0
 36 38  1  0  0  0
M  END
>  <minimizedAffinity>
-10.43264

>  <minimizedRMSD>
1.03599

$$$$
CHEMBL3808758 PubChem-127043794


 37 41  0  0  0  0  0  0  0  0999 V2000
   16.9421  -10.0339   14.1999 C   0  0  0  0  0  0  0  0  0  0  0  0
   17.9129  -11.0222   14.4492 C   0  0  0  0  0  0  0  0  0  0  0  0
   18.2788  -11.3166   15.7658 C   0  0  0  0  0  0  0  0  0  0  0  0
   17.6897  -10.6308   16.8312 C   0  0  0  0  0  0  0  0  0  0  0  0
   16.7303   -9.6422   16.5933 C   0  0  0  0  0  0  0  0  0  0  0  0
   16.3631   -9.3474   15.2723 C   0  0  0  0  0  0  0  0  0  0  0  0
   18.5665  -11.7721   13.3379 C   0  0  0  0  0  0  0  0  0  0  0  0
   16.1533   -8.9563   17.7128 N   0  0  0  0  0  0  0  0  0  0  0  0
   15.1331   -7.9465   17.6712 C   0  0  0  0  0  0  0  0  0  0  0  0
   14.6480   -7.5684   16.5700 O   0  0  0  0  0  0  0  0  0  0  0  0
   16.4921   -9.2037   18.6035 H   0  0  0  0  0  0  0  0  0  0  0  0
   14.6516   -7.3431   18.9263 C   0  0  0  0  0  0  0  0  0  0  0  0
   15.3928   -7.4923   20.1152 C   0  0  0  0  0  0  0  0  0  0  0  0
   14.9025   -6.9031   21.2788 C   0  0  0  0  0  0  0  0  0  0  0  0
   13.7387   -6.1937   21.2909 C   0  0  0  0  0  0  0  0  0  0  0  0
   12.9772   -6.0260   20.1362 C   0  0  0  0  0  0  0  0  0  0  0  0
   13.4436   -6.6086   18.9462 C   0  0  0  0  0  0  0  0  0  0  0  0
   13.4666   -5.6862   22.6579 C   0  0  0  0  0  0  0  0  0  0  0  0
   14.6749   -6.2182   23.4597 C   0  0  0  0  0  0  0  0  0  0  0  0
   15.4796   -6.9404   22.5273 O   0  0  0  0  0  0  0  0  0  0  0  0
   16.5369   -9.6676   12.8105 C   0  0  0  0  0  0  0  0  0  0  0  0
   17.7219   -9.4495   11.9944 N   0  0  0  0  0  0  0  0  0  0  0  0
   18.5973   -9.3901   12.4411 H   0  0  0  0  0  0  0  0  0  0  0  0
   18.6585   -8.5665    9.9142 C   0  0  0  0  0  0  0  0  0  0  0  0
   17.6693   -9.3180   10.5724 C   0  0  0  0  0  0  0  0  0  0  0  0
   16.6380   -9.9275    9.8155 C   0  0  0  0  0  0  0  0  0  0  0  0
   16.5977   -9.7917    8.4561 N   0  0  0  0  0  0  0  0  0  0  0  0
   17.5608   -9.0630    7.8392 C   0  0  0  0  0  0  0  0  0  0  0  0
   18.5699   -8.4619    8.5306 C   0  0  0  0  0  0  0  0  0  0  0  0
   19.3761   -7.8043    7.6321 C   0  0  0  0  0  0  0  0  0  0  0  0
   18.7622   -8.0721    6.4044 C   0  0  0  0  0  0  0  0  0  0  0  0
   17.6504   -8.8419    6.5206 N   0  0  0  0  0  0  0  0  0  0  0  0
   17.0526   -9.1615    5.8066 H   0  0  0  0  0  0  0  0  0  0  0  0
   19.2543   -7.5728    5.1156 C   0  0  0  0  0  0  0  0  0  0  0  0
   18.6436   -7.8741    4.0536 O   0  0  0  0  0  0  0  0  0  0  0  0
   20.3917   -6.7641    5.0749 O   0  0  0  0  0  0  0  0  0  0  0  0
   20.6643   -5.9075    3.9765 C   0  0  0  0  0  0  0  0  0  0  0  0
 24 25  2  0  0  0
 25 26  1  0  0  0
 26 27  2  0  0  0
 27 28  1  0  0  0
 28 29  2  0  0  0
 29 30  1  0  0  0
 30 31  2  0  0  0
 31 32  1  0  0  0
 31 34  1  0  0  0
 34 35  2  0  0  0
 34 36  1  0  0  0
 36 37  1  0  0  0
 25 22  1  0  0  0
 22 21  1  0  0  0
 21  1  1  0  0  0
  1  2  2  0  0  0
  2  3  1  0  0  0
  3  4  2  0  0  0
  4  5  1  0  0  0
  5  6  2  0  0  0
  5  8  1  0  0  0
  8  9  1  0  0  0
  9 10  2  0  0  0
  9 12  1  0  0  0
 12 13  2  0  0  0
 13 14  1  0  0  0
 14 15  2  0  0  0
 15 16  1  0  0  0
 16 17  2  0  0  0
 15 18  1  0  0  0
 18 19  1  0  0  0
 19 20  1  0  0  0
  2  7  1  0  0  0
 29 24  1  0  0  0
  6  1  1  0  0  0
 17 12  1  0  0  0
 32 28  1  0  0  0
 20 14  1  0  0  0
 32 33  1  0  0  0
 22 23  1  0  0  0
  8 11  1  0  0  0
M  END
>  <minimizedAffinity>
-11.60405

>  <minimizedRMSD>
1.04052

$$$$
CHEMBL4173415 PubChem-145949933


 32 36  0  0  0  0  0  0  0  0999 V2000
   17.4337   -7.6328   12.0671 C   0  0  0  0  0  0  0  0  0  0  0  0
   16.7866   -6.8465   13.0401 C   0  0  0  0  0  0  0  0  0  0  0  0
   16.6297   -7.3860   14.3137 C   0  0  0  0  0  0  0  0  0  0  0  0
   17.0909   -8.6304   14.6318 C   0  0  0  0  0  0  0  0  0  0  0  0
   17.7599   -9.4331   13.7102 C   0  0  0  0  0  0  0  0  0  0  0  0
   17.9279   -8.9181   12.4126 C   0  0  0  0  0  0  0  0  0  0  0  0
   16.8274   -8.8750   15.9218 N   0  0  0  0  0  0  0  0  0  0  0  0
   16.1997   -7.7482   16.3508 C   0  0  0  0  0  0  0  0  0  0  0  0
   16.0721   -6.7976   15.3885 N   0  0  0  0  0  0  0  0  0  0  0  0
   17.2947  -10.0080   16.7070 C   0  0  0  0  0  0  0  0  0  0  0  0
   15.7887   -7.5160   17.7038 N   0  0  0  0  0  0  0  0  0  0  0  0
   15.9631   -6.6236   18.0813 H   0  0  0  0  0  0  0  0  0  0  0  0
   15.1458   -8.4729   18.5524 C   0  0  0  0  0  0  0  0  0  0  0  0
   15.1336   -8.2574   19.9329 C   0  0  0  0  0  0  0  0  0  0  0  0
   14.4776   -9.1540   20.7810 C   0  0  0  0  0  0  0  0  0  0  0  0
   13.8130  -10.2759   20.2594 C   0  0  0  0  0  0  0  0  0  0  0  0
   13.8120  -10.4760   18.8693 C   0  0  0  0  0  0  0  0  0  0  0  0
   14.4676   -9.5792   18.0221 C   0  0  0  0  0  0  0  0  0  0  0  0
   13.1392  -11.2009   21.1335 N   0  0  0  0  0  0  0  0  0  0  0  0
   13.1521  -11.0203   22.5773 C   0  0  0  0  0  0  0  0  0  0  0  0
   12.4217  -12.3514   20.6058 C   0  0  0  0  0  0  0  0  0  0  0  0
   17.6144   -7.0983   10.7851 O   0  0  0  0  0  0  0  0  0  0  0  0
   18.7961   -7.3573    8.7213 N   0  0  0  0  0  0  0  0  0  0  0  0
   19.0943   -8.0414    7.5702 C   0  0  0  0  0  0  0  0  0  0  0  0
   18.4935   -9.2381    7.2975 N   0  0  0  0  0  0  0  0  0  0  0  0
   17.6042   -9.7196    8.1987 C   0  0  0  0  0  0  0  0  0  0  0  0
   17.2920   -9.0640    9.3434 C   0  0  0  0  0  0  0  0  0  0  0  0
   17.9065   -7.8457    9.6365 C   0  0  0  0  0  0  0  0  0  0  0  0
   16.3063   -9.8185    9.9590 C   0  0  0  0  0  0  0  0  0  0  0  0
   16.0778  -10.9019    9.1680 N   0  0  0  0  0  0  0  0  0  0  0  0
   16.8694  -10.8318    8.1045 N   0  0  0  0  0  0  0  0  0  0  0  0
   16.8853  -11.8039    7.0256 C   0  0  0  0  0  0  0  0  0  0  0  0
 23 24  2  0  0  0
 24 25  1  0  0  0
 25 26  2  0  0  0
 26 27  1  0  0  0
 27 28  2  0  0  0
 28 22  1  0  0  0
 22  1  1  0  0  0
  1  2  2  0  0  0
  2  3  1  0  0  0
  3  4  2  0  0  0
  4  5  1  0  0  0
  5  6  2  0  0  0
  4  7  1  0  0  0
  7  8  1  0  0  0
  8  9  2  0  0  0
  8 11  1  0  0  0
 11 13  1  0  0  0
 13 14  2  0  0  0
 14 15  1  0  0  0
 15 16  2  0  0  0
 16 17  1  0  0  0
 17 18  2  0  0  0
 16 19  1  0  0  0
 19 20  1  0  0  0
 19 21  1  0  0  0
  7 10  1  0  0  0
 27 29  1  0  0  0
 29 30  2  0  0  0
 30 31  1  0  0  0
 31 32  1  0  0  0
 28 23  1  0  0  0
  6  1  1  0  0  0
 18 13  1  0  0  0
 31 26  1  0  0  0
  9  3  1  0  0  0
 11 12  1  0  0  0
M  END
>  <minimizedAffinity>
40.93314

>  <minimizedRMSD>
1.04161

$$$$
CHEMBL3582387 PubChem-122179522


 31 34  0  0  0  0  0  0  0  0999 V2000
   16.9965   -9.7390   16.4759 C   0  0  0  0  0  0  0  0  0  0  0  0
   17.4908  -10.9805   16.8884 C   0  0  0  0  0  0  0  0  0  0  0  0
   18.0059  -11.8893   15.9642 C   0  0  0  0  0  0  0  0  0  0  0  0
   18.0338  -11.5678   14.6078 C   0  0  0  0  0  0  0  0  0  0  0  0
   18.5393  -12.4642   13.7235 F   0  0  0  0  0  0  0  0  0  0  0  0
   17.5439  -10.3288   14.1716 C   0  0  0  0  0  0  0  0  0  0  0  0
   17.0245   -9.4103   15.1008 C   0  0  0  0  0  0  0  0  0  0  0  0
   16.5609   -8.2188   14.6491 F   0  0  0  0  0  0  0  0  0  0  0  0
   16.4854   -8.8637   17.4924 N   0  0  0  0  0  0  0  0  0  0  0  0
   17.0915   -8.6655   18.2424 H   0  0  0  0  0  0  0  0  0  0  0  0
   14.8482   -7.0279   16.5147 O   0  0  0  0  0  0  0  0  0  0  0  0
   14.9213   -8.1156   17.5498 S   0  0  0  0  0  0  0  0  0  0  0  0
   13.8508   -9.1420   17.3070 O   0  0  0  0  0  0  0  0  0  0  0  0
   14.6829   -7.4106   19.1376 C   0  0  0  0  0  0  0  0  0  0  0  0
   15.6768   -7.5106   20.1143 C   0  0  0  0  0  0  0  0  0  0  0  0
   15.4707   -6.9513   21.3765 C   0  0  0  0  0  0  0  0  0  0  0  0
   14.2652   -6.2985   21.6441 C   0  0  0  0  0  0  0  0  0  0  0  0
   13.3070   -6.2133   20.6820 N   0  0  0  0  0  0  0  0  0  0  0  0
   13.4893   -6.7520   19.4462 C   0  0  0  0  0  0  0  0  0  0  0  0
   17.5748   -9.9986   12.7690 C   0  0  0  0  0  0  0  0  0  0  0  0
   17.6005   -9.7216   11.5959 C   0  0  0  0  0  0  0  0  0  0  0  0
   17.6314   -9.3913   10.1997 C   0  0  0  0  0  0  0  0  0  0  0  0
   16.6751   -9.9497    9.3187 C   0  0  0  0  0  0  0  0  0  0  0  0
   16.6936   -9.6422    7.9858 N   0  0  0  0  0  0  0  0  0  0  0  0
   17.6464   -8.7922    7.5298 C   0  0  0  0  0  0  0  0  0  0  0  0
   17.8161   -8.3814    6.2675 N   0  0  0  0  0  0  0  0  0  0  0  0
   18.8634   -7.5598    6.2783 N   0  0  0  0  0  0  0  0  0  0  0  0
   19.3621   -7.4445    7.5375 C   0  0  0  0  0  0  0  0  0  0  0  0
   18.5798   -8.2371    8.3441 C   0  0  0  0  0  0  0  0  0  0  0  0
   18.6124   -8.5109    9.7059 C   0  0  0  0  0  0  0  0  0  0  0  0
   17.2740   -8.6361    5.4861 H   0  0  0  0  0  0  0  0  0  0  0  0
 11 12  2  0  0  0
 12 13  2  0  0  0
 12  9  1  0  0  0
  9  1  1  0  0  0
  1  2  2  0  0  0
  2  3  1  0  0  0
  3  4  2  0  0  0
  4  5  1  0  0  0
  4  6  1  0  0  0
  6 20  1  0  0  0
 20 21  3  0  0  0
 21 22  1  0  0  0
 22 23  2  0  0  0
 23 24  1  0  0  0
 24 25  2  0  0  0
 25 26  1  0  0  0
 26 27  1  0  0  0
 27 28  2  0  0  0
 28 29  1  0  0  0
 29 30  2  0  0  0
  6  7  2  0  0  0
  7  8  1  0  0  0
 12 14  1  0  0  0
 14 15  2  0  0  0
 15 16  1  0  0  0
 16 17  2  0  0  0
 17 18  1  0  0  0
 18 19  2  0  0  0
  7  1  1  0  0  0
 19 14  1  0  0  0
 30 22  1  0  0  0
 29 25  1  0  0  0
  9 10  1  0  0  0
 26 31  1  0  0  0
M  END
>  <minimizedAffinity>
-9.43071

>  <minimizedRMSD>
1.04178

$$$$
CHEMBL1476071 8619621 ChemDiv-G756-1414 MCULE-4105349216 MolPort-007-879-816 PubChem-16030449 ZINC000008619621 ZINC08619621


 26 28  0  0  0  0  0  0  0  0999 V2000
   16.8758   -9.2566   12.9558 O   0  0  0  0  0  0  0  0  0  0  0  0
   16.8524   -9.5888   16.6411 C   0  0  0  0  0  0  0  0  0  0  0  0
   16.6433   -9.0885   15.3468 C   0  0  0  0  0  0  0  0  0  0  0  0
   17.1043   -9.7885   14.2274 C   0  0  0  0  0  0  0  0  0  0  0  0
   17.7830  -11.0041   14.4067 C   0  0  0  0  0  0  0  0  0  0  0  0
   17.9949  -11.5078   15.6923 C   0  0  0  0  0  0  0  0  0  0  0  0
   17.5307  -10.8010   16.8047 C   0  0  0  0  0  0  0  0  0  0  0  0
   15.3196   -7.9426   17.8725 C   0  0  0  0  0  0  0  0  0  0  0  0
   14.6471   -7.6463   16.8499 O   0  0  0  0  0  0  0  0  0  0  0  0
   16.3925   -8.8927   17.8075 N   0  0  0  0  0  0  0  0  0  0  0  0
   16.8617   -9.0869   18.6509 H   0  0  0  0  0  0  0  0  0  0  0  0
   13.5490   -7.6334   19.5595 C   0  0  0  0  0  0  0  0  0  0  0  0
   14.9788   -7.3064   19.1748 C   0  0  0  0  0  0  0  0  0  0  0  0
   16.1604   -9.9580   11.9474 C   0  0  0  0  0  0  0  0  0  0  0  0
   16.7443   -9.6492   10.6156 C   0  0  0  0  0  0  0  0  0  0  0  0
   16.2000  -10.2183    9.4681 C   0  0  0  0  0  0  0  0  0  0  0  0
   16.7495   -9.8904    8.2297 C   0  0  0  0  0  0  0  0  0  0  0  0
   16.2605  -10.4087    7.1885 O   0  0  0  0  0  0  0  0  0  0  0  0
   17.8020   -9.0176    8.1541 N   0  0  0  0  0  0  0  0  0  0  0  0
   18.3398   -8.6968    6.9395 C   0  0  0  0  0  0  0  0  0  0  0  0
   19.4107   -7.8066    6.8457 C   0  0  0  0  0  0  0  0  0  0  0  0
   19.9869   -7.4656    5.5192 C   0  0  0  0  0  0  0  0  0  0  0  0
   19.9341   -7.2401    8.0059 C   0  0  0  0  0  0  0  0  0  0  0  0
   19.3853   -7.5678    9.2444 C   0  0  0  0  0  0  0  0  0  0  0  0
   18.3143   -8.4627    9.3065 C   0  0  0  0  0  0  0  0  0  0  0  0
   17.7811   -8.7801   10.5145 N   0  0  0  0  0  0  0  0  0  0  0  0
 12 13  1  0  0  0
 13  8  1  0  0  0
  8  9  2  0  0  0
  8 10  1  0  0  0
 10  2  1  0  0  0
  2  3  2  0  0  0
  3  4  1  0  0  0
  4  1  1  0  0  0
  4  5  2  0  0  0
  1 14  1  0  0  0
 14 15  1  0  0  0
 15 16  2  0  0  0
 16 17  1  0  0  0
 17 18  2  0  0  0
 17 19  1  0  0  0
 19 20  1  0  0  0
 20 21  2  0  0  0
 21 22  1  0  0  0
 21 23  1  0  0  0
 23 24  2  0  0  0
 24 25  1  0  0  0
 25 26  2  0  0  0
 25 19  1  0  0  0
 26 15  1  0  0  0
  5  6  1  0  0  0
  6  7  2  0  0  0
  7  2  1  0  0  0
 10 11  1  0  0  0
M  END
>  <minimizedAffinity>
-8.17091

>  <minimizedRMSD>
1.04409

$$$$
CHEMBL5077839 PubChem-156898796


 37 41  0  0  0  0  0  0  0  0999 V2000
   16.8847   -8.6048   14.0708 C   0  0  0  0  0  0  0  0  0  0  0  0
   16.9367   -9.1851   12.7258 N   0  0  0  0  0  0  0  0  0  0  0  0
   15.9924   -9.9122   12.2136 C   0  0  0  0  0  0  0  0  0  0  0  0
   14.8309  -10.2109   12.9831 N   0  0  0  0  0  0  0  0  0  0  0  0
   14.6904   -9.7499   14.3275 C   0  0  0  0  0  0  0  0  0  0  0  0
   15.6635   -9.0008   14.8923 C   0  0  0  0  0  0  0  0  0  0  0  0
   13.4189  -10.0857   15.0348 C   0  0  0  0  0  0  0  0  0  0  0  0
   14.1100  -10.7464   12.5795 H   0  0  0  0  0  0  0  0  0  0  0  0
   18.6152  -11.1726   13.3313 Cl  0  0  0  0  0  0  0  0  0  0  0  0
   19.0212   -9.9491   14.5257 C   0  0  0  0  0  0  0  0  0  0  0  0
   18.1862   -8.8389   14.7869 C   0  0  0  0  0  0  0  0  0  0  0  0
   18.5786   -7.8963   15.7447 C   0  0  0  0  0  0  0  0  0  0  0  0
   19.7778   -8.0509   16.4437 C   0  0  0  0  0  0  0  0  0  0  0  0
   20.5978   -9.1509   16.1876 C   0  0  0  0  0  0  0  0  0  0  0  0
   20.2200  -10.0955   15.2310 C   0  0  0  0  0  0  0  0  0  0  0  0
   15.5475   -8.4549   16.2690 C   0  0  0  0  0  0  0  0  0  0  0  0
   15.2794   -7.2333   16.4311 O   0  0  0  0  0  0  0  0  0  0  0  0
   15.7858   -9.2857   17.4102 N   0  0  0  0  0  0  0  0  0  0  0  0
   16.0643  -10.2185   17.2636 H   0  0  0  0  0  0  0  0  0  0  0  0
   15.6341   -8.8112   18.7783 C   0  0  0  0  0  0  0  0  0  0  0  0
   14.4249   -7.9472   18.8916 C   0  0  0  0  0  0  0  0  0  0  0  0
   14.4643   -6.6459   19.2417 N   0  0  0  0  0  0  0  0  0  0  0  0
   13.1783   -6.2462   19.1734 C   0  0  0  0  0  0  0  0  0  0  0  0
   12.3744   -7.2537   18.7909 N   0  0  0  0  0  0  0  0  0  0  0  0
   13.1368   -8.3407   18.5994 C   0  0  0  0  0  0  0  0  0  0  0  0
   10.9378   -7.1763   18.6077 C   0  0  0  0  0  0  0  0  0  0  0  0
   16.1096  -10.4422   10.8892 N   0  0  0  0  0  0  0  0  0  0  0  0
   15.6708  -11.3036   10.7030 H   0  0  0  0  0  0  0  0  0  0  0  0
   16.8167   -9.8138    9.8156 C   0  0  0  0  0  0  0  0  0  0  0  0
   17.7275   -8.8685    9.9872 O   0  0  0  0  0  0  0  0  0  0  0  0
   18.1376   -8.5598    8.7878 C   0  0  0  0  0  0  0  0  0  0  0  0
   17.4663   -9.3279    7.8838 C   0  0  0  0  0  0  0  0  0  0  0  0
   16.6080  -10.1465    8.5152 N   0  0  0  0  0  0  0  0  0  0  0  0
   17.6932   -9.2224    6.5140 C   0  0  0  0  0  0  0  0  0  0  0  0
   18.6521   -8.2830    6.0887 C   0  0  0  0  0  0  0  0  0  0  0  0
   19.3467   -7.4878    7.0289 C   0  0  0  0  0  0  0  0  0  0  0  0
   19.0921   -7.6211    8.4070 C   0  0  0  0  0  0  0  0  0  0  0  0
  9 10  1  0  0  0
 10 11  2  0  0  0
  1 11  1  0  0  0
  1  2  1  0  0  0
  2  3  2  0  0  0
  3  4  1  0  0  0
  4  5  1  0  0  0
  5  6  2  0  0  0
  6 16  1  0  0  0
 16 17  2  0  0  0
 16 18  1  0  0  0
 18 20  1  0  0  0
 20 21  1  0  0  0
 21 22  1  0  0  0
 22 23  2  0  0  0
 23 24  1  0  0  0
 24 25  1  0  0  0
 24 26  1  0  0  0
  5  7  1  0  0  0
  3 27  1  0  0  0
 27 29  1  0  0  0
 29 30  1  0  0  0
 30 31  1  0  0  0
 31 32  2  0  0  0
 32 33  1  0  0  0
 32 34  1  0  0  0
 34 35  2  0  0  0
 35 36  1  0  0  0
 36 37  2  0  0  0
 11 12  1  0  0  0
 12 13  2  0  0  0
 13 14  1  0  0  0
 14 15  2  0  0  0
 15 10  1  0  0  0
  6  1  1  0  0  0
 25 21  2  0  0  0
 33 29  2  0  0  0
 37 31  1  0  0  0
  4  8  1  0  0  0
 18 19  1  0  0  0
 27 28  1  0  0  0
M  END
>  <minimizedAffinity>
1.96175

>  <minimizedRMSD>
1.04497

$$$$
CHEMBL5074516 PubChem-156899048


 37 41  0  0  0  0  0  0  0  0999 V2000
   16.8847   -8.6046   14.0710 C   0  0  0  0  0  0  0  0  0  0  0  0
   16.9367   -9.1851   12.7259 N   0  0  0  0  0  0  0  0  0  0  0  0
   15.9925   -9.9121   12.2136 C   0  0  0  0  0  0  0  0  0  0  0  0
   14.8310  -10.2109   12.9832 N   0  0  0  0  0  0  0  0  0  0  0  0
   14.6905   -9.7499   14.3277 C   0  0  0  0  0  0  0  0  0  0  0  0
   15.6636   -9.0008   14.8924 C   0  0  0  0  0  0  0  0  0  0  0  0
   13.4190  -10.0857   15.0350 C   0  0  0  0  0  0  0  0  0  0  0  0
   14.1101  -10.7464   12.5797 H   0  0  0  0  0  0  0  0  0  0  0  0
   18.6151  -11.1726   13.3313 Cl  0  0  0  0  0  0  0  0  0  0  0  0
   19.0212   -9.9490   14.5257 C   0  0  0  0  0  0  0  0  0  0  0  0
   18.1863   -8.8387   14.7869 C   0  0  0  0  0  0  0  0  0  0  0  0
   18.5788   -7.8963   15.7448 C   0  0  0  0  0  0  0  0  0  0  0  0
   19.7779   -8.0510   16.4438 C   0  0  0  0  0  0  0  0  0  0  0  0
   20.5980   -9.1510   16.1876 C   0  0  0  0  0  0  0  0  0  0  0  0
   20.2200  -10.0955   15.2310 C   0  0  0  0  0  0  0  0  0  0  0  0
   15.5476   -8.4549   16.2692 C   0  0  0  0  0  0  0  0  0  0  0  0
   15.2792   -7.2333   16.4312 O   0  0  0  0  0  0  0  0  0  0  0  0
   15.7860   -9.2856   17.4104 N   0  0  0  0  0  0  0  0  0  0  0  0
   16.0648  -10.2183   17.2637 H   0  0  0  0  0  0  0  0  0  0  0  0
   15.6342   -8.8112   18.7785 C   0  0  0  0  0  0  0  0  0  0  0  0
   14.4249   -7.9473   18.8916 C   0  0  0  0  0  0  0  0  0  0  0  0
   14.4642   -6.6460   19.2417 N   0  0  0  0  0  0  0  0  0  0  0  0
   13.1782   -6.2463   19.1734 C   0  0  0  0  0  0  0  0  0  0  0  0
   12.3744   -7.2538   18.7908 N   0  0  0  0  0  0  0  0  0  0  0  0
   13.1369   -8.3407   18.5994 C   0  0  0  0  0  0  0  0  0  0  0  0
   10.9378   -7.1764   18.6076 C   0  0  0  0  0  0  0  0  0  0  0  0
   16.1096  -10.4422   10.8894 N   0  0  0  0  0  0  0  0  0  0  0  0
   15.6709  -11.3036   10.7031 H   0  0  0  0  0  0  0  0  0  0  0  0
   16.8167   -9.8137    9.8158 C   0  0  0  0  0  0  0  0  0  0  0  0
   17.7276   -8.8685    9.9872 O   0  0  0  0  0  0  0  0  0  0  0  0
   18.1376   -8.5598    8.7879 C   0  0  0  0  0  0  0  0  0  0  0  0
   17.4663   -9.3278    7.8838 C   0  0  0  0  0  0  0  0  0  0  0  0
   16.6079  -10.1464    8.5153 N   0  0  0  0  0  0  0  0  0  0  0  0
   17.6932   -9.2224    6.5140 C   0  0  0  0  0  0  0  0  0  0  0  0
   18.6521   -8.2830    6.0888 C   0  0  0  0  0  0  0  0  0  0  0  0
   19.3468   -7.4879    7.0290 C   0  0  0  0  0  0  0  0  0  0  0  0
   19.0921   -7.6211    8.4070 C   0  0  0  0  0  0  0  0  0  0  0  0
  9 10  1  0  0  0
 10 11  2  0  0  0
  1 11  1  0  0  0
  1  2  1  0  0  0
  2  3  2  0  0  0
  3  4  1  0  0  0
  4  5  1  0  0  0
  5  6  2  0  0  0
  6 16  1  0  0  0
 16 17  2  0  0  0
 16 18  1  0  0  0
 18 20  1  0  0  0
 20 21  1  0  0  0
 21 22  1  0  0  0
 22 23  2  0  0  0
 23 24  1  0  0  0
 24 25  1  0  0  0
 24 26  1  0  0  0
  5  7  1  0  0  0
  3 27  1  0  0  0
 27 29  1  0  0  0
 29 30  1  0  0  0
 30 31  1  0  0  0
 31 32  2  0  0  0
 32 33  1  0  0  0
 32 34  1  0  0  0
 34 35  2  0  0  0
 35 36  1  0  0  0
 36 37  2  0  0  0
 11 12  1  0  0  0
 12 13  2  0  0  0
 13 14  1  0  0  0
 14 15  2  0  0  0
 15 10  1  0  0  0
  6  1  1  0  0  0
 25 21  2  0  0  0
 33 29  2  0  0  0
 37 31  1  0  0  0
  4  8  1  0  0  0
 18 19  1  0  0  0
 27 28  1  0  0  0
M  END
>  <minimizedAffinity>
1.96159

>  <minimizedRMSD>
1.04500

$$$$
CHEMBL4475173 PubChem-59278436


 33 36  0  0  0  0  0  0  0  0999 V2000
   19.4921  -10.2038   12.2011 N   0  0  0  0  0  0  0  0  0  0  0  0
   18.6543  -10.2324   11.0406 C   0  0  0  0  0  0  0  0  0  0  0  0
   17.6153  -10.9472   11.0339 O   0  0  0  0  0  0  0  0  0  0  0  0
   20.3261   -9.6818   12.1665 H   0  0  0  0  0  0  0  0  0  0  0  0
   19.0147   -9.4266    9.8561 C   0  0  0  0  0  0  0  0  0  0  0  0
   20.1474   -8.5873    9.8788 C   0  0  0  0  0  0  0  0  0  0  0  0
   20.4863   -7.8336    8.7862 N   0  0  0  0  0  0  0  0  0  0  0  0
   19.7533   -7.8560    7.6348 C   0  0  0  0  0  0  0  0  0  0  0  0
   18.6302   -8.6780    7.5909 C   0  0  0  0  0  0  0  0  0  0  0  0
   18.2743   -9.4376    8.6670 C   0  0  0  0  0  0  0  0  0  0  0  0
   17.1313  -10.1203    8.2910 C   0  0  0  0  0  0  0  0  0  0  0  0
   16.8420   -9.7527    7.0175 N   0  0  0  0  0  0  0  0  0  0  0  0
   17.7491   -8.8788    6.5919 N   0  0  0  0  0  0  0  0  0  0  0  0
   17.7273   -8.2904    5.2771 C   0  0  0  0  0  0  0  0  0  0  0  0
   16.7052   -8.6310    4.3772 C   0  0  0  0  0  0  0  0  0  0  0  0
   16.6685   -8.0705    3.0972 C   0  0  0  0  0  0  0  0  0  0  0  0
   17.6544   -7.1625    2.7039 C   0  0  0  0  0  0  0  0  0  0  0  0
   18.6765   -6.8149    3.5902 C   0  0  0  0  0  0  0  0  0  0  0  0
   18.7124   -7.3761    4.8698 C   0  0  0  0  0  0  0  0  0  0  0  0
   17.6180   -6.6177    1.4644 F   0  0  0  0  0  0  0  0  0  0  0  0
   19.1653  -10.9129   13.4308 C   0  0  0  0  0  0  0  0  0  0  0  0
   16.2150   -8.7167   15.6418 C   0  0  0  0  0  0  0  0  0  0  0  0
   17.5479   -8.2913   15.6374 C   0  0  0  0  0  0  0  0  0  0  0  0
   18.5105   -9.0088   14.9214 C   0  0  0  0  0  0  0  0  0  0  0  0
   18.1434  -10.1566   14.2102 C   0  0  0  0  0  0  0  0  0  0  0  0
   16.8109  -10.5825   14.2141 C   0  0  0  0  0  0  0  0  0  0  0  0
   15.8485   -9.8647   14.9300 C   0  0  0  0  0  0  0  0  0  0  0  0
   15.0127   -7.8148   16.5502 S   0  0  0  0  0  0  0  0  0  0  0  0
   15.0996   -6.3626   16.1745 O   0  0  0  0  0  0  0  0  0  0  0  0
   13.6350   -8.3178   16.2162 O   0  0  0  0  0  0  0  0  0  0  0  0
   15.1580   -9.3926   18.5845 C   0  0  0  0  0  0  0  0  0  0  0  0
   15.2981   -7.9858   18.2496 N   0  0  0  0  0  0  0  0  0  0  0  0
   16.2401   -7.6673   18.4770 H   0  0  0  0  0  0  0  0  0  0  0  0
 31 32  1  0  0  0
 32 28  1  0  0  0
 28 29  2  0  0  0
 28 30  2  0  0  0
 28 22  1  0  0  0
 22 23  2  0  0  0
 23 24  1  0  0  0
 24 25  2  0  0  0
 25 26  1  0  0  0
 25 21  1  0  0  0
 26 27  2  0  0  0
 27 22  1  0  0  0
 21  1  1  0  0  0
  1  2  1  0  0  0
  2  3  2  0  0  0
  2  5  1  0  0  0
  5  6  2  0  0  0
  6  7  1  0  0  0
  7  8  2  0  0  0
  8  9  1  0  0  0
  9 10  2  0  0  0
 10 11  1  0  0  0
 10  5  1  0  0  0
 11 12  2  0  0  0
 12 13  1  0  0  0
 13 14  1  0  0  0
 13  9  1  0  0  0
 14 15  2  0  0  0
 15 16  1  0  0  0
 16 17  2  0  0  0
 17 18  1  0  0  0
 17 20  1  0  0  0
 18 19  2  0  0  0
 19 14  1  0  0  0
 32 33  1  0  0  0
  1  4  1  0  0  0
M  END
>  <minimizedAffinity>
17.64965

>  <minimizedRMSD>
1.05474

$$$$
CHEMBL3906976 PubChem-134135473


 31 34  0  0  0  0  0  0  0  0999 V2000
   17.3062   -9.7112   14.1219 C   0  0  0  0  0  0  0  0  0  0  0  0
   16.4755   -8.8878   14.8894 C   0  0  0  0  0  0  0  0  0  0  0  0
   16.3752   -9.0571   16.2767 C   0  0  0  0  0  0  0  0  0  0  0  0
   17.1323  -10.0563   16.9001 C   0  0  0  0  0  0  0  0  0  0  0  0
   17.9872  -10.8653   16.1492 C   0  0  0  0  0  0  0  0  0  0  0  0
   18.0865  -10.6976   14.7652 C   0  0  0  0  0  0  0  0  0  0  0  0
   19.0829  -11.5257   14.0280 C   0  0  0  0  0  0  0  0  0  0  0  0
   15.1709  -10.0504   12.1842 O   0  0  0  0  0  0  0  0  0  0  0  0
   16.3314   -9.7757   11.7751 C   0  0  0  0  0  0  0  0  0  0  0  0
   17.3744   -9.4763   12.7098 N   0  0  0  0  0  0  0  0  0  0  0  0
   18.2020   -9.0784   12.3549 H   0  0  0  0  0  0  0  0  0  0  0  0
   16.5970   -9.7209   10.3297 C   0  0  0  0  0  0  0  0  0  0  0  0
   17.5683   -9.0078    9.6600 C   0  0  0  0  0  0  0  0  0  0  0  0
   17.4463   -9.2567    8.3493 N   0  0  0  0  0  0  0  0  0  0  0  0
   16.4481  -10.0940    8.1298 N   0  0  0  0  0  0  0  0  0  0  0  0
   15.9012  -10.4018    9.3318 C   0  0  0  0  0  0  0  0  0  0  0  0
   18.2537   -8.7089    7.4072 C   0  0  0  0  0  0  0  0  0  0  0  0
   19.2674   -7.8373    7.8315 C   0  0  0  0  0  0  0  0  0  0  0  0
   19.4143   -7.5615    9.2043 C   0  0  0  0  0  0  0  0  0  0  0  0
   18.5557   -8.1512   10.1454 C   0  0  0  0  0  0  0  0  0  0  0  0
   15.4843   -8.1933   17.0711 C   0  0  0  0  0  0  0  0  0  0  0  0
   14.6068   -7.4924   16.4960 O   0  0  0  0  0  0  0  0  0  0  0  0
   15.6135   -8.1486   18.4941 N   0  0  0  0  0  0  0  0  0  0  0  0
   16.3031   -8.7014   18.9279 H   0  0  0  0  0  0  0  0  0  0  0  0
   14.7584   -7.3123   19.3210 C   0  0  0  0  0  0  0  0  0  0  0  0
   15.3326   -7.2049   20.6892 C   0  0  0  0  0  0  0  0  0  0  0  0
   16.5954   -6.6317   20.8756 C   0  0  0  0  0  0  0  0  0  0  0  0
   17.1450   -6.5515   22.1590 C   0  0  0  0  0  0  0  0  0  0  0  0
   16.4350   -7.0493   23.2560 C   0  0  0  0  0  0  0  0  0  0  0  0
   15.1763   -7.6292   23.0698 C   0  0  0  0  0  0  0  0  0  0  0  0
   14.6263   -7.7097   21.7866 C   0  0  0  0  0  0  0  0  0  0  0  0
  8  9  2  0  0  0
  9 10  1  0  0  0
 10  1  1  0  0  0
  1  2  2  0  0  0
  2  3  1  0  0  0
  3 21  1  0  0  0
 21 22  2  0  0  0
 21 23  1  0  0  0
 23 25  1  0  0  0
 25 26  1  0  0  0
 26 27  2  0  0  0
 27 28  1  0  0  0
 28 29  2  0  0  0
 29 30  1  0  0  0
 30 31  2  0  0  0
  3  4  2  0  0  0
  4  5  1  0  0  0
  5  6  2  0  0  0
  6  7  1  0  0  0
  9 12  1  0  0  0
 12 13  2  0  0  0
 13 14  1  0  0  0
 14 15  1  0  0  0
 15 16  2  0  0  0
 14 17  1  0  0  0
 17 18  2  0  0  0
 18 19  1  0  0  0
 19 20  2  0  0  0
  6  1  1  0  0  0
 16 12  1  0  0  0
 31 26  1  0  0  0
 20 13  1  0  0  0
 10 11  1  0  0  0
 23 24  1  0  0  0
M  END
>  <minimizedAffinity>
-11.02842

>  <minimizedRMSD>
1.06938

$$$$
CHEMBL1408992


 29 32  0  0  0  0  0  0  0  0999 V2000
   16.7018  -10.1763   13.9013 C   0  0  0  0  0  0  0  0  0  0  0  0
   17.3250  -10.1881   12.7491 O   0  0  0  0  0  0  0  0  0  0  0  0
   16.3889   -9.9469   11.8628 C   0  0  0  0  0  0  0  0  0  0  0  0
   15.1873   -9.7861   12.4494 N   0  0  0  0  0  0  0  0  0  0  0  0
   15.3870   -9.9331   13.7500 N   0  0  0  0  0  0  0  0  0  0  0  0
   16.6153   -9.8611   10.4162 C   0  0  0  0  0  0  0  0  0  0  0  0
   15.9036  -10.5466    9.4906 N   0  0  0  0  0  0  0  0  0  0  0  0
   16.3613  -10.2417    8.2788 N   0  0  0  0  0  0  0  0  0  0  0  0
   17.3643   -9.3613    8.4404 C   0  0  0  0  0  0  0  0  0  0  0  0
   17.5553   -9.0962    9.7665 C   0  0  0  0  0  0  0  0  0  0  0  0
   18.5348   -8.2137   10.2169 C   0  0  0  0  0  0  0  0  0  0  0  0
   19.3368   -7.5925    9.2415 C   0  0  0  0  0  0  0  0  0  0  0  0
   19.1411   -7.8654    7.8682 C   0  0  0  0  0  0  0  0  0  0  0  0
   18.1403   -8.7637    7.4508 C   0  0  0  0  0  0  0  0  0  0  0  0
   15.1664  -11.1701    9.6830 H   0  0  0  0  0  0  0  0  0  0  0  0
   17.4952  -10.4485   15.4810 S   0  0  0  0  0  0  0  0  0  0  0  0
   17.6823   -8.6677   15.8082 C   0  0  0  0  0  0  0  0  0  0  0  0
   16.4052   -8.0890   16.3121 C   0  0  0  0  0  0  0  0  0  0  0  0
   15.6455   -7.4859   15.5091 O   0  0  0  0  0  0  0  0  0  0  0  0
   16.0694   -8.2178   17.7003 N   0  0  0  0  0  0  0  0  0  0  0  0
   16.7321   -8.6664   18.2737 H   0  0  0  0  0  0  0  0  0  0  0  0
   14.8679   -7.7615   18.3427 C   0  0  0  0  0  0  0  0  0  0  0  0
   14.9313   -7.2457   19.6507 C   0  0  0  0  0  0  0  0  0  0  0  0
   13.7675   -6.8030   20.2877 C   0  0  0  0  0  0  0  0  0  0  0  0
   12.5363   -6.8702   19.6317 C   0  0  0  0  0  0  0  0  0  0  0  0
   12.4647   -7.3817   18.3348 C   0  0  0  0  0  0  0  0  0  0  0  0
   13.6242   -7.8253   17.6946 C   0  0  0  0  0  0  0  0  0  0  0  0
   11.1557   -7.4550   17.6355 C   0  0  0  0  0  0  0  0  0  0  0  0
   16.2270   -7.1600   20.3825 C   0  0  0  0  0  0  0  0  0  0  0  0
 16  1  1  0  0  0
  1  2  1  0  0  0
  2  3  1  0  0  0
  3  4  2  0  0  0
  4  5  1  0  0  0
  3  6  1  0  0  0
  6  7  1  0  0  0
  7  8  1  0  0  0
  8  9  2  0  0  0
  9 10  1  0  0  0
 10 11  1  0  0  0
 11 12  2  0  0  0
 12 13  1  0  0  0
 13 14  2  0  0  0
 16 17  1  0  0  0
 17 18  1  0  0  0
 18 19  2  0  0  0
 18 20  1  0  0  0
 20 22  1  0  0  0
 22 23  2  0  0  0
 23 24  1  0  0  0
 24 25  2  0  0  0
 25 26  1  0  0  0
 26 27  2  0  0  0
 26 28  1  0  0  0
 23 29  1  0  0  0
  5  1  2  0  0  0
 10  6  2  0  0  0
 27 22  1  0  0  0
 14  9  1  0  0  0
  7 15  1  0  0  0
 20 21  1  0  0  0
M  END
>  <minimizedAffinity>
-9.40870

>  <minimizedRMSD>
1.07104

$$$$
CHEMBL5003574 96151539 MCULE-8390264413 MolPort-029-898-450 PubChem-72895893 ZINC000096151539


 26 29  0  0  0  0  0  0  0  0999 V2000
   17.5806   -9.5584   11.3127 N   0  0  0  0  0  0  0  0  0  0  0  0
   18.9230   -9.8166   11.8315 C   0  0  0  0  0  0  0  0  0  0  0  0
   18.8363  -10.6440   13.1096 C   0  0  0  0  0  0  0  0  0  0  0  0
   17.9111   -9.9602   14.1144 C   0  0  0  0  0  0  0  0  0  0  0  0
   16.5188   -9.7804   13.5053 C   0  0  0  0  0  0  0  0  0  0  0  0
   16.6101   -8.9561   12.2251 C   0  0  0  0  0  0  0  0  0  0  0  0
   17.3168   -9.5563    9.8982 C   0  0  0  0  0  0  0  0  0  0  0  0
   16.3718  -10.3955    9.3799 N   0  0  0  0  0  0  0  0  0  0  0  0
   16.0970  -10.4313    8.0420 C   0  0  0  0  0  0  0  0  0  0  0  0
   16.7744   -9.6259    7.1754 N   0  0  0  0  0  0  0  0  0  0  0  0
   17.7275   -8.7875    7.6509 C   0  0  0  0  0  0  0  0  0  0  0  0
   18.5053   -7.9403    6.8569 C   0  0  0  0  0  0  0  0  0  0  0  0
   19.4347   -7.2088    7.6019 C   0  0  0  0  0  0  0  0  0  0  0  0
   19.2617   -7.6423    9.2300 S   0  0  0  0  0  0  0  0  0  0  0  0
   18.0123   -8.7374    8.9990 C   0  0  0  0  0  0  0  0  0  0  0  0
   17.8686  -10.7463   15.3944 C   0  0  0  0  0  0  0  0  0  0  0  0
   17.9265  -12.0913   15.4568 N   0  0  0  0  0  0  0  0  0  0  0  0
   17.8414  -12.3797   16.7739 C   0  0  0  0  0  0  0  0  0  0  0  0
   17.7296  -11.2030   17.4950 C   0  0  0  0  0  0  0  0  0  0  0  0
   17.7547  -10.1903   16.6141 N   0  0  0  0  0  0  0  0  0  0  0  0
   17.6150   -8.7772   16.9380 C   0  0  0  0  0  0  0  0  0  0  0  0
   16.1890   -8.4525   17.2242 C   0  0  0  0  0  0  0  0  0  0  0  0
   15.7903   -8.0986   18.5430 N   0  0  0  0  0  0  0  0  0  0  0  0
   15.3309   -8.5250   16.3068 O   0  0  0  0  0  0  0  0  0  0  0  0
   16.4611   -8.0416   19.2614 H   0  0  0  0  0  0  0  0  0  0  0  0
   14.8437   -7.9105   18.7374 H   0  0  0  0  0  0  0  0  0  0  0  0
  7  8  2  0  0  0
  8  9  1  0  0  0
  9 10  2  0  0  0
 10 11  1  0  0  0
 11 12  1  0  0  0
 12 13  2  0  0  0
 13 14  1  0  0  0
 14 15  1  0  0  0
  7  1  1  0  0  0
  1  2  1  0  0  0
  2  3  1  0  0  0
  3  4  1  0  0  0
  4  5  1  0  0  0
  5  6  1  0  0  0
  4 16  1  0  0  0
 16 17  2  0  0  0
 17 18  1  0  0  0
 18 19  2  0  0  0
 19 20  1  0  0  0
 20 21  1  0  0  0
 21 22  1  0  0  0
 22 23  1  0  0  0
 22 24  2  0  0  0
 15  7  1  0  0  0
  6  1  1  0  0  0
 20 16  1  0  0  0
 15 11  2  0  0  0
 23 25  1  0  0  0
 23 26  1  0  0  0
M  END
>  <minimizedAffinity>
-4.63293

>  <minimizedRMSD>
1.07140

$$$$
CHEMBL5182909 PubChem-122432464


 26 28  0  0  0  0  0  0  0  0999 V2000
   15.1605  -10.7981   15.1680 C   0  0  0  0  0  0  0  0  0  0  0  0
   16.5137  -10.1192   15.0550 C   0  0  0  0  0  0  0  0  0  0  0  0
   17.5838  -11.0377   15.6689 C   0  0  0  0  0  0  0  0  0  0  0  0
   18.1421  -12.0227   14.6441 C   0  0  0  0  0  0  0  0  0  0  0  0
   18.7484  -11.2870   13.4397 C   0  0  0  0  0  0  0  0  0  0  0  0
   18.2227   -9.9211   13.2773 N   0  0  0  0  0  0  0  0  0  0  0  0
   16.7855   -9.8642   13.5605 C   0  0  0  0  0  0  0  0  0  0  0  0
   16.4784   -8.8289   15.8338 C   0  0  0  0  0  0  0  0  0  0  0  0
   16.8374   -7.7432   15.2985 O   0  0  0  0  0  0  0  0  0  0  0  0
   16.0382   -8.8386   17.1969 N   0  0  0  0  0  0  0  0  0  0  0  0
   15.7872   -9.6987   17.6048 H   0  0  0  0  0  0  0  0  0  0  0  0
   15.9461   -7.6314   18.0050 C   0  0  0  0  0  0  0  0  0  0  0  0
   14.5725   -7.4494   18.4832 C   0  0  0  0  0  0  0  0  0  0  0  0
   13.4880   -7.3057   18.8605 N   0  0  0  0  0  0  0  0  0  0  0  0
   18.4548   -9.4874   11.9543 N   0  0  0  0  0  0  0  0  0  0  0  0
   19.7471   -8.8701   11.6948 C   0  0  0  0  0  0  0  0  0  0  0  0
   17.4660   -9.6377   10.8995 C   0  0  0  0  0  0  0  0  0  0  0  0
   16.3108  -10.3325   11.1360 N   0  0  0  0  0  0  0  0  0  0  0  0
   15.3519  -10.4992   10.1743 C   0  0  0  0  0  0  0  0  0  0  0  0
   15.5223   -9.9686    8.9298 N   0  0  0  0  0  0  0  0  0  0  0  0
   16.6577   -9.2773    8.6737 C   0  0  0  0  0  0  0  0  0  0  0  0
   17.6260   -9.0977    9.6131 C   0  0  0  0  0  0  0  0  0  0  0  0
   18.6309   -8.3588    9.0266 C   0  0  0  0  0  0  0  0  0  0  0  0
   18.1818   -8.1352    7.7235 C   0  0  0  0  0  0  0  0  0  0  0  0
   16.9689   -8.6996    7.5062 N   0  0  0  0  0  0  0  0  0  0  0  0
   16.4371   -8.6877    6.6777 H   0  0  0  0  0  0  0  0  0  0  0  0
  1  2  1  0  0  0
  2  3  1  0  0  0
  3  4  1  0  0  0
  4  5  1  0  0  0
  5  6  1  0  0  0
  6  7  1  0  0  0
  6 15  1  0  0  0
 15 16  1  0  0  0
 15 17  1  0  0  0
 17 18  2  0  0  0
 18 19  1  0  0  0
 19 20  2  0  0  0
 20 21  1  0  0  0
 21 22  2  0  0  0
 22 23  1  0  0  0
 23 24  2  0  0  0
 24 25  1  0  0  0
  2  8  1  0  0  0
  8  9  2  0  0  0
  8 10  1  0  0  0
 10 12  1  0  0  0
 12 13  1  0  0  0
 13 14  3  0  0  0
  7  2  1  0  0  0
 22 17  1  0  0  0
 25 21  1  0  0  0
 25 26  1  0  0  0
 10 11  1  0  0  0
M  END
>  <minimizedAffinity>
-3.96714

>  <minimizedRMSD>
1.07704

$$$$
CHEMBL3582386 PubChem-122179521


 31 34  0  0  0  0  0  0  0  0999 V2000
   16.9913   -9.7320   16.4830 C   0  0  0  0  0  0  0  0  0  0  0  0
   17.4862  -10.9725   16.8974 C   0  0  0  0  0  0  0  0  0  0  0  0
   18.0021  -11.8823   15.9747 C   0  0  0  0  0  0  0  0  0  0  0  0
   18.0303  -11.5625   14.6178 C   0  0  0  0  0  0  0  0  0  0  0  0
   18.5359  -12.4602   13.7348 F   0  0  0  0  0  0  0  0  0  0  0  0
   17.5399  -10.3244   14.1797 C   0  0  0  0  0  0  0  0  0  0  0  0
   17.0193   -9.4051   15.1075 C   0  0  0  0  0  0  0  0  0  0  0  0
   16.5540   -8.2149   14.6540 F   0  0  0  0  0  0  0  0  0  0  0  0
   16.4784   -8.8561   17.4981 N   0  0  0  0  0  0  0  0  0  0  0  0
   17.0836   -8.6560   18.2483 H   0  0  0  0  0  0  0  0  0  0  0  0
   14.8404   -7.0168   16.5240 O   0  0  0  0  0  0  0  0  0  0  0  0
   14.9136   -8.1101   17.5531 S   0  0  0  0  0  0  0  0  0  0  0  0
   13.8395   -9.1304   17.3004 O   0  0  0  0  0  0  0  0  0  0  0  0
   14.6743   -7.4143   19.1435 C   0  0  0  0  0  0  0  0  0  0  0  0
   15.6780   -7.5226   20.1104 C   0  0  0  0  0  0  0  0  0  0  0  0
   15.4711   -6.9666   21.3739 C   0  0  0  0  0  0  0  0  0  0  0  0
   14.2708   -6.3128   21.6578 C   0  0  0  0  0  0  0  0  0  0  0  0
   13.2909   -6.2261   20.6663 C   0  0  0  0  0  0  0  0  0  0  0  0
   13.5104   -6.7742   19.4408 N   0  0  0  0  0  0  0  0  0  0  0  0
   17.5709   -9.9960   12.7768 C   0  0  0  0  0  0  0  0  0  0  0  0
   17.5967   -9.7204   11.6033 C   0  0  0  0  0  0  0  0  0  0  0  0
   17.6273   -9.3918   10.2068 C   0  0  0  0  0  0  0  0  0  0  0  0
   16.6723   -9.9526    9.3262 C   0  0  0  0  0  0  0  0  0  0  0  0
   16.6910   -9.6469    7.9929 N   0  0  0  0  0  0  0  0  0  0  0  0
   17.6429   -8.7967    7.5360 C   0  0  0  0  0  0  0  0  0  0  0  0
   17.8127   -8.3874    6.2731 N   0  0  0  0  0  0  0  0  0  0  0  0
   18.8591   -7.5647    6.2831 N   0  0  0  0  0  0  0  0  0  0  0  0
   19.3571   -7.4470    7.5424 C   0  0  0  0  0  0  0  0  0  0  0  0
   18.5754   -8.2393    8.3499 C   0  0  0  0  0  0  0  0  0  0  0  0
   18.6076   -8.5111    9.7120 C   0  0  0  0  0  0  0  0  0  0  0  0
   17.2712   -8.6438    5.4919 H   0  0  0  0  0  0  0  0  0  0  0  0
 11 12  2  0  0  0
 12 13  2  0  0  0
 12  9  1  0  0  0
  9  1  1  0  0  0
  1  2  2  0  0  0
  2  3  1  0  0  0
  3  4  2  0  0  0
  4  5  1  0  0  0
  4  6  1  0  0  0
  6 20  1  0  0  0
 20 21  3  0  0  0
 21 22  1  0  0  0
 22 23  2  0  0  0
 23 24  1  0  0  0
 24 25  2  0  0  0
 25 26  1  0  0  0
 26 27  1  0  0  0
 27 28  2  0  0  0
 28 29  1  0  0  0
 29 30  2  0  0  0
  6  7  2  0  0  0
  7  8  1  0  0  0
 12 14  1  0  0  0
 14 15  2  0  0  0
 15 16  1  0  0  0
 16 17  2  0  0  0
 17 18  1  0  0  0
 18 19  2  0  0  0
  7  1  1  0  0  0
 19 14  1  0  0  0
 30 22  1  0  0  0
 29 25  1  0  0  0
  9 10  1  0  0  0
 26 31  1  0  0  0
M  END
>  <minimizedAffinity>
-9.46834

>  <minimizedRMSD>
1.07781

$$$$
CHEMBL3938003 PubChem-134148921


 37 41  0  0  0  0  0  0  0  0999 V2000
   15.7364   -8.4621   17.6511 C   0  0  0  0  0  0  0  0  0  0  0  0
   15.0600   -7.4874   16.9850 N   0  0  0  0  0  0  0  0  0  0  0  0
   15.0356   -7.4408   15.6284 C   0  0  0  0  0  0  0  0  0  0  0  0
   15.7022   -8.3735   14.9018 N   0  0  0  0  0  0  0  0  0  0  0  0
   16.4102   -9.3643   15.5068 C   0  0  0  0  0  0  0  0  0  0  0  0
   16.4264   -9.4392   16.9182 C   0  0  0  0  0  0  0  0  0  0  0  0
   17.1033  -10.4880   17.5532 C   0  0  0  0  0  0  0  0  0  0  0  0
   17.7541  -11.4626   16.7961 C   0  0  0  0  0  0  0  0  0  0  0  0
   17.7436  -11.3892   15.4019 C   0  0  0  0  0  0  0  0  0  0  0  0
   17.0975  -10.3360   14.7460 C   0  0  0  0  0  0  0  0  0  0  0  0
   17.1140  -10.3187   13.3126 N   0  0  0  0  0  0  0  0  0  0  0  0
   18.1661   -9.7768   12.5034 C   0  0  0  0  0  0  0  0  0  0  0  0
   19.2885   -9.5128   13.0128 O   0  0  0  0  0  0  0  0  0  0  0  0
   16.3405  -10.7106   12.8463 H   0  0  0  0  0  0  0  0  0  0  0  0
   17.9592   -9.5708   11.0635 C   0  0  0  0  0  0  0  0  0  0  0  0
   18.7916   -8.7810   10.3861 O   0  0  0  0  0  0  0  0  0  0  0  0
   18.6623   -8.5523    9.0826 C   0  0  0  0  0  0  0  0  0  0  0  0
   17.6123   -9.1546    8.3533 C   0  0  0  0  0  0  0  0  0  0  0  0
   16.7196   -9.9890    9.0377 C   0  0  0  0  0  0  0  0  0  0  0  0
   15.7644  -10.5517    8.4382 O   0  0  0  0  0  0  0  0  0  0  0  0
   16.8945  -10.1989   10.4042 C   0  0  0  0  0  0  0  0  0  0  0  0
   17.4880   -8.9050    6.9794 C   0  0  0  0  0  0  0  0  0  0  0  0
   18.4004   -8.0640    6.3355 C   0  0  0  0  0  0  0  0  0  0  0  0
   19.4386   -7.4693    7.0592 C   0  0  0  0  0  0  0  0  0  0  0  0
   19.5694   -7.7124    8.4300 C   0  0  0  0  0  0  0  0  0  0  0  0
   15.7506   -8.4990   19.0883 N   0  0  0  0  0  0  0  0  0  0  0  0
   16.3818   -9.1313   19.5019 H   0  0  0  0  0  0  0  0  0  0  0  0
   13.4243   -6.2339   21.8126 C   0  0  0  0  0  0  0  0  0  0  0  0
   14.4677   -7.0405   22.2765 C   0  0  0  0  0  0  0  0  0  0  0  0
   15.2265   -7.7827   21.3575 C   0  0  0  0  0  0  0  0  0  0  0  0
   14.9503   -7.7201   19.9885 C   0  0  0  0  0  0  0  0  0  0  0  0
   13.8995   -6.9082   19.5396 C   0  0  0  0  0  0  0  0  0  0  0  0
   13.1325   -6.1622   20.4475 C   0  0  0  0  0  0  0  0  0  0  0  0
   12.0797   -5.3479   20.0214 O   0  0  0  0  0  0  0  0  0  0  0  0
   12.0797   -4.6907   18.7611 C   0  0  0  0  0  0  0  0  0  0  0  0
   14.7274   -7.0874   23.6488 O   0  0  0  0  0  0  0  0  0  0  0  0
   16.0451   -7.1047   24.1805 C   0  0  0  0  0  0  0  0  0  0  0  0
 28 29  2  0  0  0
 29 30  1  0  0  0
 30 31  2  0  0  0
 31 32  1  0  0  0
 32 33  2  0  0  0
 33 34  1  0  0  0
 34 35  1  0  0  0
 31 26  1  0  0  0
 26  1  1  0  0  0
  1  2  2  0  0  0
  2  3  1  0  0  0
  3  4  2  0  0  0
  4  5  1  0  0  0
  5  6  2  0  0  0
  6  7  1  0  0  0
  7  8  2  0  0  0
  8  9  1  0  0  0
  9 10  2  0  0  0
 10 11  1  0  0  0
 11 12  1  0  0  0
 12 13  2  0  0  0
 12 15  1  0  0  0
 15 16  1  0  0  0
 16 17  1  0  0  0
 17 18  2  0  0  0
 18 19  1  0  0  0
 19 20  2  0  0  0
 19 21  1  0  0  0
 18 22  1  0  0  0
 22 23  2  0  0  0
 23 24  1  0  0  0
 24 25  2  0  0  0
 29 36  1  0  0  0
 36 37  1  0  0  0
 33 28  1  0  0  0
  6  1  1  0  0  0
 21 15  2  0  0  0
 10  5  1  0  0  0
 25 17  1  0  0  0
 26 27  1  0  0  0
 11 14  1  0  0  0
M  END
>  <minimizedAffinity>
-7.73557

>  <minimizedRMSD>
1.07783

$$$$
CHEMBL3808521 PubChem-76903080


 36 39  0  0  0  0  0  0  0  0999 V2000
   18.5958  -11.5427   14.0959 C   0  0  0  0  0  0  0  0  0  0  0  0
   17.8019  -10.6863   15.0234 C   0  0  0  0  0  0  0  0  0  0  0  0
   16.6853   -9.9551   14.5767 C   0  0  0  0  0  0  0  0  0  0  0  0
   15.9756   -9.1563   15.4796 C   0  0  0  0  0  0  0  0  0  0  0  0
   16.3574   -9.0867   16.8272 C   0  0  0  0  0  0  0  0  0  0  0  0
   17.4633   -9.8222   17.2630 C   0  0  0  0  0  0  0  0  0  0  0  0
   18.1824  -10.6171   16.3667 C   0  0  0  0  0  0  0  0  0  0  0  0
   15.6483   -8.2800   17.7774 N   0  0  0  0  0  0  0  0  0  0  0  0
   14.3687   -7.6543   17.5972 C   0  0  0  0  0  0  0  0  0  0  0  0
   13.7490   -7.7866   16.5062 O   0  0  0  0  0  0  0  0  0  0  0  0
   16.0865   -8.1401   18.6478 H   0  0  0  0  0  0  0  0  0  0  0  0
   13.7594   -6.8464   18.6837 C   0  0  0  0  0  0  0  0  0  0  0  0
   12.4867   -6.2927   18.4661 C   0  0  0  0  0  0  0  0  0  0  0  0
   11.8585   -5.5235   19.4463 C   0  0  0  0  0  0  0  0  0  0  0  0
   12.4949   -5.2947   20.6644 C   0  0  0  0  0  0  0  0  0  0  0  0
   13.7587   -5.8352   20.9009 C   0  0  0  0  0  0  0  0  0  0  0  0
   14.4048   -6.6124   19.9235 C   0  0  0  0  0  0  0  0  0  0  0  0
   15.6734   -7.1483   20.1773 O   0  0  0  0  0  0  0  0  0  0  0  0
   16.4117   -6.8661   21.3588 C   0  0  0  0  0  0  0  0  0  0  0  0
   16.2558   -9.9793   13.1472 C   0  0  0  0  0  0  0  0  0  0  0  0
   17.2021   -9.2270   12.3372 N   0  0  0  0  0  0  0  0  0  0  0  0
   17.8741   -8.6702   12.7929 H   0  0  0  0  0  0  0  0  0  0  0  0
   17.1978   -9.2617   10.9088 C   0  0  0  0  0  0  0  0  0  0  0  0
   16.2467  -10.0321   10.1948 C   0  0  0  0  0  0  0  0  0  0  0  0
   16.2539  -10.0568    8.8285 N   0  0  0  0  0  0  0  0  0  0  0  0
   17.1865   -9.3317    8.1625 C   0  0  0  0  0  0  0  0  0  0  0  0
   18.1183   -8.5780    8.8118 C   0  0  0  0  0  0  0  0  0  0  0  0
   18.1567   -8.5168   10.2001 C   0  0  0  0  0  0  0  0  0  0  0  0
   18.9125   -7.9690    7.8696 C   0  0  0  0  0  0  0  0  0  0  0  0
   18.3728   -8.4241    6.6614 C   0  0  0  0  0  0  0  0  0  0  0  0
   17.3163   -9.2584    6.8311 N   0  0  0  0  0  0  0  0  0  0  0  0
   16.7743   -9.7037    6.1404 H   0  0  0  0  0  0  0  0  0  0  0  0
   18.8811   -8.0506    5.3368 C   0  0  0  0  0  0  0  0  0  0  0  0
   19.8354   -7.2313    5.2356 O   0  0  0  0  0  0  0  0  0  0  0  0
   18.3012   -8.6079    4.1960 O   0  0  0  0  0  0  0  0  0  0  0  0
   18.7965   -8.3357    2.8938 C   0  0  0  0  0  0  0  0  0  0  0  0
  1  2  1  0  0  0
  2  3  2  0  0  0
  3  4  1  0  0  0
  3 20  1  0  0  0
  4  5  2  0  0  0
  5  6  1  0  0  0
  5  8  1  0  0  0
  6  7  2  0  0  0
  7  2  1  0  0  0
  8  9  1  0  0  0
  9 10  2  0  0  0
  9 12  1  0  0  0
 12 13  2  0  0  0
 13 14  1  0  0  0
 14 15  2  0  0  0
 15 16  1  0  0  0
 16 17  2  0  0  0
 17 18  1  0  0  0
 17 12  1  0  0  0
 18 19  1  0  0  0
 20 21  1  0  0  0
 21 23  1  0  0  0
 23 24  2  0  0  0
 24 25  1  0  0  0
 25 26  2  0  0  0
 26 27  1  0  0  0
 27 28  2  0  0  0
 27 29  1  0  0  0
 28 23  1  0  0  0
 29 30  2  0  0  0
 30 31  1  0  0  0
 30 33  1  0  0  0
 31 26  1  0  0  0
 33 34  2  0  0  0
 33 35  1  0  0  0
 35 36  1  0  0  0
  8 11  1  0  0  0
 21 22  1  0  0  0
 31 32  1  0  0  0
M  END
>  <minimizedAffinity>
-8.76267

>  <minimizedRMSD>
1.08204

$$$$
CHEMBL3315203 PubChem-118708038


 33 36  0  0  0  0  0  0  0  0999 V2000
   17.3551   -9.8655   11.9827 C   0  0  0  0  0  0  0  0  0  0  0  0
   16.3612  -10.4612   12.8017 C   0  0  0  0  0  0  0  0  0  0  0  0
   16.5700  -10.6525   14.1784 C   0  0  0  0  0  0  0  0  0  0  0  0
   17.7931  -10.2426   14.7055 C   0  0  0  0  0  0  0  0  0  0  0  0
   18.7615   -9.6768   13.9285 C   0  0  0  0  0  0  0  0  0  0  0  0
   18.5826   -9.4751   12.5634 C   0  0  0  0  0  0  0  0  0  0  0  0
   19.8430   -9.3715   14.7324 C   0  0  0  0  0  0  0  0  0  0  0  0
   19.4558   -9.7839   16.0117 C   0  0  0  0  0  0  0  0  0  0  0  0
   18.2126  -10.3169   15.9764 N   0  0  0  0  0  0  0  0  0  0  0  0
   17.1075   -9.7031   10.5241 C   0  0  0  0  0  0  0  0  0  0  0  0
   15.9537  -10.2871    9.9774 C   0  0  0  0  0  0  0  0  0  0  0  0
   15.6767  -10.1886    8.6509 N   0  0  0  0  0  0  0  0  0  0  0  0
   16.4952   -9.5221    7.7983 C   0  0  0  0  0  0  0  0  0  0  0  0
   17.6514   -8.9096    8.2752 C   0  0  0  0  0  0  0  0  0  0  0  0
   17.9700   -8.9908    9.6527 C   0  0  0  0  0  0  0  0  0  0  0  0
   19.1226   -8.3325   10.1132 C   0  0  0  0  0  0  0  0  0  0  0  0
   19.9472   -7.6313    9.2294 C   0  0  0  0  0  0  0  0  0  0  0  0
   19.6277   -7.5719    7.8714 C   0  0  0  0  0  0  0  0  0  0  0  0
   18.4800   -8.2086    7.3949 C   0  0  0  0  0  0  0  0  0  0  0  0
   17.4608  -10.8003   17.1252 C   0  0  0  0  0  0  0  0  0  0  0  0
   16.2398   -9.9696   17.3195 C   0  0  0  0  0  0  0  0  0  0  0  0
   15.3039  -10.0307   16.4787 O   0  0  0  0  0  0  0  0  0  0  0  0
   16.1584   -9.0834   18.4372 N   0  0  0  0  0  0  0  0  0  0  0  0
   16.8783   -9.1022   19.1084 H   0  0  0  0  0  0  0  0  0  0  0  0
   15.0526   -8.1527   18.6238 C   0  0  0  0  0  0  0  0  0  0  0  0
   14.7200   -7.4810   17.3309 C   0  0  0  0  0  0  0  0  0  0  0  0
   15.5855   -7.3761   16.4218 O   0  0  0  0  0  0  0  0  0  0  0  0
   13.4439   -6.9739   17.1290 O   0  0  0  0  0  0  0  0  0  0  0  0
   12.7974   -7.0500   17.8029 H   0  0  0  0  0  0  0  0  0  0  0  0
   15.4214   -7.1113   19.6716 C   0  0  0  0  0  0  0  0  0  0  0  0
   14.9429   -7.5283   21.0530 C   0  0  0  0  0  0  0  0  0  0  0  0
   13.4286   -7.4673   21.1244 C   0  0  0  0  0  0  0  0  0  0  0  0
   15.5265   -6.5906   22.0882 C   0  0  0  0  0  0  0  0  0  0  0  0
  1  2  2  0  0  0
  2  3  1  0  0  0
  3  4  2  0  0  0
  4  5  1  0  0  0
  5  6  2  0  0  0
  5  7  1  0  0  0
  7  8  2  0  0  0
  8  9  1  0  0  0
  9 20  1  0  0  0
 20 21  1  0  0  0
 21 22  2  0  0  0
 21 23  1  0  0  0
 23 25  1  0  0  0
 25 26  1  0  0  0
 26 27  2  0  0  0
 26 28  1  0  0  0
 25 30  1  0  0  0
 30 31  1  0  0  0
 31 32  1  0  0  0
 31 33  1  0  0  0
  1 10  1  0  0  0
 10 11  2  0  0  0
 11 12  1  0  0  0
 12 13  2  0  0  0
 13 14  1  0  0  0
 14 15  2  0  0  0
 15 16  1  0  0  0
 16 17  2  0  0  0
 17 18  1  0  0  0
 18 19  2  0  0  0
  6  1  1  0  0  0
 15 10  1  0  0  0
  9  4  1  0  0  0
 19 14  1  0  0  0
 23 24  1  0  0  0
 28 29  1  0  0  0
M  END
>  <minimizedAffinity>
-3.82491

>  <minimizedRMSD>
1.08588

$$$$
CHEMBL3906976 PubChem-134135473


 31 34  0  0  0  0  0  0  0  0999 V2000
   17.3096   -9.7149   14.1225 C   0  0  0  0  0  0  0  0  0  0  0  0
   16.4791   -8.8904   14.8888 C   0  0  0  0  0  0  0  0  0  0  0  0
   16.3771   -9.0594   16.2762 C   0  0  0  0  0  0  0  0  0  0  0  0
   17.1322  -10.0594   16.9005 C   0  0  0  0  0  0  0  0  0  0  0  0
   17.9878  -10.8687   16.1509 C   0  0  0  0  0  0  0  0  0  0  0  0
   18.0889  -10.7013   14.7669 C   0  0  0  0  0  0  0  0  0  0  0  0
   19.0870  -11.5290   14.0316 C   0  0  0  0  0  0  0  0  0  0  0  0
   15.1728  -10.0503   12.1848 O   0  0  0  0  0  0  0  0  0  0  0  0
   16.3338   -9.7775   11.7754 C   0  0  0  0  0  0  0  0  0  0  0  0
   17.3779   -9.4809   12.7099 N   0  0  0  0  0  0  0  0  0  0  0  0
   18.2067   -9.0859   12.3545 H   0  0  0  0  0  0  0  0  0  0  0  0
   16.5985   -9.7210   10.3299 C   0  0  0  0  0  0  0  0  0  0  0  0
   17.5701   -9.0081    9.6604 C   0  0  0  0  0  0  0  0  0  0  0  0
   17.4466   -9.2553    8.3493 N   0  0  0  0  0  0  0  0  0  0  0  0
   16.4470  -10.0908    8.1296 N   0  0  0  0  0  0  0  0  0  0  0  0
   15.9007  -10.3993    9.3316 C   0  0  0  0  0  0  0  0  0  0  0  0
   18.2533   -8.7065    7.4071 C   0  0  0  0  0  0  0  0  0  0  0  0
   19.2679   -7.8357    7.8315 C   0  0  0  0  0  0  0  0  0  0  0  0
   19.4158   -7.5613    9.2044 C   0  0  0  0  0  0  0  0  0  0  0  0
   18.5579   -8.1518   10.1458 C   0  0  0  0  0  0  0  0  0  0  0  0
   15.4865   -8.1941   17.0693 C   0  0  0  0  0  0  0  0  0  0  0  0
   14.6104   -7.4924   16.4933 O   0  0  0  0  0  0  0  0  0  0  0  0
   15.6141   -8.1492   18.4926 N   0  0  0  0  0  0  0  0  0  0  0  0
   16.3024   -8.7029   18.9273 H   0  0  0  0  0  0  0  0  0  0  0  0
   14.7592   -7.3114   19.3183 C   0  0  0  0  0  0  0  0  0  0  0  0
   15.3323   -7.2044   20.6871 C   0  0  0  0  0  0  0  0  0  0  0  0
   14.6249   -7.7099   21.7836 C   0  0  0  0  0  0  0  0  0  0  0  0
   15.1736   -7.6305   23.0674 C   0  0  0  0  0  0  0  0  0  0  0  0
   16.4321   -7.0506   23.2552 C   0  0  0  0  0  0  0  0  0  0  0  0
   17.1435   -6.5522   22.1591 C   0  0  0  0  0  0  0  0  0  0  0  0
   16.5951   -6.6315   20.8751 C   0  0  0  0  0  0  0  0  0  0  0  0
  8  9  2  0  0  0
  9 10  1  0  0  0
 10  1  1  0  0  0
  1  2  2  0  0  0
  2  3  1  0  0  0
  3 21  1  0  0  0
 21 22  2  0  0  0
 21 23  1  0  0  0
 23 25  1  0  0  0
 25 26  1  0  0  0
 26 27  2  0  0  0
 27 28  1  0  0  0
 28 29  2  0  0  0
 29 30  1  0  0  0
 30 31  2  0  0  0
  3  4  2  0  0  0
  4  5  1  0  0  0
  5  6  2  0  0  0
  6  7  1  0  0  0
  9 12  1  0  0  0
 12 13  2  0  0  0
 13 14  1  0  0  0
 14 15  1  0  0  0
 15 16  2  0  0  0
 14 17  1  0  0  0
 17 18  2  0  0  0
 18 19  1  0  0  0
 19 20  2  0  0  0
  6  1  1  0  0  0
 16 12  1  0  0  0
 31 26  1  0  0  0
 20 13  1  0  0  0
 10 11  1  0  0  0
 23 24  1  0  0  0
M  END
>  <minimizedAffinity>
-11.03129

>  <minimizedRMSD>
1.09068

$$$$
CHEMBL3923164 PubChem-71280333


 30 33  0  0  0  0  0  0  0  0999 V2000
   18.1623  -11.9644   13.8015 C   0  0  0  0  0  0  0  0  0  0  0  0
   17.5259  -10.9154   14.6481 C   0  0  0  0  0  0  0  0  0  0  0  0
   16.7333   -9.8837   14.0974 C   0  0  0  0  0  0  0  0  0  0  0  0
   16.0685   -9.0001   14.9543 C   0  0  0  0  0  0  0  0  0  0  0  0
   16.2128   -9.0981   16.3449 C   0  0  0  0  0  0  0  0  0  0  0  0
   17.0230  -10.1074   16.8784 C   0  0  0  0  0  0  0  0  0  0  0  0
   17.6685  -11.0137   16.0351 C   0  0  0  0  0  0  0  0  0  0  0  0
   15.5194   -8.1508   17.2353 C   0  0  0  0  0  0  0  0  0  0  0  0
   14.6963   -7.3274   16.7529 O   0  0  0  0  0  0  0  0  0  0  0  0
   15.7867   -8.1727   18.6462 N   0  0  0  0  0  0  0  0  0  0  0  0
   16.4403   -8.8412   18.9549 H   0  0  0  0  0  0  0  0  0  0  0  0
   15.1998   -7.3157   19.6794 C   0  0  0  0  0  0  0  0  0  0  0  0
   13.7998   -6.8443   19.3183 C   0  0  0  0  0  0  0  0  0  0  0  0
   13.2639   -7.5708   20.5361 C   0  0  0  0  0  0  0  0  0  0  0  0
   14.6448   -8.1124   20.8498 C   0  0  0  0  0  0  0  0  0  0  0  0
   12.3511   -8.5595   20.2212 F   0  0  0  0  0  0  0  0  0  0  0  0
   12.8054   -6.7016   21.5087 F   0  0  0  0  0  0  0  0  0  0  0  0
   16.5327   -9.7379   12.6857 N   0  0  0  0  0  0  0  0  0  0  0  0
   17.5773   -9.5605   11.7220 C   0  0  0  0  0  0  0  0  0  0  0  0
   18.7472   -9.2794   12.0980 O   0  0  0  0  0  0  0  0  0  0  0  0
   15.6063   -9.7614   12.3531 H   0  0  0  0  0  0  0  0  0  0  0  0
   17.2661   -9.6648   10.2864 C   0  0  0  0  0  0  0  0  0  0  0  0
   16.3139  -10.5038    9.7221 C   0  0  0  0  0  0  0  0  0  0  0  0
   16.3144  -10.3252    8.3771 N   0  0  0  0  0  0  0  0  0  0  0  0
   17.2606   -9.3901    8.1660 C   0  0  0  0  0  0  0  0  0  0  0  0
   17.8524   -8.9722    9.2955 N   0  0  0  0  0  0  0  0  0  0  0  0
   18.8356   -8.0356    9.3233 C   0  0  0  0  0  0  0  0  0  0  0  0
   19.2506   -7.4782    8.1057 C   0  0  0  0  0  0  0  0  0  0  0  0
   18.6434   -7.9010    6.9083 C   0  0  0  0  0  0  0  0  0  0  0  0
   17.6304   -8.8730    6.9265 C   0  0  0  0  0  0  0  0  0  0  0  0
  1  2  1  0  0  0
  2  3  2  0  0  0
  3  4  1  0  0  0
  3 18  1  0  0  0
  4  5  2  0  0  0
  5  6  1  0  0  0
  5  8  1  0  0  0
  6  7  2  0  0  0
  7  2  1  0  0  0
  8  9  2  0  0  0
  8 10  1  0  0  0
 10 12  1  0  0  0
 12 13  1  0  0  0
 13 14  1  0  0  0
 14 15  1  0  0  0
 14 16  1  0  0  0
 14 17  1  0  0  0
 15 12  1  0  0  0
 18 19  1  0  0  0
 19 20  2  0  0  0
 19 22  1  0  0  0
 22 23  2  0  0  0
 23 24  1  0  0  0
 24 25  2  0  0  0
 25 26  1  0  0  0
 26 27  1  0  0  0
 26 22  1  0  0  0
 27 28  2  0  0  0
 28 29  1  0  0  0
 29 30  2  0  0  0
 30 25  1  0  0  0
 10 11  1  0  0  0
 18 21  1  0  0  0
M  END
>  <minimizedAffinity>
-10.72603

>  <minimizedRMSD>
1.10511

$$$$
CHEMBL1357143 ChemDiv-G756-0555 MCULE-2939669268 MolPort-007-879-265 PubChem-16030602 ZINC000008598280 ZINC08598280


 27 29  0  0  0  0  0  0  0  0999 V2000
   17.4854   -9.8180   13.5466 O   0  0  0  0  0  0  0  0  0  0  0  0
   16.6919   -9.7519   17.1601 C   0  0  0  0  0  0  0  0  0  0  0  0
   16.7472   -9.4058   15.8013 C   0  0  0  0  0  0  0  0  0  0  0  0
   17.4549  -10.1968   14.8910 C   0  0  0  0  0  0  0  0  0  0  0  0
   18.1156  -11.3483   15.3474 C   0  0  0  0  0  0  0  0  0  0  0  0
   18.0653  -11.6985   16.6988 C   0  0  0  0  0  0  0  0  0  0  0  0
   17.3555  -10.9015   17.6009 C   0  0  0  0  0  0  0  0  0  0  0  0
   15.0460   -7.9061   17.8333 C   0  0  0  0  0  0  0  0  0  0  0  0
   14.7501   -7.5967   16.6481 O   0  0  0  0  0  0  0  0  0  0  0  0
   15.9762   -8.9590   18.1169 N   0  0  0  0  0  0  0  0  0  0  0  0
   16.1408   -9.1584   19.0668 H   0  0  0  0  0  0  0  0  0  0  0  0
   14.4071   -7.1773   18.9677 C   0  0  0  0  0  0  0  0  0  0  0  0
   14.5811   -7.7698   21.3862 C   0  0  0  0  0  0  0  0  0  0  0  0
   15.3063   -7.1735   20.1942 C   0  0  0  0  0  0  0  0  0  0  0  0
   18.1464  -10.5838   12.5479 C   0  0  0  0  0  0  0  0  0  0  0  0
   17.7987  -10.0549   11.2028 C   0  0  0  0  0  0  0  0  0  0  0  0
   16.5410  -10.2998   10.6626 C   0  0  0  0  0  0  0  0  0  0  0  0
   16.2325   -9.7692    9.4116 C   0  0  0  0  0  0  0  0  0  0  0  0
   15.0931   -9.9946    8.9185 O   0  0  0  0  0  0  0  0  0  0  0  0
   17.1556   -9.0154    8.7364 N   0  0  0  0  0  0  0  0  0  0  0  0
   16.8454   -8.4986    7.5103 C   0  0  0  0  0  0  0  0  0  0  0  0
   17.7670   -7.7256    6.8045 C   0  0  0  0  0  0  0  0  0  0  0  0
   19.0190   -7.4793    7.3611 C   0  0  0  0  0  0  0  0  0  0  0  0
   19.3417   -8.0034    8.6114 C   0  0  0  0  0  0  0  0  0  0  0  0
   20.6887   -7.7262    9.1878 C   0  0  0  0  0  0  0  0  0  0  0  0
   18.3926   -8.7795    9.2981 C   0  0  0  0  0  0  0  0  0  0  0  0
   18.6932   -9.2983   10.5199 N   0  0  0  0  0  0  0  0  0  0  0  0
 13 14  1  0  0  0
 14 12  1  0  0  0
 12  8  1  0  0  0
  8  9  2  0  0  0
  8 10  1  0  0  0
 10  2  1  0  0  0
  2  3  2  0  0  0
  3  4  1  0  0  0
  4  1  1  0  0  0
  4  5  2  0  0  0
  1 15  1  0  0  0
 15 16  1  0  0  0
 16 17  2  0  0  0
 17 18  1  0  0  0
 18 19  2  0  0  0
 18 20  1  0  0  0
 20 21  1  0  0  0
 21 22  2  0  0  0
 22 23  1  0  0  0
 23 24  2  0  0  0
 24 25  1  0  0  0
 24 26  1  0  0  0
 26 27  2  0  0  0
 26 20  1  0  0  0
 27 16  1  0  0  0
  5  6  1  0  0  0
  6  7  2  0  0  0
  7  2  1  0  0  0
 10 11  1  0  0  0
M  END
>  <minimizedAffinity>
-5.94312

>  <minimizedRMSD>
1.10582

$$$$
CHEMBL400424


 35 39  0  0  0  0  0  0  0  0999 V2000
   16.5394   -7.7703   10.1219 C   0  0  0  0  0  0  0  0  0  0  0  0
   16.2722   -9.8082    8.6741 C   0  0  0  0  0  0  0  0  0  0  0  0
   16.7919  -10.3929    7.5659 N   0  0  0  0  0  0  0  0  0  0  0  0
   17.6859   -9.4848    7.1367 C   0  0  0  0  0  0  0  0  0  0  0  0
   18.5608   -9.6267    6.0646 C   0  0  0  0  0  0  0  0  0  0  0  0
   19.4703   -8.5860    5.8232 C   0  0  0  0  0  0  0  0  0  0  0  0
   19.4796   -7.4395    6.6423 C   0  0  0  0  0  0  0  0  0  0  0  0
   18.5800   -7.3059    7.7195 C   0  0  0  0  0  0  0  0  0  0  0  0
   17.6920   -8.3791    7.9487 C   0  0  0  0  0  0  0  0  0  0  0  0
   16.7969   -8.5841    8.9372 N   0  0  0  0  0  0  0  0  0  0  0  0
   18.5841   -6.0505    8.4891 C   0  0  0  0  0  0  0  0  0  0  0  0
   19.1004   -6.0195    9.6374 O   0  0  0  0  0  0  0  0  0  0  0  0
   18.1089   -4.8722    7.9282 O   0  0  0  0  0  0  0  0  0  0  0  0
   17.7226   -4.8822    7.0746 H   0  0  0  0  0  0  0  0  0  0  0  0
   15.2423  -10.4754    9.5322 C   0  0  0  0  0  0  0  0  0  0  0  0
   15.6482  -11.9018    9.8768 C   0  0  0  0  0  0  0  0  0  0  0  0
   16.8068  -12.7418   11.8976 C   0  0  0  0  0  0  0  0  0  0  0  0
   16.9629  -11.9245   10.6335 C   0  0  0  0  0  0  0  0  0  0  0  0
   16.8316   -8.5340   11.3710 C   0  0  0  0  0  0  0  0  0  0  0  0
   18.1067   -9.0621   11.6046 C   0  0  0  0  0  0  0  0  0  0  0  0
   18.3660   -9.7726   12.7794 C   0  0  0  0  0  0  0  0  0  0  0  0
   17.3591   -9.9462   13.7401 C   0  0  0  0  0  0  0  0  0  0  0  0
   16.0814   -9.4210   13.4956 C   0  0  0  0  0  0  0  0  0  0  0  0
   15.8217   -8.7108   12.3206 C   0  0  0  0  0  0  0  0  0  0  0  0
   17.6181  -10.7239   14.9194 N   0  0  0  0  0  0  0  0  0  0  0  0
   18.3422  -11.8583   14.9264 C   0  0  0  0  0  0  0  0  0  0  0  0
   18.3279  -12.4122   16.1938 C   0  0  0  0  0  0  0  0  0  0  0  0
   17.5648  -11.5766   16.9926 C   0  0  0  0  0  0  0  0  0  0  0  0
   17.1467  -10.5462   16.1740 C   0  0  0  0  0  0  0  0  0  0  0  0
   16.3891   -9.3801   16.6661 C   0  0  0  0  0  0  0  0  0  0  0  0
   15.4825   -8.6896   15.9516 N   0  0  0  0  0  0  0  0  0  0  0  0
   15.1028   -7.7051   16.7490 N   0  0  0  0  0  0  0  0  0  0  0  0
   15.7563   -7.7827   17.8970 N   0  0  0  0  0  0  0  0  0  0  0  0
   16.5773   -8.8196   17.8747 N   0  0  0  0  0  0  0  0  0  0  0  0
   17.1907   -9.1158   18.5855 H   0  0  0  0  0  0  0  0  0  0  0  0
 17 18  1  0  0  0
 18 16  1  0  0  0
 16 15  1  0  0  0
 15  2  1  0  0  0
  2  3  2  0  0  0
  3  4  1  0  0  0
  4  5  2  0  0  0
  5  6  1  0  0  0
  6  7  2  0  0  0
  7  8  1  0  0  0
  8 11  1  0  0  0
  8  9  2  0  0  0
 11 12  2  0  0  0
 11 13  1  0  0  0
  9 10  1  0  0  0
  9  4  1  0  0  0
 10  1  1  0  0  0
 10  2  1  0  0  0
  1 19  1  0  0  0
 19 20  2  0  0  0
 20 21  1  0  0  0
 21 22  2  0  0  0
 22 25  1  0  0  0
 22 23  1  0  0  0
 25 26  1  0  0  0
 26 27  2  0  0  0
 27 28  1  0  0  0
 28 29  2  0  0  0
 29 30  1  0  0  0
 29 25  1  0  0  0
 30 31  2  0  0  0
 31 32  1  0  0  0
 32 33  2  0  0  0
 33 34  1  0  0  0
 34 30  1  0  0  0
 23 24  2  0  0  0
 24 19  1  0  0  0
 13 14  1  0  0  0
 34 35  1  0  0  0
M  END
>  <minimizedAffinity>
7.28566

>  <minimizedRMSD>
1.11068

$$$$
CHEMBL1642565 PubChem-53321174


 36 40  0  0  0  0  0  0  0  0999 V2000
   16.0186   -9.6630   12.3916 C   0  0  0  0  0  0  0  0  0  0  0  0
   14.8313  -10.3637   12.6442 C   0  0  0  0  0  0  0  0  0  0  0  0
   14.4457  -10.6457   13.9566 C   0  0  0  0  0  0  0  0  0  0  0  0
   15.2486  -10.2410   15.0236 C   0  0  0  0  0  0  0  0  0  0  0  0
   16.4445   -9.5452   14.7863 C   0  0  0  0  0  0  0  0  0  0  0  0
   16.8232   -9.2660   13.4676 C   0  0  0  0  0  0  0  0  0  0  0  0
   17.8918   -8.7658    6.5655 C   0  0  0  0  0  0  0  0  0  0  0  0
   16.7893   -9.2310    7.2382 N   0  0  0  0  0  0  0  0  0  0  0  0
   16.7638   -9.2193    8.6039 C   0  0  0  0  0  0  0  0  0  0  0  0
   15.5521   -9.7768    9.6148 S   0  0  0  0  0  0  0  0  0  0  0  0
   16.4530   -9.3956   11.0109 C   0  0  0  0  0  0  0  0  0  0  0  0
   17.6613   -8.8501   10.7108 N   0  0  0  0  0  0  0  0  0  0  0  0
   17.8209   -8.7537    9.3690 C   0  0  0  0  0  0  0  0  0  0  0  0
   18.9366   -8.2762    8.6939 C   0  0  0  0  0  0  0  0  0  0  0  0
   18.9772   -8.2770    7.3291 C   0  0  0  0  0  0  0  0  0  0  0  0
   20.1517   -7.7669    6.9066 N   0  0  0  0  0  0  0  0  0  0  0  0
   20.8071   -7.4588    8.0596 C   0  0  0  0  0  0  0  0  0  0  0  0
   20.0802   -7.7594    9.1618 N   0  0  0  0  0  0  0  0  0  0  0  0
   20.4980   -7.6000   10.5416 C   0  0  0  0  0  0  0  0  0  0  0  0
   17.9108   -8.8192    5.1333 N   0  0  0  0  0  0  0  0  0  0  0  0
   17.1657   -9.2751    4.6790 H   0  0  0  0  0  0  0  0  0  0  0  0
   18.5858   -8.3593    2.8424 C   0  0  0  0  0  0  0  0  0  0  0  0
   18.9626   -8.2416    4.3068 C   0  0  0  0  0  0  0  0  0  0  0  0
   17.3612   -9.1447   15.9094 C   0  0  0  0  0  0  0  0  0  0  0  0
   18.4799  -10.1574   16.0679 C   0  0  0  0  0  0  0  0  0  0  0  0
   16.6463   -9.0067   17.1723 N   0  0  0  0  0  0  0  0  0  0  0  0
   15.5631   -8.0910   17.3470 C   0  0  0  0  0  0  0  0  0  0  0  0
   15.2070   -7.3360   16.4036 O   0  0  0  0  0  0  0  0  0  0  0  0
   16.9203   -9.5662   17.9346 H   0  0  0  0  0  0  0  0  0  0  0  0
   14.8630   -8.0302   18.6604 C   0  0  0  0  0  0  0  0  0  0  0  0
   13.5449   -7.2587   18.5369 C   0  0  0  0  0  0  0  0  0  0  0  0
   13.0326   -6.7546   19.8963 C   0  0  0  0  0  0  0  0  0  0  0  0
   13.6139   -7.5256   20.9924 N   0  0  0  0  0  0  0  0  0  0  0  0
   15.0482   -7.2269   21.0705 C   0  0  0  0  0  0  0  0  0  0  0  0
   15.7766   -7.4245   19.7254 C   0  0  0  0  0  0  0  0  0  0  0  0
   13.4799   -8.5219   20.8198 H   0  0  0  0  0  0  0  0  0  0  0  0
 22 23  1  0  0  0
 23 20  1  0  0  0
 20  7  1  0  0  0
  7  8  2  0  0  0
  8  9  1  0  0  0
  9 10  1  0  0  0
 10 11  1  0  0  0
 11  1  1  0  0  0
 11 12  2  0  0  0
  1  2  2  0  0  0
  2  3  1  0  0  0
  3  4  2  0  0  0
  4  5  1  0  0  0
  5  6  2  0  0  0
 24  5  1  0  0  0
 24 25  1  0  0  0
 24 26  1  0  0  0
 26 27  1  0  0  0
 27 28  2  0  0  0
 27 30  1  0  0  0
 30 31  1  0  0  0
 31 32  1  0  0  0
 32 33  1  0  0  0
 33 34  1  0  0  0
 34 35  1  0  0  0
 35 30  1  0  0  0
  6  1  1  0  0  0
 12 13  1  0  0  0
 13 14  1  0  0  0
 13  9  2  0  0  0
 14 15  2  0  0  0
 15 16  1  0  0  0
 15  7  1  0  0  0
 16 17  2  0  0  0
 17 18  1  0  0  0
 18 19  1  0  0  0
 18 14  1  0  0  0
 20 21  1  0  0  0
 26 29  1  0  0  0
 33 36  1  0  0  0
M  END
>  <minimizedAffinity>
-0.74409

>  <minimizedRMSD>
1.11475

$$$$
CHEMBL5193775 PubChem-164172189


 36 40  0  0  0  0  0  0  0  0999 V2000
   15.8759   -8.4362   18.6197 N   0  0  0  0  0  0  0  0  0  0  0  0
   15.7396   -8.3544   17.1926 C   0  0  0  0  0  0  0  0  0  0  0  0
   14.9887   -7.4873   16.6680 O   0  0  0  0  0  0  0  0  0  0  0  0
   16.4782   -9.1342   18.9652 H   0  0  0  0  0  0  0  0  0  0  0  0
   15.1438   -6.7726   21.8784 C   0  0  0  0  0  0  0  0  0  0  0  0
   14.0123   -6.0140   21.5528 C   0  0  0  0  0  0  0  0  0  0  0  0
   13.4789   -6.0427   20.2561 C   0  0  0  0  0  0  0  0  0  0  0  0
   14.0944   -6.8439   19.2836 C   0  0  0  0  0  0  0  0  0  0  0  0
   15.2274   -7.6085   19.5948 C   0  0  0  0  0  0  0  0  0  0  0  0
   15.7446   -7.5672   20.8924 C   0  0  0  0  0  0  0  0  0  0  0  0
   12.3183   -5.2624   19.9282 N   0  0  0  0  0  0  0  0  0  0  0  0
   11.7947   -5.0797   18.7028 C   0  0  0  0  0  0  0  0  0  0  0  0
   10.6888   -4.2650   18.8446 C   0  0  0  0  0  0  0  0  0  0  0  0
   10.5371   -3.9513   20.1480 N   0  0  0  0  0  0  0  0  0  0  0  0
   11.5456   -4.5735   20.7874 C   0  0  0  0  0  0  0  0  0  0  0  0
   15.2012   -7.7902   24.0033 F   0  0  0  0  0  0  0  0  0  0  0  0
   15.6945   -6.7237   23.2741 C   0  0  0  0  0  0  0  0  0  0  0  0
   15.3093   -5.5427   23.8819 F   0  0  0  0  0  0  0  0  0  0  0  0
   17.0778   -6.7908   23.2666 F   0  0  0  0  0  0  0  0  0  0  0  0
   16.4839   -9.2917   16.3332 C   0  0  0  0  0  0  0  0  0  0  0  0
   16.4451   -9.1590   14.9371 C   0  0  0  0  0  0  0  0  0  0  0  0
   17.1515  -10.0487   14.1221 C   0  0  0  0  0  0  0  0  0  0  0  0
   17.9020  -11.0778   14.6976 C   0  0  0  0  0  0  0  0  0  0  0  0
   17.9462  -11.2172   16.0873 C   0  0  0  0  0  0  0  0  0  0  0  0
   17.2397  -10.3275   16.9019 C   0  0  0  0  0  0  0  0  0  0  0  0
   17.1059   -9.9046   12.6951 C   0  0  0  0  0  0  0  0  0  0  0  0
   17.0680   -9.7824   11.4964 C   0  0  0  0  0  0  0  0  0  0  0  0
   17.0241   -9.6345   10.0672 C   0  0  0  0  0  0  0  0  0  0  0  0
   17.8527   -8.8789    9.3406 N   0  0  0  0  0  0  0  0  0  0  0  0
   18.8706   -8.1159    9.7340 N   0  0  0  0  0  0  0  0  0  0  0  0
   19.5788   -7.4289    8.7926 C   0  0  0  0  0  0  0  0  0  0  0  0
   19.2228   -7.5387    7.4337 C   0  0  0  0  0  0  0  0  0  0  0  0
   18.1436   -8.3524    7.0532 C   0  0  0  0  0  0  0  0  0  0  0  0
   17.4708   -9.0207    8.0689 C   0  0  0  0  0  0  0  0  0  0  0  0
   16.4145   -9.8468    7.9284 N   0  0  0  0  0  0  0  0  0  0  0  0
   16.1260  -10.2405    9.1991 C   0  0  0  0  0  0  0  0  0  0  0  0
 16 17  1  0  0  0
 17 18  1  0  0  0
 17 19  1  0  0  0
 17  5  1  0  0  0
  5  6  2  0  0  0
  6  7  1  0  0  0
  7 11  1  0  0  0
 11 12  1  0  0  0
 12 13  2  0  0  0
 13 14  1  0  0  0
 14 15  2  0  0  0
  7  8  2  0  0  0
  8  9  1  0  0  0
  9  1  1  0  0  0
  1  2  1  0  0  0
  2  3  2  0  0  0
  2 20  1  0  0  0
 20 21  2  0  0  0
 21 22  1  0  0  0
 22 23  2  0  0  0
 23 24  1  0  0  0
 24 25  2  0  0  0
 22 26  1  0  0  0
 26 27  3  0  0  0
 27 28  1  0  0  0
 28 29  1  0  0  0
 29 30  1  0  0  0
 30 31  2  0  0  0
 31 32  1  0  0  0
 32 33  2  0  0  0
 33 34  1  0  0  0
 34 35  2  0  0  0
 35 36  1  0  0  0
  9 10  2  0  0  0
 10  5  1  0  0  0
 15 11  1  0  0  0
 25 20  1  0  0  0
 36 28  2  0  0  0
 34 29  1  0  0  0
  1  4  1  0  0  0
M  END
>  <minimizedAffinity>
-11.59307

>  <minimizedRMSD>
1.11604

$$$$
CHEMBL1473833 ChemDiv-G756-0575 MCULE-7787723167 MolPort-007-879-275 PubChem-16030283 ZINC000008673369 ZINC08673369


 33 36  0  0  0  0  0  0  0  0999 V2000
   17.2942   -9.9422   15.1523 C   0  0  0  0  0  0  0  0  0  0  0  0
   17.8280  -11.1309   15.6745 C   0  0  0  0  0  0  0  0  0  0  0  0
   17.7528  -11.3927   17.0445 C   0  0  0  0  0  0  0  0  0  0  0  0
   17.1445  -10.4701   17.8998 C   0  0  0  0  0  0  0  0  0  0  0  0
   16.6097   -9.2810   17.3935 C   0  0  0  0  0  0  0  0  0  0  0  0
   16.6878   -9.0249   16.0161 C   0  0  0  0  0  0  0  0  0  0  0  0
   15.9888   -8.3615   18.3020 N   0  0  0  0  0  0  0  0  0  0  0  0
   14.8539   -7.5274   18.0343 C   0  0  0  0  0  0  0  0  0  0  0  0
   14.3059   -7.5122   16.9007 O   0  0  0  0  0  0  0  0  0  0  0  0
   16.3823   -8.2964   19.2021 H   0  0  0  0  0  0  0  0  0  0  0  0
   14.3078   -6.6647   19.1198 C   0  0  0  0  0  0  0  0  0  0  0  0
   13.2919   -7.3572   19.8392 O   0  0  0  0  0  0  0  0  0  0  0  0
   12.1567   -7.9055   19.2319 C   0  0  0  0  0  0  0  0  0  0  0  0
   11.4148   -7.1940   18.2742 C   0  0  0  0  0  0  0  0  0  0  0  0
   10.2850   -7.7708   17.6868 C   0  0  0  0  0  0  0  0  0  0  0  0
    9.8889   -9.0601   18.0531 C   0  0  0  0  0  0  0  0  0  0  0  0
    8.7945   -9.6199   17.4842 F   0  0  0  0  0  0  0  0  0  0  0  0
   10.6216   -9.7717   19.0072 C   0  0  0  0  0  0  0  0  0  0  0  0
   11.7517   -9.1948   19.5945 C   0  0  0  0  0  0  0  0  0  0  0  0
   17.3518   -9.6496   13.7874 O   0  0  0  0  0  0  0  0  0  0  0  0
   17.9330  -10.5323   12.8367 C   0  0  0  0  0  0  0  0  0  0  0  0
   20.5385   -7.7472    9.4644 C   0  0  0  0  0  0  0  0  0  0  0  0
   19.2166   -8.0687    8.8536 C   0  0  0  0  0  0  0  0  0  0  0  0
   18.9276   -7.5942    7.5756 C   0  0  0  0  0  0  0  0  0  0  0  0
   17.6997   -7.8830    6.9861 C   0  0  0  0  0  0  0  0  0  0  0  0
   16.7681   -8.6483    7.6873 C   0  0  0  0  0  0  0  0  0  0  0  0
   17.0455   -9.1168    8.9405 N   0  0  0  0  0  0  0  0  0  0  0  0
   16.1129   -9.8635    9.6109 C   0  0  0  0  0  0  0  0  0  0  0  0
   14.9947  -10.1263    9.0886 O   0  0  0  0  0  0  0  0  0  0  0  0
   16.3878  -10.3448   10.8895 C   0  0  0  0  0  0  0  0  0  0  0  0
   17.6223  -10.0585   11.4623 C   0  0  0  0  0  0  0  0  0  0  0  0
   18.5260   -9.3089   10.7834 N   0  0  0  0  0  0  0  0  0  0  0  0
   18.2582   -8.8385    9.5348 C   0  0  0  0  0  0  0  0  0  0  0  0
 22 23  1  0  0  0
 23 24  2  0  0  0
 24 25  1  0  0  0
 25 26  2  0  0  0
 26 27  1  0  0  0
 27 28  1  0  0  0
 28 29  2  0  0  0
 28 30  1  0  0  0
 30 31  2  0  0  0
 31 21  1  0  0  0
 31 32  1  0  0  0
 21 20  1  0  0  0
 20  1  1  0  0  0
  1  2  2  0  0  0
  2  3  1  0  0  0
  3  4  2  0  0  0
  4  5  1  0  0  0
  5  7  1  0  0  0
  5  6  2  0  0  0
  7  8  1  0  0  0
  8  9  2  0  0  0
  8 11  1  0  0  0
 11 12  1  0  0  0
 12 13  1  0  0  0
 13 14  2  0  0  0
 14 15  1  0  0  0
 15 16  2  0  0  0
 16 17  1  0  0  0
 16 18  1  0  0  0
 18 19  2  0  0  0
 19 13  1  0  0  0
  6  1  1  0  0  0
 32 33  2  0  0  0
 33 23  1  0  0  0
 33 27  1  0  0  0
  7 10  1  0  0  0
M  END
>  <minimizedAffinity>
-7.22368

>  <minimizedRMSD>
1.11761

$$$$
CHEMBL2135021 8607747 ChemDiv-G357-0773 MCULE-1517337011 MolPort-007-847-325 PubChem-16027650 ZINC000008607747 ZINC08607747


 35 38  0  0  0  0  0  0  0  0999 V2000
   18.1646  -10.8238   13.5147 C   0  0  0  0  0  0  0  0  0  0  0  0
   18.5583  -12.0227   13.5486 O   0  0  0  0  0  0  0  0  0  0  0  0
   17.5849  -10.2039   14.7171 C   0  0  0  0  0  0  0  0  0  0  0  0
   17.6521  -10.8533   15.9575 C   0  0  0  0  0  0  0  0  0  0  0  0
   17.0995  -10.2596   17.0959 C   0  0  0  0  0  0  0  0  0  0  0  0
   16.4731   -9.0121   17.0109 C   0  0  0  0  0  0  0  0  0  0  0  0
   16.4061   -8.3619   15.7698 C   0  0  0  0  0  0  0  0  0  0  0  0
   16.9583   -8.9541   14.6309 C   0  0  0  0  0  0  0  0  0  0  0  0
   15.9191   -8.4361   18.2017 N   0  0  0  0  0  0  0  0  0  0  0  0
   14.7249   -7.6448   18.3015 C   0  0  0  0  0  0  0  0  0  0  0  0
   14.0329   -7.3950   17.2771 O   0  0  0  0  0  0  0  0  0  0  0  0
   16.4094   -8.6005   19.0394 H   0  0  0  0  0  0  0  0  0  0  0  0
   14.3030   -7.1220   19.6130 C   0  0  0  0  0  0  0  0  0  0  0  0
   13.1360   -6.3520   19.7289 C   0  0  0  0  0  0  0  0  0  0  0  0
   12.7363   -5.8568   20.9736 C   0  0  0  0  0  0  0  0  0  0  0  0
   11.4985   -5.0423   21.0861 C   0  0  0  0  0  0  0  0  0  0  0  0
   13.5005   -6.1275   22.1116 C   0  0  0  0  0  0  0  0  0  0  0  0
   14.6644   -6.8935   22.0054 C   0  0  0  0  0  0  0  0  0  0  0  0
   15.0640   -7.3889   20.7607 C   0  0  0  0  0  0  0  0  0  0  0  0
   18.2768  -10.0792   12.3383 O   0  0  0  0  0  0  0  0  0  0  0  0
   17.1438   -9.5117   11.6975 C   0  0  0  0  0  0  0  0  0  0  0  0
   19.2611   -7.7685    6.2814 C   0  0  0  0  0  0  0  0  0  0  0  0
   18.2614   -8.6827    6.3353 N   0  0  0  0  0  0  0  0  0  0  0  0
   17.9127   -8.9672    7.5876 N   0  0  0  0  0  0  0  0  0  0  0  0
   18.6166   -8.2917    8.5204 C   0  0  0  0  0  0  0  0  0  0  0  0
   19.7510   -7.2659    7.8262 S   0  0  0  0  0  0  0  0  0  0  0  0
   18.3876   -8.4590    9.8458 N   0  0  0  0  0  0  0  0  0  0  0  0
   17.4268   -9.3382   10.2483 C   0  0  0  0  0  0  0  0  0  0  0  0
   16.6726  -10.0488    9.2998 C   0  0  0  0  0  0  0  0  0  0  0  0
   16.9388   -9.8469    7.9411 C   0  0  0  0  0  0  0  0  0  0  0  0
   16.2827  -10.4715    7.0658 O   0  0  0  0  0  0  0  0  0  0  0  0
   19.8435   -7.2577    5.0070 C   0  0  0  0  0  0  0  0  0  0  0  0
   21.1038   -8.2443    3.0954 C   0  0  0  0  0  0  0  0  0  0  0  0
   19.8442   -8.3372    3.9364 C   0  0  0  0  0  0  0  0  0  0  0  0
   18.6367   -8.1544    3.0419 C   0  0  0  0  0  0  0  0  0  0  0  0
 33 34  1  0  0  0
 34 35  1  0  0  0
 34 32  1  0  0  0
 32 22  1  0  0  0
 22 23  2  0  0  0
 23 24  1  0  0  0
 24 25  1  0  0  0
 25 26  1  0  0  0
 25 27  2  0  0  0
 26 22  1  0  0  0
 27 28  1  0  0  0
 28 21  1  0  0  0
 28 29  2  0  0  0
 21 20  1  0  0  0
 20  1  1  0  0  0
  1  2  2  0  0  0
  1  3  1  0  0  0
  3  4  2  0  0  0
  4  5  1  0  0  0
  5  6  2  0  0  0
  6  9  1  0  0  0
  6  7  1  0  0  0
  9 10  1  0  0  0
 10 11  2  0  0  0
 10 13  1  0  0  0
 13 14  2  0  0  0
 14 15  1  0  0  0
 15 16  1  0  0  0
 15 17  2  0  0  0
 17 18  1  0  0  0
 18 19  2  0  0  0
 19 13  1  0  0  0
  7  8  2  0  0  0
  8  3  1  0  0  0
 29 30  1  0  0  0
 30 31  2  0  0  0
 30 24  1  0  0  0
  9 12  1  0  0  0
M  END
>  <minimizedAffinity>
-9.19973

>  <minimizedRMSD>
1.11864

$$$$
CHEMBL5094239 PubChem-72949376


 36 41  0  0  0  0  0  0  0  0999 V2000
   18.7748  -12.3264   13.5936 C   0  0  0  0  0  0  0  0  0  0  0  0
   18.0517  -11.4211   14.5338 C   0  0  0  0  0  0  0  0  0  0  0  0
   17.2889  -10.3311   14.0721 C   0  0  0  0  0  0  0  0  0  0  0  0
   16.6286   -9.5092   14.9910 C   0  0  0  0  0  0  0  0  0  0  0  0
   16.7183   -9.7597   16.3664 C   0  0  0  0  0  0  0  0  0  0  0  0
   17.4788  -10.8456   16.8183 C   0  0  0  0  0  0  0  0  0  0  0  0
   18.1412  -11.6710   15.9064 C   0  0  0  0  0  0  0  0  0  0  0  0
   16.0198   -8.8898   17.3268 C   0  0  0  0  0  0  0  0  0  0  0  0
   14.8153   -8.3154   17.0602 N   0  0  0  0  0  0  0  0  0  0  0  0
   14.5645   -7.6289   18.1832 C   0  0  0  0  0  0  0  0  0  0  0  0
   15.5812   -7.7940   19.0726 C   0  0  0  0  0  0  0  0  0  0  0  0
   16.5241   -8.5934   18.5555 N   0  0  0  0  0  0  0  0  0  0  0  0
   15.5740   -7.1891   20.3265 C   0  0  0  0  0  0  0  0  0  0  0  0
   14.4657   -6.3828   20.6509 C   0  0  0  0  0  0  0  0  0  0  0  0
   13.4073   -6.2175   19.7281 C   0  0  0  0  0  0  0  0  0  0  0  0
   13.4496   -6.8457   18.4696 C   0  0  0  0  0  0  0  0  0  0  0  0
   17.3696   -8.8914   18.9623 H   0  0  0  0  0  0  0  0  0  0  0  0
   14.3914   -5.7282   21.9876 C   0  0  0  0  0  0  0  0  0  0  0  0
   13.0464   -5.2302   22.2250 N   0  0  0  0  0  0  0  0  0  0  0  0
   12.7971   -5.3538   23.6619 C   0  0  0  0  0  0  0  0  0  0  0  0
   11.4851   -4.6630   24.0668 C   0  0  0  0  0  0  0  0  0  0  0  0
   10.8055   -4.0877   22.9057 N   0  0  0  0  0  0  0  0  0  0  0  0
   11.7080   -3.1444   22.2436 C   0  0  0  0  0  0  0  0  0  0  0  0
   13.0403   -3.8105   21.8653 C   0  0  0  0  0  0  0  0  0  0  0  0
    9.6879   -3.3142   23.4139 C   0  0  0  0  0  0  0  0  0  0  0  0
   17.1697  -10.0342   12.6678 C   0  0  0  0  0  0  0  0  0  0  0  0
   17.0703   -9.7869   11.4921 C   0  0  0  0  0  0  0  0  0  0  0  0
   16.9525   -9.4947   10.0897 C   0  0  0  0  0  0  0  0  0  0  0  0
   15.9199   -9.8823    9.2469 C   0  0  0  0  0  0  0  0  0  0  0  0
   16.1766   -9.4094    7.9965 N   0  0  0  0  0  0  0  0  0  0  0  0
   17.3488   -8.7552    8.1236 C   0  0  0  0  0  0  0  0  0  0  0  0
   17.8314   -8.7932    9.3681 N   0  0  0  0  0  0  0  0  0  0  0  0
   18.9733   -8.2208    9.7438 N   0  0  0  0  0  0  0  0  0  0  0  0
   19.7090   -7.5492    8.8124 C   0  0  0  0  0  0  0  0  0  0  0  0
   19.2506   -7.4745    7.4822 C   0  0  0  0  0  0  0  0  0  0  0  0
   18.0416   -8.0896    7.1198 C   0  0  0  0  0  0  0  0  0  0  0  0
  1  2  1  0  0  0
  2  3  2  0  0  0
  3  4  1  0  0  0
  3 26  1  0  0  0
  4  5  2  0  0  0
  5  6  1  0  0  0
  5  8  1  0  0  0
  6  7  2  0  0  0
  7  2  1  0  0  0
  8  9  2  0  0  0
  9 10  1  0  0  0
 10 11  2  0  0  0
 11 12  1  0  0  0
 11 13  1  0  0  0
 12  8  1  0  0  0
 13 14  2  0  0  0
 14 15  1  0  0  0
 14 18  1  0  0  0
 15 16  2  0  0  0
 16 10  1  0  0  0
 18 19  1  0  0  0
 19 20  1  0  0  0
 20 21  1  0  0  0
 21 22  1  0  0  0
 22 23  1  0  0  0
 22 25  1  0  0  0
 23 24  1  0  0  0
 24 19  1  0  0  0
 26 27  3  0  0  0
 27 28  1  0  0  0
 28 29  2  0  0  0
 29 30  1  0  0  0
 30 31  2  0  0  0
 31 32  1  0  0  0
 32 33  1  0  0  0
 32 28  1  0  0  0
 33 34  2  0  0  0
 34 35  1  0  0  0
 35 36  2  0  0  0
 36 31  1  0  0  0
 12 17  1  0  0  0
M  END
>  <minimizedAffinity>
-10.19842

>  <minimizedRMSD>
1.12045

$$$$
CHEMBL4475237 PubChem-157291937 PubChem-58138789


 33 36  0  0  0  0  0  0  0  0999 V2000
   19.4725  -10.3128   12.2183 N   0  0  0  0  0  0  0  0  0  0  0  0
   18.6371  -10.2807   11.0563 C   0  0  0  0  0  0  0  0  0  0  0  0
   17.5543  -10.9272   11.0442 O   0  0  0  0  0  0  0  0  0  0  0  0
   20.3359   -9.8407   12.1899 H   0  0  0  0  0  0  0  0  0  0  0  0
   19.0514   -9.4930    9.8764 C   0  0  0  0  0  0  0  0  0  0  0  0
   18.3025   -9.4422    8.6904 C   0  0  0  0  0  0  0  0  0  0  0  0
   17.1096  -10.0400    8.3260 C   0  0  0  0  0  0  0  0  0  0  0  0
   16.8328   -9.6504    7.0571 N   0  0  0  0  0  0  0  0  0  0  0  0
   17.7943   -8.8426    6.6211 N   0  0  0  0  0  0  0  0  0  0  0  0
   18.7020   -8.7044    7.6085 C   0  0  0  0  0  0  0  0  0  0  0  0
   19.8809   -7.9575    7.6226 C   0  0  0  0  0  0  0  0  0  0  0  0
   20.6565   -7.9839    8.7934 C   0  0  0  0  0  0  0  0  0  0  0  0
   20.2457   -8.7436    9.9086 C   0  0  0  0  0  0  0  0  0  0  0  0
   17.7960   -8.2539    5.3057 C   0  0  0  0  0  0  0  0  0  0  0  0
   16.7351   -8.5144    4.4240 C   0  0  0  0  0  0  0  0  0  0  0  0
   16.7190   -7.9522    3.1443 C   0  0  0  0  0  0  0  0  0  0  0  0
   17.7649   -7.1227    2.7329 C   0  0  0  0  0  0  0  0  0  0  0  0
   18.8264   -6.8557    3.6006 C   0  0  0  0  0  0  0  0  0  0  0  0
   18.8414   -7.4184    4.8800 C   0  0  0  0  0  0  0  0  0  0  0  0
   17.7500   -6.5779    1.4929 F   0  0  0  0  0  0  0  0  0  0  0  0
   19.1023  -11.0129   13.4411 C   0  0  0  0  0  0  0  0  0  0  0  0
   16.2767   -8.6756   15.6700 C   0  0  0  0  0  0  0  0  0  0  0  0
   17.6298   -8.3201   15.6637 C   0  0  0  0  0  0  0  0  0  0  0  0
   18.5519   -9.0835   14.9418 C   0  0  0  0  0  0  0  0  0  0  0  0
   18.1233  -10.2067   14.2256 C   0  0  0  0  0  0  0  0  0  0  0  0
   16.7703  -10.5614   14.2296 C   0  0  0  0  0  0  0  0  0  0  0  0
   15.8485   -9.7978   14.9514 C   0  0  0  0  0  0  0  0  0  0  0  0
   15.1255   -7.7123   16.5814 S   0  0  0  0  0  0  0  0  0  0  0  0
   15.0868   -6.3225   16.0111 O   0  0  0  0  0  0  0  0  0  0  0  0
   13.7530   -8.3189   16.4770 O   0  0  0  0  0  0  0  0  0  0  0  0
   15.5744   -8.9906   18.7759 C   0  0  0  0  0  0  0  0  0  0  0  0
   15.5980   -7.6376   18.2462 N   0  0  0  0  0  0  0  0  0  0  0  0
   16.5390   -7.2514   18.3227 H   0  0  0  0  0  0  0  0  0  0  0  0
 31 32  1  0  0  0
 32 28  1  0  0  0
 28 29  2  0  0  0
 28 30  2  0  0  0
 28 22  1  0  0  0
 22 23  2  0  0  0
 23 24  1  0  0  0
 24 25  2  0  0  0
 25 26  1  0  0  0
 25 21  1  0  0  0
 26 27  2  0  0  0
 27 22  1  0  0  0
 21  1  1  0  0  0
  1  2  1  0  0  0
  2  3  2  0  0  0
  2  5  1  0  0  0
  5  6  2  0  0  0
  6  7  1  0  0  0
  7  8  2  0  0  0
  8  9  1  0  0  0
  9 10  1  0  0  0
  9 14  1  0  0  0
 10 11  2  0  0  0
 10  6  1  0  0  0
 11 12  1  0  0  0
 12 13  2  0  0  0
 13  5  1  0  0  0
 14 15  2  0  0  0
 15 16  1  0  0  0
 16 17  2  0  0  0
 17 18  1  0  0  0
 17 20  1  0  0  0
 18 19  2  0  0  0
 19 14  1  0  0  0
 32 33  1  0  0  0
  1  4  1  0  0  0
M  END
>  <minimizedAffinity>
15.23321

>  <minimizedRMSD>
1.12075

$$$$
CHEMBL1476478 4388666 MCULE-1515057697 MolPort-000-101-131 PubChem-651911 ZINC000004388666 ZINC04388666


 31 34  0  0  0  0  0  0  0  0999 V2000
   18.6925   -8.2382    9.4349 C   0  0  0  0  0  0  0  0  0  0  0  0
   18.7716   -7.1449    8.5480 C   0  0  0  0  0  0  0  0  0  0  0  0
   17.5121   -7.2738    7.3943 S   0  0  0  0  0  0  0  0  0  0  0  0
   16.9559   -8.6873    8.0840 C   0  0  0  0  0  0  0  0  0  0  0  0
   15.9986   -9.5531    7.7203 N   0  0  0  0  0  0  0  0  0  0  0  0
   16.0957  -10.5517    8.5964 N   0  0  0  0  0  0  0  0  0  0  0  0
   17.1084  -10.2588    9.4501 C   0  0  0  0  0  0  0  0  0  0  0  0
   17.6590   -9.0716    9.1293 N   0  0  0  0  0  0  0  0  0  0  0  0
   20.2356   -9.1185   12.7882 C   0  0  0  0  0  0  0  0  0  0  0  0
   21.5618   -8.7100   12.5784 C   0  0  0  0  0  0  0  0  0  0  0  0
   21.9419   -8.1588   11.3541 C   0  0  0  0  0  0  0  0  0  0  0  0
   21.0012   -8.0201   10.3312 C   0  0  0  0  0  0  0  0  0  0  0  0
   19.6753   -8.4386   10.5184 C   0  0  0  0  0  0  0  0  0  0  0  0
   19.2993   -8.9700   11.7579 C   0  0  0  0  0  0  0  0  0  0  0  0
   20.0940   -9.0580   15.2573 C   0  0  0  0  0  0  0  0  0  0  0  0
   19.8249   -9.6704   14.0037 O   0  0  0  0  0  0  0  0  0  0  0  0
   17.6171  -11.3549   10.7687 S   0  0  0  0  0  0  0  0  0  0  0  0
   16.8288  -10.2975   12.0200 C   0  0  0  0  0  0  0  0  0  0  0  0
   17.1121  -10.8083   13.3945 C   0  0  0  0  0  0  0  0  0  0  0  0
   17.6681  -11.9316   13.5298 O   0  0  0  0  0  0  0  0  0  0  0  0
   16.7325  -10.0206   14.5828 C   0  0  0  0  0  0  0  0  0  0  0  0
   16.2724   -8.7025   14.4490 C   0  0  0  0  0  0  0  0  0  0  0  0
   15.9348   -7.9534   15.5786 C   0  0  0  0  0  0  0  0  0  0  0  0
   16.0495   -8.5115   16.8598 C   0  0  0  0  0  0  0  0  0  0  0  0
   16.5009   -9.8285   16.9938 C   0  0  0  0  0  0  0  0  0  0  0  0
   16.8404  -10.5789   15.8644 C   0  0  0  0  0  0  0  0  0  0  0  0
   15.7229   -7.7692   18.0427 N   0  0  0  0  0  0  0  0  0  0  0  0
   14.4095   -7.4215   18.4994 C   0  0  0  0  0  0  0  0  0  0  0  0
   14.2593   -6.6310   19.7478 C   0  0  0  0  0  0  0  0  0  0  0  0
   13.3804   -7.7708   17.8633 O   0  0  0  0  0  0  0  0  0  0  0  0
   16.4780   -7.4677   18.5977 H   0  0  0  0  0  0  0  0  0  0  0  0
 15 16  1  0  0  0
 16  9  1  0  0  0
  9 10  2  0  0  0
 10 11  1  0  0  0
 11 12  2  0  0  0
 12 13  1  0  0  0
 13 14  2  0  0  0
 13  1  1  0  0  0
 14  9  1  0  0  0
  1  2  2  0  0  0
  2  3  1  0  0  0
  3  4  1  0  0  0
  4  5  2  0  0  0
  5  6  1  0  0  0
  6  7  2  0  0  0
  7 17  1  0  0  0
  7  8  1  0  0  0
 17 18  1  0  0  0
 18 19  1  0  0  0
 19 20  2  0  0  0
 19 21  1  0  0  0
 21 22  2  0  0  0
 22 23  1  0  0  0
 23 24  2  0  0  0
 24 27  1  0  0  0
 24 25  1  0  0  0
 27 28  1  0  0  0
 28 29  1  0  0  0
 28 30  2  0  0  0
 25 26  2  0  0  0
 26 21  1  0  0  0
  8  1  1  0  0  0
  8  4  1  0  0  0
 27 31  1  0  0  0
M  END
>  <minimizedAffinity>
9.76912

>  <minimizedRMSD>
1.12150

$$$$
CHEMBL2113973 24658660 CSC026553499 MCULE-5014528181 MolPort-009-539-442 PubChem-31981178 Z367550756 ZINC000024658660


 24 26  0  0  0  0  0  0  0  0999 V2000
   17.1123   -9.0471   15.9407 C   0  0  0  0  0  0  0  0  0  0  0  0
   17.0185   -9.6023   14.6596 C   0  0  0  0  0  0  0  0  0  0  0  0
   18.1686  -10.0544   14.0043 C   0  0  0  0  0  0  0  0  0  0  0  0
   19.4171   -9.9365   14.6244 C   0  0  0  0  0  0  0  0  0  0  0  0
   19.5133   -9.3787   15.9027 C   0  0  0  0  0  0  0  0  0  0  0  0
   18.3621   -8.9344   16.5600 C   0  0  0  0  0  0  0  0  0  0  0  0
   16.0513   -8.0571   18.3907 N   0  0  0  0  0  0  0  0  0  0  0  0
   15.6702   -8.4744   16.7578 S   0  0  0  0  0  0  0  0  0  0  0  0
   15.1336   -7.2662   16.0441 O   0  0  0  0  0  0  0  0  0  0  0  0
   14.6286   -9.5578   16.7650 O   0  0  0  0  0  0  0  0  0  0  0  0
   16.7582   -7.3218   18.3975 H   0  0  0  0  0  0  0  0  0  0  0  0
   16.4107   -8.8788   18.8766 H   0  0  0  0  0  0  0  0  0  0  0  0
   18.0691  -10.6223   12.6332 C   0  0  0  0  0  0  0  0  0  0  0  0
   18.3132   -9.5780   11.6514 N   0  0  0  0  0  0  0  0  0  0  0  0
   18.9798   -8.8817   11.8518 H   0  0  0  0  0  0  0  0  0  0  0  0
   17.6167   -9.5302   10.4057 C   0  0  0  0  0  0  0  0  0  0  0  0
   18.1109   -8.7863    9.3419 C   0  0  0  0  0  0  0  0  0  0  0  0
   17.4319   -8.7471    8.1467 C   0  0  0  0  0  0  0  0  0  0  0  0
   18.0391   -7.9623    7.1636 C   0  0  0  0  0  0  0  0  0  0  0  0
   19.2276   -7.3735    7.6105 C   0  0  0  0  0  0  0  0  0  0  0  0
   19.4901   -7.8466    9.2186 S   0  0  0  0  0  0  0  0  0  0  0  0
   16.2719   -9.4328    7.9891 N   0  0  0  0  0  0  0  0  0  0  0  0
   15.7802  -10.1662    9.0306 C   0  0  0  0  0  0  0  0  0  0  0  0
   16.4481  -10.2116   10.2235 N   0  0  0  0  0  0  0  0  0  0  0  0
  7  8  1  0  0  0
  8  1  1  0  0  0
  1  2  2  0  0  0
  2  3  1  0  0  0
  3 13  1  0  0  0
 13 14  1  0  0  0
 14 16  1  0  0  0
 16 17  1  0  0  0
 17 18  2  0  0  0
 18 19  1  0  0  0
 19 20  2  0  0  0
 20 21  1  0  0  0
 18 22  1  0  0  0
 22 23  2  0  0  0
 23 24  1  0  0  0
  3  4  2  0  0  0
  4  5  1  0  0  0
  5  6  2  0  0  0
  8  9  2  0  0  0
  8 10  2  0  0  0
  6  1  1  0  0  0
 24 16  2  0  0  0
 21 17  1  0  0  0
  7 11  1  0  0  0
  7 12  1  0  0  0
 14 15  1  0  0  0
M  END
>  <minimizedAffinity>
-5.88699

>  <minimizedRMSD>
1.12158

$$$$
CHEMBL3185116 PubChem-56840772


 25 28  0  0  0  0  0  0  0  0999 V2000
   17.3447  -10.6165   14.3621 C   0  0  0  0  0  0  0  0  0  0  0  0
   16.5375  -10.1808   13.1521 C   0  0  0  0  0  0  0  0  0  0  0  0
   17.4964  -10.0093   12.0769 N   0  0  0  0  0  0  0  0  0  0  0  0
   18.8638  -10.2536   12.4992 C   0  0  0  0  0  0  0  0  0  0  0  0
   18.8138  -10.4337   14.0039 C   0  0  0  0  0  0  0  0  0  0  0  0
   14.4101   -7.4398   16.7466 O   0  0  0  0  0  0  0  0  0  0  0  0
   15.5243   -8.2693   16.7467 C   0  0  0  0  0  0  0  0  0  0  0  0
   15.8506   -8.9909   15.5949 C   0  0  0  0  0  0  0  0  0  0  0  0
   16.9741   -9.8328   15.5820 C   0  0  0  0  0  0  0  0  0  0  0  0
   17.7656   -9.9451   16.7298 C   0  0  0  0  0  0  0  0  0  0  0  0
   17.4403   -9.2239   17.8822 C   0  0  0  0  0  0  0  0  0  0  0  0
   16.3212   -8.3860   17.8932 C   0  0  0  0  0  0  0  0  0  0  0  0
   16.0063   -7.6735   19.0433 O   0  0  0  0  0  0  0  0  0  0  0  0
   13.8810   -7.3659   15.9768 H   0  0  0  0  0  0  0  0  0  0  0  0
   16.5429   -7.7556   19.8070 H   0  0  0  0  0  0  0  0  0  0  0  0
   17.0950   -9.7796   10.7111 C   0  0  0  0  0  0  0  0  0  0  0  0
   17.8821   -9.0368    9.7982 C   0  0  0  0  0  0  0  0  0  0  0  0
   17.4171   -8.8683    8.4698 C   0  0  0  0  0  0  0  0  0  0  0  0
   16.2303   -9.4064    8.0874 N   0  0  0  0  0  0  0  0  0  0  0  0
   15.4559  -10.1099    8.9523 C   0  0  0  0  0  0  0  0  0  0  0  0
   15.8719  -10.3034   10.2688 C   0  0  0  0  0  0  0  0  0  0  0  0
   18.1705   -8.1349    7.5486 C   0  0  0  0  0  0  0  0  0  0  0  0
   19.3810   -7.5553    7.9347 C   0  0  0  0  0  0  0  0  0  0  0  0
   19.8409   -7.7032    9.2449 C   0  0  0  0  0  0  0  0  0  0  0  0
   19.0945   -8.4365   10.1708 C   0  0  0  0  0  0  0  0  0  0  0  0
  6  7  1  0  0  0
  7  8  2  0  0  0
  8  9  1  0  0  0
  9  1  1  0  0  0
  1  2  1  0  0  0
  2  3  1  0  0  0
  3 16  1  0  0  0
 16 17  2  0  0  0
 17 18  1  0  0  0
 18 19  2  0  0  0
 19 20  1  0  0  0
 20 21  2  0  0  0
 18 22  1  0  0  0
 22 23  2  0  0  0
 23 24  1  0  0  0
 24 25  2  0  0  0
  3  4  1  0  0  0
  4  5  1  0  0  0
  9 10  2  0  0  0
 10 11  1  0  0  0
 11 12  2  0  0  0
 12 13  1  0  0  0
 12  7  1  0  0  0
  5  1  1  0  0  0
 21 16  1  0  0  0
 25 17  1  0  0  0
  6 14  1  0  0  0
 13 15  1  0  0  0
M  END
>  <minimizedAffinity>
-6.55763

>  <minimizedRMSD>
1.12207

$$$$
CHEMBL2113973 24658660 CSC026553499 MCULE-5014528181 MolPort-009-539-442 PubChem-31981178 Z367550756 ZINC000024658660


 24 26  0  0  0  0  0  0  0  0999 V2000
   16.8039   -9.7825   15.9341 C   0  0  0  0  0  0  0  0  0  0  0  0
   17.2708   -9.7878   14.6149 C   0  0  0  0  0  0  0  0  0  0  0  0
   18.0839  -10.8322   14.1622 C   0  0  0  0  0  0  0  0  0  0  0  0
   18.4225  -11.8784   15.0269 C   0  0  0  0  0  0  0  0  0  0  0  0
   17.9596  -11.8732   16.3460 C   0  0  0  0  0  0  0  0  0  0  0  0
   17.1528  -10.8253   16.7996 C   0  0  0  0  0  0  0  0  0  0  0  0
   16.1432   -8.1431   18.1665 N   0  0  0  0  0  0  0  0  0  0  0  0
   15.7970   -8.4648   16.5045 S   0  0  0  0  0  0  0  0  0  0  0  0
   14.3481   -8.8428   16.3757 O   0  0  0  0  0  0  0  0  0  0  0  0
   16.0693   -7.2333   15.6883 O   0  0  0  0  0  0  0  0  0  0  0  0
   15.9582   -8.9794   18.7204 H   0  0  0  0  0  0  0  0  0  0  0  0
   15.5519   -7.3798   18.4954 H   0  0  0  0  0  0  0  0  0  0  0  0
   18.5578  -10.8483   12.7527 C   0  0  0  0  0  0  0  0  0  0  0  0
   18.1084   -9.6459   12.0690 N   0  0  0  0  0  0  0  0  0  0  0  0
   18.2554   -8.7858   12.5250 H   0  0  0  0  0  0  0  0  0  0  0  0
   17.4692   -9.6089   10.7864 C   0  0  0  0  0  0  0  0  0  0  0  0
   17.9797   -8.9131    9.6808 C   0  0  0  0  0  0  0  0  0  0  0  0
   17.3000   -8.9291    8.4802 C   0  0  0  0  0  0  0  0  0  0  0  0
   17.9056   -8.2003    7.4528 C   0  0  0  0  0  0  0  0  0  0  0  0
   19.0975   -7.5917    7.8550 C   0  0  0  0  0  0  0  0  0  0  0  0
   19.3608   -7.9813    9.4816 S   0  0  0  0  0  0  0  0  0  0  0  0
   16.1364   -9.6130    8.3521 N   0  0  0  0  0  0  0  0  0  0  0  0
   15.6354  -10.2910    9.4232 C   0  0  0  0  0  0  0  0  0  0  0  0
   16.2971  -10.2844   10.6184 N   0  0  0  0  0  0  0  0  0  0  0  0
  7  8  1  0  0  0
  8  1  1  0  0  0
  1  2  2  0  0  0
  2  3  1  0  0  0
  3 13  1  0  0  0
 13 14  1  0  0  0
 14 16  1  0  0  0
 16 17  1  0  0  0
 17 18  2  0  0  0
 18 19  1  0  0  0
 19 20  2  0  0  0
 20 21  1  0  0  0
 18 22  1  0  0  0
 22 23  2  0  0  0
 23 24  1  0  0  0
  3  4  2  0  0  0
  4  5  1  0  0  0
  5  6  2  0  0  0
  8  9  2  0  0  0
  8 10  2  0  0  0
  6  1  1  0  0  0
 24 16  2  0  0  0
 21 17  1  0  0  0
  7 11  1  0  0  0
  7 12  1  0  0  0
 14 15  1  0  0  0
M  END
>  <minimizedAffinity>
-6.81213

>  <minimizedRMSD>
1.12428

$$$$
CHEMBL4792000


 29 32  0  0  0  0  0  0  0  0999 V2000
   17.8795  -11.4899   12.7880 C   0  0  0  0  0  0  0  0  0  0  0  0
   18.1061  -10.2053   12.0107 C   0  0  0  0  0  0  0  0  0  0  0  0
   16.7893   -9.7114   11.4377 C   0  0  0  0  0  0  0  0  0  0  0  0
   16.5473   -9.9659    7.7876 N   0  0  0  0  0  0  0  0  0  0  0  0
   16.1714  -10.2781    9.0613 C   0  0  0  0  0  0  0  0  0  0  0  0
   16.8868   -9.5983    9.9925 N   0  0  0  0  0  0  0  0  0  0  0  0
   17.7388   -8.8517    9.2861 C   0  0  0  0  0  0  0  0  0  0  0  0
   18.6834   -7.9995    9.7533 N   0  0  0  0  0  0  0  0  0  0  0  0
   19.4513   -7.3356    8.8364 C   0  0  0  0  0  0  0  0  0  0  0  0
   19.2618   -7.5363    7.4916 N   0  0  0  0  0  0  0  0  0  0  0  0
   18.3077   -8.3993    7.0317 C   0  0  0  0  0  0  0  0  0  0  0  0
   17.5338   -9.0673    7.9696 C   0  0  0  0  0  0  0  0  0  0  0  0
   18.1227   -8.6019    5.6352 N   0  0  0  0  0  0  0  0  0  0  0  0
   18.6844   -8.1162    4.9887 H   0  0  0  0  0  0  0  0  0  0  0  0
   17.4331   -9.2276    5.3156 H   0  0  0  0  0  0  0  0  0  0  0  0
   19.1642  -11.9478   13.4708 C   0  0  0  0  0  0  0  0  0  0  0  0
   19.4879  -11.1173   14.5840 O   0  0  0  0  0  0  0  0  0  0  0  0
   18.5342  -10.4230   15.3366 C   0  0  0  0  0  0  0  0  0  0  0  0
   17.6422  -11.0880   16.1926 C   0  0  0  0  0  0  0  0  0  0  0  0
   16.7000  -10.3641   16.9281 C   0  0  0  0  0  0  0  0  0  0  0  0
   16.6385   -8.9689   16.8179 C   0  0  0  0  0  0  0  0  0  0  0  0
   17.5312   -8.3061   15.9651 C   0  0  0  0  0  0  0  0  0  0  0  0
   18.4735   -9.0302   15.2297 C   0  0  0  0  0  0  0  0  0  0  0  0
   15.6466   -8.2065   17.5908 C   0  0  0  0  0  0  0  0  0  0  0  0
   15.6963   -8.0237   18.9232 N   0  0  0  0  0  0  0  0  0  0  0  0
   14.6291   -7.2931   19.2014 N   0  0  0  0  0  0  0  0  0  0  0  0
   13.9570   -7.0404   18.0896 N   0  0  0  0  0  0  0  0  0  0  0  0
   14.5693   -7.6000   17.0591 N   0  0  0  0  0  0  0  0  0  0  0  0
   16.3760   -8.3593   19.5514 H   0  0  0  0  0  0  0  0  0  0  0  0
  4  5  2  0  0  0
  5  6  1  0  0  0
  6  7  1  0  0  0
  7  8  2  0  0  0
  8  9  1  0  0  0
  9 10  2  0  0  0
 10 11  1  0  0  0
 11 12  2  0  0  0
 11 13  1  0  0  0
  6  3  1  0  0  0
  3  2  1  0  0  0
  2  1  1  0  0  0
  1 16  1  0  0  0
 16 17  1  0  0  0
 17 18  1  0  0  0
 18 19  2  0  0  0
 19 20  1  0  0  0
 20 21  2  0  0  0
 21 22  1  0  0  0
 22 23  2  0  0  0
 21 24  1  0  0  0
 24 25  1  0  0  0
 25 26  1  0  0  0
 26 27  2  0  0  0
 27 28  1  0  0  0
 12  4  1  0  0  0
 23 18  1  0  0  0
 28 24  2  0  0  0
 12  7  1  0  0  0
 13 14  1  0  0  0
 13 15  1  0  0  0
 25 29  1  0  0  0
M  END
>  <minimizedAffinity>
-8.02585

>  <minimizedRMSD>
1.12605

$$$$
CHEMBL3354843


 30 33  0  0  0  0  0  0  0  0999 V2000
   16.2296   -8.6409   12.6330 C   0  0  0  0  0  0  0  0  0  0  0  0
   16.1539   -8.2317   11.2806 C   0  0  0  0  0  0  0  0  0  0  0  0
   15.5549   -6.9962   10.9955 C   0  0  0  0  0  0  0  0  0  0  0  0
   15.0490   -6.1948   12.0161 C   0  0  0  0  0  0  0  0  0  0  0  0
   15.1438   -6.6362   13.3324 C   0  0  0  0  0  0  0  0  0  0  0  0
   15.7258   -7.8318   13.6076 N   0  0  0  0  0  0  0  0  0  0  0  0
   16.6616   -9.0747   10.1646 C   0  0  0  0  0  0  0  0  0  0  0  0
   16.1533  -10.3277    9.9505 N   0  0  0  0  0  0  0  0  0  0  0  0
   16.5904  -11.1214    8.9219 C   0  0  0  0  0  0  0  0  0  0  0  0
   17.5586  -10.6771    8.0673 N   0  0  0  0  0  0  0  0  0  0  0  0
   18.0642   -9.4378    8.2686 C   0  0  0  0  0  0  0  0  0  0  0  0
   19.0212   -8.8405    7.5484 N   0  0  0  0  0  0  0  0  0  0  0  0
   19.1576   -7.6419    8.1779 C   0  0  0  0  0  0  0  0  0  0  0  0
   18.3300   -7.4838    9.2470 N   0  0  0  0  0  0  0  0  0  0  0  0
   17.6482   -8.6383    9.2742 C   0  0  0  0  0  0  0  0  0  0  0  0
   19.5045   -9.1821    6.7616 H   0  0  0  0  0  0  0  0  0  0  0  0
   16.8679   -9.8810   12.9796 N   0  0  0  0  0  0  0  0  0  0  0  0
   17.1014  -10.4735   12.2288 H   0  0  0  0  0  0  0  0  0  0  0  0
   17.1061  -10.2017   16.7240 C   0  0  0  0  0  0  0  0  0  0  0  0
   16.7660   -9.7124   15.4540 C   0  0  0  0  0  0  0  0  0  0  0  0
   17.2050  -10.3577   14.2897 C   0  0  0  0  0  0  0  0  0  0  0  0
   17.9905  -11.5074   14.4032 C   0  0  0  0  0  0  0  0  0  0  0  0
   18.3364  -12.0053   15.6611 C   0  0  0  0  0  0  0  0  0  0  0  0
   17.8985  -11.3580   16.8199 C   0  0  0  0  0  0  0  0  0  0  0  0
   18.3566  -12.0179   18.3811 Cl  0  0  0  0  0  0  0  0  0  0  0  0
   15.7830   -8.4170   18.0092 C   0  0  0  0  0  0  0  0  0  0  0  0
   15.3023   -7.8788   16.9773 O   0  0  0  0  0  0  0  0  0  0  0  0
   15.4323   -7.8707   19.3457 C   0  0  0  0  0  0  0  0  0  0  0  0
   16.6615   -9.5461   17.9222 N   0  0  0  0  0  0  0  0  0  0  0  0
   16.9954   -9.9108   18.7734 H   0  0  0  0  0  0  0  0  0  0  0  0
 26 27  2  0  0  0
 26 28  1  0  0  0
 26 29  1  0  0  0
 29 19  1  0  0  0
 19 20  2  0  0  0
 20 21  1  0  0  0
 21 22  2  0  0  0
 22 23  1  0  0  0
 23 24  2  0  0  0
 24 25  1  0  0  0
 21 17  1  0  0  0
 17  1  1  0  0  0
  1  2  1  0  0  0
  2  3  2  0  0  0
  3  4  1  0  0  0
  4  5  2  0  0  0
  5  6  1  0  0  0
  2  7  1  0  0  0
  7  8  2  0  0  0
  8  9  1  0  0  0
  9 10  2  0  0  0
 10 11  1  0  0  0
 11 12  1  0  0  0
 12 13  1  0  0  0
 13 14  2  0  0  0
 14 15  1  0  0  0
 24 19  1  0  0  0
  6  1  2  0  0  0
 15  7  1  0  0  0
 15 11  2  0  0  0
 29 30  1  0  0  0
 17 18  1  0  0  0
 12 16  1  0  0  0
M  END
>  <minimizedAffinity>
10.01694

>  <minimizedRMSD>
1.12648

$$$$
CHEMBL1881576 ChemDiv-G756-0119 MCULE-4978438094 MolPort-007-878-990 PubChem-16030536 ZINC000008619685 ZINC08619685


 30 33  0  0  0  0  0  0  0  0999 V2000
   16.8025   -9.9162   17.0151 C   0  0  0  0  0  0  0  0  0  0  0  0
   16.8471   -9.4452   15.6940 C   0  0  0  0  0  0  0  0  0  0  0  0
   17.4697  -10.1928   14.6897 C   0  0  0  0  0  0  0  0  0  0  0  0
   18.0551  -11.4271   15.0125 C   0  0  0  0  0  0  0  0  0  0  0  0
   18.0146  -11.9022   16.3256 C   0  0  0  0  0  0  0  0  0  0  0  0
   17.3900  -11.1478   17.3223 C   0  0  0  0  0  0  0  0  0  0  0  0
   15.3035   -8.0361   17.9221 C   0  0  0  0  0  0  0  0  0  0  0  0
   15.0185   -7.6044   16.7741 O   0  0  0  0  0  0  0  0  0  0  0  0
   16.1719   -9.1720   18.0665 N   0  0  0  0  0  0  0  0  0  0  0  0
   16.3534   -9.4718   18.9865 H   0  0  0  0  0  0  0  0  0  0  0  0
   12.1178   -7.0024   17.8244 Br  0  0  0  0  0  0  0  0  0  0  0  0
   13.4090   -6.9165   19.2394 C   0  0  0  0  0  0  0  0  0  0  0  0
   14.7436   -7.3925   19.1376 C   0  0  0  0  0  0  0  0  0  0  0  0
   15.5917   -7.2508   20.2486 C   0  0  0  0  0  0  0  0  0  0  0  0
   15.1422   -6.6606   21.4306 C   0  0  0  0  0  0  0  0  0  0  0  0
   13.8309   -6.1989   21.5218 C   0  0  0  0  0  0  0  0  0  0  0  0
   12.9716   -6.3266   20.4307 C   0  0  0  0  0  0  0  0  0  0  0  0
   17.4925   -9.6884   13.3870 O   0  0  0  0  0  0  0  0  0  0  0  0
   18.5602   -9.9429   12.4837 C   0  0  0  0  0  0  0  0  0  0  0  0
   18.1414   -9.5839   11.1031 C   0  0  0  0  0  0  0  0  0  0  0  0
   16.9217  -10.0338   10.6067 C   0  0  0  0  0  0  0  0  0  0  0  0
   16.5410   -9.6597    9.3189 C   0  0  0  0  0  0  0  0  0  0  0  0
   15.4375  -10.0701    8.8652 O   0  0  0  0  0  0  0  0  0  0  0  0
   17.3574   -8.8580    8.5664 N   0  0  0  0  0  0  0  0  0  0  0  0
   16.9832   -8.4917    7.3041 C   0  0  0  0  0  0  0  0  0  0  0  0
   17.8021   -7.6726    6.5248 C   0  0  0  0  0  0  0  0  0  0  0  0
   19.0147   -7.2256    7.0458 C   0  0  0  0  0  0  0  0  0  0  0  0
   19.3961   -7.5993    8.3331 C   0  0  0  0  0  0  0  0  0  0  0  0
   18.5552   -8.4206    9.0878 C   0  0  0  0  0  0  0  0  0  0  0  0
   18.9289   -8.7831   10.3421 N   0  0  0  0  0  0  0  0  0  0  0  0
 11 12  1  0  0  0
 12 13  2  0  0  0
 13 14  1  0  0  0
 13  7  1  0  0  0
 14 15  2  0  0  0
 15 16  1  0  0  0
 16 17  2  0  0  0
 17 12  1  0  0  0
  7  8  2  0  0  0
  7  9  1  0  0  0
  9  1  1  0  0  0
  1  2  2  0  0  0
  2  3  1  0  0  0
  3 18  1  0  0  0
  3  4  2  0  0  0
 18 19  1  0  0  0
 19 20  1  0  0  0
 20 21  2  0  0  0
 21 22  1  0  0  0
 22 23  2  0  0  0
 22 24  1  0  0  0
 24 25  1  0  0  0
 25 26  2  0  0  0
 26 27  1  0  0  0
 27 28  2  0  0  0
 28 29  1  0  0  0
 29 30  2  0  0  0
 29 24  1  0  0  0
 30 20  1  0  0  0
  4  5  1  0  0  0
  5  6  2  0  0  0
  6  1  1  0  0  0
  9 10  1  0  0  0
M  END
>  <minimizedAffinity>
-8.98517

>  <minimizedRMSD>
1.12684

$$$$
CHEMBL5191898 PubChem-122432241


 25 27  0  0  0  0  0  0  0  0999 V2000
   18.0575   -9.6886   13.2838 N   0  0  0  0  0  0  0  0  0  0  0  0
   18.7952  -10.8440   13.8017 C   0  0  0  0  0  0  0  0  0  0  0  0
   18.4693  -11.0472   15.2768 C   0  0  0  0  0  0  0  0  0  0  0  0
   16.9692  -11.2799   15.4420 C   0  0  0  0  0  0  0  0  0  0  0  0
   16.1556  -10.1546   14.7959 C   0  0  0  0  0  0  0  0  0  0  0  0
   16.6116   -9.9337   13.3463 C   0  0  0  0  0  0  0  0  0  0  0  0
   16.1846   -8.9045   15.6324 C   0  0  0  0  0  0  0  0  0  0  0  0
   16.5986   -7.8137   15.1511 O   0  0  0  0  0  0  0  0  0  0  0  0
   15.7248   -8.9623   16.9855 N   0  0  0  0  0  0  0  0  0  0  0  0
   15.4178   -9.8269   17.3424 H   0  0  0  0  0  0  0  0  0  0  0  0
   15.6916   -7.7972   17.8577 C   0  0  0  0  0  0  0  0  0  0  0  0
   14.3172   -7.3049   17.9891 C   0  0  0  0  0  0  0  0  0  0  0  0
   13.2322   -6.9160   18.0924 N   0  0  0  0  0  0  0  0  0  0  0  0
   19.8196   -9.0758   11.7187 C   0  0  0  0  0  0  0  0  0  0  0  0
   18.4331   -9.4582   11.9425 N   0  0  0  0  0  0  0  0  0  0  0  0
   17.5001   -9.5883   10.8349 C   0  0  0  0  0  0  0  0  0  0  0  0
   16.3536  -10.3207   10.9856 N   0  0  0  0  0  0  0  0  0  0  0  0
   15.4471  -10.4706    9.9717 C   0  0  0  0  0  0  0  0  0  0  0  0
   15.6632   -9.8843    8.7598 N   0  0  0  0  0  0  0  0  0  0  0  0
   16.7908   -9.1551    8.5884 C   0  0  0  0  0  0  0  0  0  0  0  0
   17.7074   -8.9913    9.5809 C   0  0  0  0  0  0  0  0  0  0  0  0
   18.7193   -8.2038    9.0751 C   0  0  0  0  0  0  0  0  0  0  0  0
   18.3278   -7.9368    7.7616 C   0  0  0  0  0  0  0  0  0  0  0  0
   17.1423   -8.5215    7.4621 N   0  0  0  0  0  0  0  0  0  0  0  0
   16.6509   -8.4881    6.6096 H   0  0  0  0  0  0  0  0  0  0  0  0
 14 15  1  0  0  0
 15 16  1  0  0  0
 16 17  2  0  0  0
 17 18  1  0  0  0
 18 19  2  0  0  0
 19 20  1  0  0  0
 20 21  2  0  0  0
 21 22  1  0  0  0
 22 23  2  0  0  0
 23 24  1  0  0  0
 15  1  1  0  0  0
  1  2  1  0  0  0
  2  3  1  0  0  0
  3  4  1  0  0  0
  4  5  1  0  0  0
  5  6  1  0  0  0
  5  7  1  0  0  0
  7  8  2  0  0  0
  7  9  1  0  0  0
  9 11  1  0  0  0
 11 12  1  0  0  0
 12 13  3  0  0  0
 21 16  1  0  0  0
 24 20  1  0  0  0
  6  1  1  0  0  0
 24 25  1  0  0  0
  9 10  1  0  0  0
M  END
>  <minimizedAffinity>
-4.82398

>  <minimizedRMSD>
1.12756

$$$$
CHEMBL2357476 ChemDiv-G357-0032 MCULE-6969211582 MolPort-007-847-016 PubChem-16027366 ZINC000008606000


 35 38  0  0  0  0  0  0  0  0999 V2000
   17.4392  -10.2304   14.7136 C   0  0  0  0  0  0  0  0  0  0  0  0
   17.5487  -10.8370   15.9725 C   0  0  0  0  0  0  0  0  0  0  0  0
   17.0615  -10.1908   17.1122 C   0  0  0  0  0  0  0  0  0  0  0  0
   16.4604   -8.9322   17.0104 C   0  0  0  0  0  0  0  0  0  0  0  0
   16.3503   -8.3249   15.7505 C   0  0  0  0  0  0  0  0  0  0  0  0
   16.8369   -8.9697   14.6102 C   0  0  0  0  0  0  0  0  0  0  0  0
   15.9660   -8.3056   18.2015 N   0  0  0  0  0  0  0  0  0  0  0  0
   14.7395   -7.5770   18.3411 C   0  0  0  0  0  0  0  0  0  0  0  0
   13.9812   -7.3760   17.3556 O   0  0  0  0  0  0  0  0  0  0  0  0
   16.5270   -8.3839   19.0068 H   0  0  0  0  0  0  0  0  0  0  0  0
   14.3722   -7.0176   19.6682 C   0  0  0  0  0  0  0  0  0  0  0  0
   15.4804   -7.1204   20.5528 O   0  0  0  0  0  0  0  0  0  0  0  0
   15.3866   -6.8269   21.9157 C   0  0  0  0  0  0  0  0  0  0  0  0
   14.1961   -6.3498   22.4856 C   0  0  0  0  0  0  0  0  0  0  0  0
   14.1337   -6.0677   23.8523 C   0  0  0  0  0  0  0  0  0  0  0  0
   15.2564   -6.2572   24.6631 C   0  0  0  0  0  0  0  0  0  0  0  0
   16.4528   -6.7351   24.0970 C   0  0  0  0  0  0  0  0  0  0  0  0
   17.6754   -6.9496   24.9229 C   0  0  0  0  0  0  0  0  0  0  0  0
   16.5086   -7.0162   22.7281 C   0  0  0  0  0  0  0  0  0  0  0  0
   15.1510   -5.9470   26.1180 C   0  0  0  0  0  0  0  0  0  0  0  0
   17.9471  -10.9066   13.5092 C   0  0  0  0  0  0  0  0  0  0  0  0
   18.2232  -12.1378   13.5443 O   0  0  0  0  0  0  0  0  0  0  0  0
   18.1186  -10.1802   12.3287 O   0  0  0  0  0  0  0  0  0  0  0  0
   17.0245   -9.5874   11.6446 C   0  0  0  0  0  0  0  0  0  0  0  0
   18.0424   -8.8578    7.6185 N   0  0  0  0  0  0  0  0  0  0  0  0
   18.4685   -8.5189    6.4044 N   0  0  0  0  0  0  0  0  0  0  0  0
   19.4928   -7.6340    6.4551 C   0  0  0  0  0  0  0  0  0  0  0  0
   19.9134   -7.2316    8.0486 S   0  0  0  0  0  0  0  0  0  0  0  0
   18.7125   -8.2551    8.6237 C   0  0  0  0  0  0  0  0  0  0  0  0
   18.4043   -8.4838    9.9235 N   0  0  0  0  0  0  0  0  0  0  0  0
   17.3966   -9.3511   10.2249 C   0  0  0  0  0  0  0  0  0  0  0  0
   16.6762   -9.9859    9.1997 C   0  0  0  0  0  0  0  0  0  0  0  0
   17.0242   -9.7223    7.8703 C   0  0  0  0  0  0  0  0  0  0  0  0
   16.3989  -10.2771    6.9283 O   0  0  0  0  0  0  0  0  0  0  0  0
   20.1596   -7.0873    5.2452 C   0  0  0  0  0  0  0  0  0  0  0  0
 25 26  1  0  0  0
 26 27  2  0  0  0
 27 28  1  0  0  0
 28 29  1  0  0  0
 29 30  2  0  0  0
 30 31  1  0  0  0
 31 24  1  0  0  0
 24 23  1  0  0  0
 23 21  1  0  0  0
 21 22  2  0  0  0
 21  1  1  0  0  0
  1  2  2  0  0  0
  2  3  1  0  0  0
  3  4  2  0  0  0
  4  5  1  0  0  0
  5  6  2  0  0  0
  4  7  1  0  0  0
  7  8  1  0  0  0
  8 11  1  0  0  0
 11 12  1  0  0  0
 12 13  1  0  0  0
 13 14  2  0  0  0
 14 15  1  0  0  0
 15 16  2  0  0  0
 16 17  1  0  0  0
 17 18  1  0  0  0
 17 19  2  0  0  0
 16 20  1  0  0  0
  8  9  2  0  0  0
 31 32  2  0  0  0
 32 33  1  0  0  0
 33 34  2  0  0  0
 27 35  1  0  0  0
 29 25  1  0  0  0
  6  1  1  0  0  0
 19 13  1  0  0  0
 33 25  1  0  0  0
  7 10  1  0  0  0
M  END
>  <minimizedAffinity>
-8.85382

>  <minimizedRMSD>
1.12872

$$$$
CHEMBL1564898 8603795 ChemDiv-C679-5559 MCULE-3068551734 MolPort-007-656-132 PubChem-16009570 ZINC000008603795


 30 33  0  0  0  0  0  0  0  0999 V2000
   17.3419  -10.1639   14.2760 C   0  0  0  0  0  0  0  0  0  0  0  0
   18.0022  -11.3709   14.5548 C   0  0  0  0  0  0  0  0  0  0  0  0
   18.0460  -11.8625   15.8616 C   0  0  0  0  0  0  0  0  0  0  0  0
   17.4313  -11.1521   16.8961 C   0  0  0  0  0  0  0  0  0  0  0  0
   16.7698   -9.9480   16.6330 C   0  0  0  0  0  0  0  0  0  0  0  0
   16.7298   -9.4602   15.3180 C   0  0  0  0  0  0  0  0  0  0  0  0
   16.1518   -9.2490   17.7222 N   0  0  0  0  0  0  0  0  0  0  0  0
   15.3327   -8.0713   17.6404 C   0  0  0  0  0  0  0  0  0  0  0  0
   15.0921   -7.5462   16.5203 O   0  0  0  0  0  0  0  0  0  0  0  0
   16.3053   -9.6155   18.6230 H   0  0  0  0  0  0  0  0  0  0  0  0
   14.7766   -7.4847   18.8872 C   0  0  0  0  0  0  0  0  0  0  0  0
   15.6052   -7.4416   20.0206 C   0  0  0  0  0  0  0  0  0  0  0  0
   15.1508   -6.9047   21.2263 C   0  0  0  0  0  0  0  0  0  0  0  0
   13.8549   -6.4002   21.3190 C   0  0  0  0  0  0  0  0  0  0  0  0
   13.0142   -6.4327   20.2060 C   0  0  0  0  0  0  0  0  0  0  0  0
   13.4583   -6.9682   18.9920 C   0  0  0  0  0  0  0  0  0  0  0  0
   12.4954   -6.9639   17.8527 C   0  0  0  0  0  0  0  0  0  0  0  0
   17.2793   -9.6441   12.9808 O   0  0  0  0  0  0  0  0  0  0  0  0
   18.4291   -9.1882   12.2801 C   0  0  0  0  0  0  0  0  0  0  0  0
   17.6431   -9.1802    8.1345 N   0  0  0  0  0  0  0  0  0  0  0  0
   17.5446   -9.0613    6.7834 C   0  0  0  0  0  0  0  0  0  0  0  0
   18.5740   -8.3013    6.2327 C   0  0  0  0  0  0  0  0  0  0  0  0
   19.6208   -7.7696    7.4512 S   0  0  0  0  0  0  0  0  0  0  0  0
   18.7174   -8.5343    8.6406 C   0  0  0  0  0  0  0  0  0  0  0  0
   18.9876   -8.5331    9.9689 N   0  0  0  0  0  0  0  0  0  0  0  0
   18.1609   -9.2053   10.8179 C   0  0  0  0  0  0  0  0  0  0  0  0
   17.0328   -9.8785   10.3235 C   0  0  0  0  0  0  0  0  0  0  0  0
   16.7859   -9.8571    8.9467 C   0  0  0  0  0  0  0  0  0  0  0  0
   15.7824  -10.4566    8.4758 O   0  0  0  0  0  0  0  0  0  0  0  0
   18.7303   -7.9991    4.7863 C   0  0  0  0  0  0  0  0  0  0  0  0
 20 21  1  0  0  0
 21 22  2  0  0  0
 22 23  1  0  0  0
 23 24  1  0  0  0
 24 25  2  0  0  0
 25 26  1  0  0  0
 26 19  1  0  0  0
 19 18  1  0  0  0
 18  1  1  0  0  0
  1  2  2  0  0  0
  2  3  1  0  0  0
  3  4  2  0  0  0
  4  5  1  0  0  0
  5  6  2  0  0  0
  5  7  1  0  0  0
  7  8  1  0  0  0
  8  9  2  0  0  0
  8 11  1  0  0  0
 11 12  2  0  0  0
 12 13  1  0  0  0
 13 14  2  0  0  0
 14 15  1  0  0  0
 15 16  2  0  0  0
 16 17  1  0  0  0
 26 27  2  0  0  0
 27 28  1  0  0  0
 28 29  2  0  0  0
 22 30  1  0  0  0
 24 20  1  0  0  0
  6  1  1  0  0  0
 16 11  1  0  0  0
 28 20  1  0  0  0
  7 10  1  0  0  0
M  END
>  <minimizedAffinity>
-8.22761

>  <minimizedRMSD>
1.13541

$$$$
CHEMBL1902069 8603793 ChemDiv-C679-5548 MCULE-5706815220 MolPort-007-656-131 PubChem-16009568 ZINC000008603793


 30 33  0  0  0  0  0  0  0  0999 V2000
   17.3409  -10.1601   14.2767 C   0  0  0  0  0  0  0  0  0  0  0  0
   17.9966  -11.3697   14.5555 C   0  0  0  0  0  0  0  0  0  0  0  0
   18.0396  -11.8607   15.8624 C   0  0  0  0  0  0  0  0  0  0  0  0
   17.4287  -11.1472   16.8972 C   0  0  0  0  0  0  0  0  0  0  0  0
   16.7722   -9.9405   16.6342 C   0  0  0  0  0  0  0  0  0  0  0  0
   16.7327   -9.4534   15.3188 C   0  0  0  0  0  0  0  0  0  0  0  0
   16.1584   -9.2380   17.7236 N   0  0  0  0  0  0  0  0  0  0  0  0
   15.3271   -8.0688   17.6402 C   0  0  0  0  0  0  0  0  0  0  0  0
   15.0740   -7.5552   16.5184 O   0  0  0  0  0  0  0  0  0  0  0  0
   16.3246   -9.5954   18.6258 H   0  0  0  0  0  0  0  0  0  0  0  0
   14.7776   -7.4788   18.8876 C   0  0  0  0  0  0  0  0  0  0  0  0
   15.6052   -7.4611   20.0226 C   0  0  0  0  0  0  0  0  0  0  0  0
   15.1618   -6.9229   21.2315 C   0  0  0  0  0  0  0  0  0  0  0  0
   13.8774   -6.3909   21.3264 C   0  0  0  0  0  0  0  0  0  0  0  0
   13.0379   -6.3983   20.2125 C   0  0  0  0  0  0  0  0  0  0  0  0
   13.4701   -6.9349   18.9947 C   0  0  0  0  0  0  0  0  0  0  0  0
   12.3213   -6.8881   17.6636 Cl  0  0  0  0  0  0  0  0  0  0  0  0
   17.2792   -9.6405   12.9813 O   0  0  0  0  0  0  0  0  0  0  0  0
   18.4298   -9.1868   12.2803 C   0  0  0  0  0  0  0  0  0  0  0  0
   17.6421   -9.1800    8.1351 N   0  0  0  0  0  0  0  0  0  0  0  0
   17.5432   -9.0614    6.7839 C   0  0  0  0  0  0  0  0  0  0  0  0
   18.5727   -8.3019    6.2326 C   0  0  0  0  0  0  0  0  0  0  0  0
   19.6202   -7.7704    7.4506 S   0  0  0  0  0  0  0  0  0  0  0  0
   18.7169   -8.5343    8.6405 C   0  0  0  0  0  0  0  0  0  0  0  0
   18.9873   -8.5326    9.9689 N   0  0  0  0  0  0  0  0  0  0  0  0
   18.1612   -9.2049   10.8183 C   0  0  0  0  0  0  0  0  0  0  0  0
   17.0327   -9.8779   10.3245 C   0  0  0  0  0  0  0  0  0  0  0  0
   16.7852   -9.8568    8.9477 C   0  0  0  0  0  0  0  0  0  0  0  0
   15.7815  -10.4563    8.4772 O   0  0  0  0  0  0  0  0  0  0  0  0
   18.7286   -8.0002    4.7861 C   0  0  0  0  0  0  0  0  0  0  0  0
 20 21  1  0  0  0
 21 22  2  0  0  0
 22 23  1  0  0  0
 23 24  1  0  0  0
 24 25  2  0  0  0
 25 26  1  0  0  0
 26 19  1  0  0  0
 19 18  1  0  0  0
 18  1  1  0  0  0
  1  2  2  0  0  0
  2  3  1  0  0  0
  3  4  2  0  0  0
  4  5  1  0  0  0
  5  6  2  0  0  0
  5  7  1  0  0  0
  7  8  1  0  0  0
  8  9  2  0  0  0
  8 11  1  0  0  0
 11 12  2  0  0  0
 12 13  1  0  0  0
 13 14  2  0  0  0
 14 15  1  0  0  0
 15 16  2  0  0  0
 16 17  1  0  0  0
 26 27  2  0  0  0
 27 28  1  0  0  0
 28 29  2  0  0  0
 22 30  1  0  0  0
 24 20  1  0  0  0
  6  1  1  0  0  0
 16 11  1  0  0  0
 28 20  1  0  0  0
  7 10  1  0  0  0
M  END
>  <minimizedAffinity>
-8.16256

>  <minimizedRMSD>
1.13659

$$$$
CHEMBL3582390 PubChem-122179525


 30 33  0  0  0  0  0  0  0  0999 V2000
   16.9978   -9.7394   16.4818 C   0  0  0  0  0  0  0  0  0  0  0  0
   17.4624  -10.9931   16.8915 C   0  0  0  0  0  0  0  0  0  0  0  0
   17.9626  -11.9089   15.9662 C   0  0  0  0  0  0  0  0  0  0  0  0
   18.0057  -11.5821   14.6115 C   0  0  0  0  0  0  0  0  0  0  0  0
   18.4957  -12.4859   13.7260 F   0  0  0  0  0  0  0  0  0  0  0  0
   17.5457  -10.3308   14.1781 C   0  0  0  0  0  0  0  0  0  0  0  0
   17.0408   -9.4054   15.1084 C   0  0  0  0  0  0  0  0  0  0  0  0
   16.6045   -8.2026   14.6592 F   0  0  0  0  0  0  0  0  0  0  0  0
   16.4995   -8.8579   17.4992 N   0  0  0  0  0  0  0  0  0  0  0  0
   17.1303   -8.6185   18.2162 H   0  0  0  0  0  0  0  0  0  0  0  0
   14.8430   -6.9328   16.7530 O   0  0  0  0  0  0  0  0  0  0  0  0
   14.9124   -8.1663   17.6093 S   0  0  0  0  0  0  0  0  0  0  0  0
   13.8826   -9.1680   17.1681 O   0  0  0  0  0  0  0  0  0  0  0  0
   14.5963   -7.7234   19.2764 C   0  0  0  0  0  0  0  0  0  0  0  0
   15.6445   -7.3535   20.1224 C   0  0  0  0  0  0  0  0  0  0  0  0
   15.3798   -7.0112   21.4496 C   0  0  0  0  0  0  0  0  0  0  0  0
   14.0625   -7.0470   21.9129 C   0  0  0  0  0  0  0  0  0  0  0  0
   13.0544   -7.4127   21.0757 N   0  0  0  0  0  0  0  0  0  0  0  0
   13.2924   -7.7496   19.7793 C   0  0  0  0  0  0  0  0  0  0  0  0
   17.5918   -9.9952   12.7771 C   0  0  0  0  0  0  0  0  0  0  0  0
   17.6302   -9.7137   11.6054 C   0  0  0  0  0  0  0  0  0  0  0  0
   17.6758   -9.3781   10.2111 C   0  0  0  0  0  0  0  0  0  0  0  0
   16.7103   -9.8866    9.3202 C   0  0  0  0  0  0  0  0  0  0  0  0
   16.7552   -9.5659    7.9937 N   0  0  0  0  0  0  0  0  0  0  0  0
   17.7461   -8.7506    7.5562 C   0  0  0  0  0  0  0  0  0  0  0  0
   17.9700   -8.3091    6.2723 C   0  0  0  0  0  0  0  0  0  0  0  0
   19.1123   -7.5127    6.4286 C   0  0  0  0  0  0  0  0  0  0  0  0
   19.5130   -7.5027    7.7244 N   0  0  0  0  0  0  0  0  0  0  0  0
   18.6663   -8.2621    8.3880 N   0  0  0  0  0  0  0  0  0  0  0  0
   18.6815   -8.5389    9.7133 C   0  0  0  0  0  0  0  0  0  0  0  0
 11 12  2  0  0  0
 12 13  2  0  0  0
 12  9  1  0  0  0
  9  1  1  0  0  0
  1  2  2  0  0  0
  2  3  1  0  0  0
  3  4  2  0  0  0
  4  5  1  0  0  0
  4  6  1  0  0  0
  6 20  1  0  0  0
 20 21  3  0  0  0
 21 22  1  0  0  0
 22 23  1  0  0  0
 23 24  2  0  0  0
 24 25  1  0  0  0
 25 26  2  0  0  0
 26 27  1  0  0  0
 27 28  2  0  0  0
 28 29  1  0  0  0
 29 30  1  0  0  0
  6  7  2  0  0  0
  7  8  1  0  0  0
 12 14  1  0  0  0
 14 15  2  0  0  0
 15 16  1  0  0  0
 16 17  2  0  0  0
 17 18  1  0  0  0
 18 19  2  0  0  0
  7  1  1  0  0  0
 19 14  1  0  0  0
 30 22  2  0  0  0
 29 25  1  0  0  0
  9 10  1  0  0  0
M  END
>  <minimizedAffinity>
-8.76718

>  <minimizedRMSD>
1.14159

$$$$
CHEMBL3694308 PubChem-56932856


 29 32  0  0  0  0  0  0  0  0999 V2000
   17.8519  -10.1723   12.2918 C   0  0  0  0  0  0  0  0  0  0  0  0
   18.4261  -10.3283   13.6993 C   0  0  0  0  0  0  0  0  0  0  0  0
   17.5969   -9.6498   14.7558 C   0  0  0  0  0  0  0  0  0  0  0  0
   16.2714   -9.2286   14.5084 C   0  0  0  0  0  0  0  0  0  0  0  0
   15.6481   -9.3504   13.1488 C   0  0  0  0  0  0  0  0  0  0  0  0
   16.3462  -10.4106   12.2987 C   0  0  0  0  0  0  0  0  0  0  0  0
   15.5340   -8.6263   15.5319 C   0  0  0  0  0  0  0  0  0  0  0  0
   16.0866   -8.4601   16.8093 C   0  0  0  0  0  0  0  0  0  0  0  0
   17.3941   -8.9005   17.0526 C   0  0  0  0  0  0  0  0  0  0  0  0
   18.1423   -9.4938   16.0331 C   0  0  0  0  0  0  0  0  0  0  0  0
   15.3012   -7.8291   17.8845 C   0  0  0  0  0  0  0  0  0  0  0  0
   14.1893   -7.2932   17.6255 O   0  0  0  0  0  0  0  0  0  0  0  0
   15.7944   -7.8211   19.2246 N   0  0  0  0  0  0  0  0  0  0  0  0
   15.0847   -7.2456   20.2231 O   0  0  0  0  0  0  0  0  0  0  0  0
   16.6625   -8.2399   19.4250 H   0  0  0  0  0  0  0  0  0  0  0  0
   14.2600   -6.8813   19.8653 H   0  0  0  0  0  0  0  0  0  0  0  0
   15.8140  -10.4162   10.9388 N   0  0  0  0  0  0  0  0  0  0  0  0
   14.9097  -10.7817   10.8048 H   0  0  0  0  0  0  0  0  0  0  0  0
   16.5101   -9.9294    9.7853 C   0  0  0  0  0  0  0  0  0  0  0  0
   16.1720  -10.3991    8.5538 N   0  0  0  0  0  0  0  0  0  0  0  0
   16.8071   -9.9629    7.4341 C   0  0  0  0  0  0  0  0  0  0  0  0
   17.8235   -9.0177    7.5404 C   0  0  0  0  0  0  0  0  0  0  0  0
   18.4973   -8.5470    6.4110 C   0  0  0  0  0  0  0  0  0  0  0  0
   19.5137   -7.5967    6.5562 C   0  0  0  0  0  0  0  0  0  0  0  0
   19.8540   -7.1196    7.8276 C   0  0  0  0  0  0  0  0  0  0  0  0
   19.1799   -7.5903    8.9598 C   0  0  0  0  0  0  0  0  0  0  0  0
   18.1639   -8.5397    8.8200 C   0  0  0  0  0  0  0  0  0  0  0  0
   17.5023   -9.0042    9.9103 N   0  0  0  0  0  0  0  0  0  0  0  0
   20.1701   -7.1372    5.4641 F   0  0  0  0  0  0  0  0  0  0  0  0
  1  2  1  0  0  0
  2  3  1  0  0  0
  3  4  2  0  0  0
  4  5  1  0  0  0
  4  7  1  0  0  0
  5  6  1  0  0  0
  6 17  1  0  0  0
  6  1  1  0  0  0
 17 19  1  0  0  0
 19 20  2  0  0  0
 20 21  1  0  0  0
 21 22  2  0  0  0
 22 23  1  0  0  0
 23 24  2  0  0  0
 24 25  1  0  0  0
 24 29  1  0  0  0
 25 26  2  0  0  0
 26 27  1  0  0  0
 27 28  2  0  0  0
 27 22  1  0  0  0
 28 19  1  0  0  0
  7  8  2  0  0  0
  8  9  1  0  0  0
  8 11  1  0  0  0
  9 10  2  0  0  0
 10  3  1  0  0  0
 11 12  2  0  0  0
 11 13  1  0  0  0
 13 14  1  0  0  0
 17 18  1  0  0  0
 13 15  1  0  0  0
 14 16  1  0  0  0
M  END
>  <minimizedAffinity>
-10.22263

>  <minimizedRMSD>
1.14953

$$$$
CHEMBL3670424 PubChem-66763685


 38 41  0  0  0  0  0  0  0  0999 V2000
   17.3171   -9.7579   16.4349 C   0  0  0  0  0  0  0  0  0  0  0  0
   17.4643  -11.0765   16.8800 C   0  0  0  0  0  0  0  0  0  0  0  0
   17.9478  -12.0653   16.0178 C   0  0  0  0  0  0  0  0  0  0  0  0
   18.2902  -11.7398   14.7030 C   0  0  0  0  0  0  0  0  0  0  0  0
   18.1547  -10.4238   14.2516 C   0  0  0  0  0  0  0  0  0  0  0  0
   17.6624   -9.4382   15.1130 C   0  0  0  0  0  0  0  0  0  0  0  0
   15.1128   -7.4270   18.5276 N   0  0  0  0  0  0  0  0  0  0  0  0
   15.4329   -8.4084   17.5332 C   0  0  0  0  0  0  0  0  0  0  0  0
   14.5253   -8.9396   16.8383 O   0  0  0  0  0  0  0  0  0  0  0  0
   16.8061   -8.7746   17.3455 N   0  0  0  0  0  0  0  0  0  0  0  0
   15.8689   -7.0528   19.0350 H   0  0  0  0  0  0  0  0  0  0  0  0
   17.4680   -8.3015   17.9000 H   0  0  0  0  0  0  0  0  0  0  0  0
   13.5397   -6.5513   20.1900 C   0  0  0  0  0  0  0  0  0  0  0  0
   12.2646   -6.0691   20.5302 C   0  0  0  0  0  0  0  0  0  0  0  0
   11.2657   -5.9628   19.5609 C   0  0  0  0  0  0  0  0  0  0  0  0
   11.5312   -6.3381   18.2437 C   0  0  0  0  0  0  0  0  0  0  0  0
   12.7952   -6.8191   17.8972 C   0  0  0  0  0  0  0  0  0  0  0  0
   13.8072   -6.9309   18.8633 C   0  0  0  0  0  0  0  0  0  0  0  0
   14.2833   -6.7133   22.5474 C   0  0  0  0  0  0  0  0  0  0  0  0
   14.5498   -6.6651   21.1523 O   0  0  0  0  0  0  0  0  0  0  0  0
   18.4945  -10.0807   12.8452 C   0  0  0  0  0  0  0  0  0  0  0  0
   17.2799   -9.7646   12.1090 N   0  0  0  0  0  0  0  0  0  0  0  0
   16.4725   -9.5931   12.6456 H   0  0  0  0  0  0  0  0  0  0  0  0
   17.1331   -9.6760   10.6818 C   0  0  0  0  0  0  0  0  0  0  0  0
   16.0369  -10.2587   10.1302 N   0  0  0  0  0  0  0  0  0  0  0  0
   15.8075  -10.2352    8.7944 C   0  0  0  0  0  0  0  0  0  0  0  0
   16.6816   -9.6167    7.9648 N   0  0  0  0  0  0  0  0  0  0  0  0
   17.8004   -9.0065    8.4381 C   0  0  0  0  0  0  0  0  0  0  0  0
   18.0576   -9.0191    9.8334 C   0  0  0  0  0  0  0  0  0  0  0  0
   19.2014   -8.3764   10.3216 C   0  0  0  0  0  0  0  0  0  0  0  0
   20.0823   -7.7345    9.4564 C   0  0  0  0  0  0  0  0  0  0  0  0
   19.8313   -7.7253    8.0865 C   0  0  0  0  0  0  0  0  0  0  0  0
   18.6989   -8.3574    7.5546 C   0  0  0  0  0  0  0  0  0  0  0  0
   18.4975   -8.3107    6.0844 C   0  0  0  0  0  0  0  0  0  0  0  0
   17.4983   -8.8567    5.5461 O   0  0  0  0  0  0  0  0  0  0  0  0
   19.4471   -7.6476    5.2535 N   0  0  0  0  0  0  0  0  0  0  0  0
   20.2349   -7.2147    5.6548 H   0  0  0  0  0  0  0  0  0  0  0  0
   19.3151   -7.6226    4.2782 H   0  0  0  0  0  0  0  0  0  0  0  0
 19 20  1  0  0  0
 20 13  1  0  0  0
 13 14  2  0  0  0
 14 15  1  0  0  0
 15 16  2  0  0  0
 16 17  1  0  0  0
 17 18  2  0  0  0
 18  7  1  0  0  0
 18 13  1  0  0  0
  7  8  1  0  0  0
  8  9  2  0  0  0
  8 10  1  0  0  0
 10  1  1  0  0  0
  1  2  2  0  0  0
  2  3  1  0  0  0
  3  4  2  0  0  0
  4  5  1  0  0  0
  5  6  2  0  0  0
  5 21  1  0  0  0
  6  1  1  0  0  0
 21 22  1  0  0  0
 22 24  1  0  0  0
 24 25  2  0  0  0
 25 26  1  0  0  0
 26 27  2  0  0  0
 27 28  1  0  0  0
 28 29  2  0  0  0
 29 30  1  0  0  0
 29 24  1  0  0  0
 30 31  2  0  0  0
 31 32  1  0  0  0
 32 33  2  0  0  0
 33 34  1  0  0  0
 33 28  1  0  0  0
 34 35  2  0  0  0
 34 36  1  0  0  0
  7 11  1  0  0  0
 10 12  1  0  0  0
 22 23  1  0  0  0
 36 37  1  0  0  0
 36 38  1  0  0  0
M  END
>  <minimizedAffinity>
-9.23138

>  <minimizedRMSD>
1.15412

$$$$
CHEMBL1172720 PubChem-46837263


 32 35  0  0  0  0  0  0  0  0999 V2000
   18.8725  -11.8362   13.9613 C   0  0  0  0  0  0  0  0  0  0  0  0
   18.0170  -10.8934   14.7396 C   0  0  0  0  0  0  0  0  0  0  0  0
   18.0363  -10.9680   16.1352 C   0  0  0  0  0  0  0  0  0  0  0  0
   17.2493  -10.1025   16.8988 C   0  0  0  0  0  0  0  0  0  0  0  0
   16.4325   -9.1504   16.2748 C   0  0  0  0  0  0  0  0  0  0  0  0
   16.4141   -9.0765   14.8750 C   0  0  0  0  0  0  0  0  0  0  0  0
   17.1992   -9.9396   14.1040 C   0  0  0  0  0  0  0  0  0  0  0  0
   15.6028   -8.2377   17.0810 C   0  0  0  0  0  0  0  0  0  0  0  0
   14.8818   -7.3769   16.5068 O   0  0  0  0  0  0  0  0  0  0  0  0
   15.6228   -8.3365   18.5135 N   0  0  0  0  0  0  0  0  0  0  0  0
   16.2066   -9.0294   18.8987 H   0  0  0  0  0  0  0  0  0  0  0  0
   14.8827   -7.5330   19.4424 C   0  0  0  0  0  0  0  0  0  0  0  0
   13.7155   -6.8502   19.0697 C   0  0  0  0  0  0  0  0  0  0  0  0
   13.0257   -6.0699   20.0006 C   0  0  0  0  0  0  0  0  0  0  0  0
   13.4953   -5.9706   21.3124 C   0  0  0  0  0  0  0  0  0  0  0  0
   14.6502   -6.6616   21.7047 C   0  0  0  0  0  0  0  0  0  0  0  0
   15.3462   -7.4269   20.7580 C   0  0  0  0  0  0  0  0  0  0  0  0
   15.1853   -6.5127   23.0992 C   0  0  0  0  0  0  0  0  0  0  0  0
   16.3092   -5.7081   23.0737 F   0  0  0  0  0  0  0  0  0  0  0  0
   14.2341   -5.9348   23.9224 F   0  0  0  0  0  0  0  0  0  0  0  0
   15.5263   -7.7491   23.6200 F   0  0  0  0  0  0  0  0  0  0  0  0
   17.1477   -9.8259   12.6691 C   0  0  0  0  0  0  0  0  0  0  0  0
   17.1053   -9.7304   11.4682 C   0  0  0  0  0  0  0  0  0  0  0  0
   17.0558   -9.6149   10.0363 C   0  0  0  0  0  0  0  0  0  0  0  0
   16.1689  -10.2582    9.1837 C   0  0  0  0  0  0  0  0  0  0  0  0
   16.4483   -9.8880    7.9040 N   0  0  0  0  0  0  0  0  0  0  0  0
   17.4885   -9.0384    8.0239 C   0  0  0  0  0  0  0  0  0  0  0  0
   18.1472   -8.3806    6.9921 C   0  0  0  0  0  0  0  0  0  0  0  0
   19.2110   -7.5377    7.3524 C   0  0  0  0  0  0  0  0  0  0  0  0
   19.5664   -7.3900    8.7076 C   0  0  0  0  0  0  0  0  0  0  0  0
   18.8725   -8.0688    9.6657 N   0  0  0  0  0  0  0  0  0  0  0  0
   17.8690   -8.8602    9.2915 N   0  0  0  0  0  0  0  0  0  0  0  0
  1  2  1  0  0  0
  2  3  2  0  0  0
  3  4  1  0  0  0
  4  5  2  0  0  0
  5  8  1  0  0  0
  5  6  1  0  0  0
  8  9  2  0  0  0
  8 10  1  0  0  0
 10 12  1  0  0  0
 12 13  2  0  0  0
 13 14  1  0  0  0
 14 15  2  0  0  0
 15 16  1  0  0  0
 16 18  1  0  0  0
 16 17  2  0  0  0
 18 19  1  0  0  0
 18 20  1  0  0  0
 18 21  1  0  0  0
 17 12  1  0  0  0
  6  7  2  0  0  0
  7 22  1  0  0  0
  7  2  1  0  0  0
 22 23  3  0  0  0
 23 24  1  0  0  0
 24 25  2  0  0  0
 25 26  1  0  0  0
 26 27  2  0  0  0
 27 28  1  0  0  0
 28 29  2  0  0  0
 29 30  1  0  0  0
 30 31  2  0  0  0
 31 32  1  0  0  0
 32 24  1  0  0  0
 32 27  1  0  0  0
 10 11  1  0  0  0
M  END
>  <minimizedAffinity>
-12.39655

>  <minimizedRMSD>
1.15453

$$$$
CHEMBL3808725


 38 42  0  0  0  0  0  0  0  0999 V2000
   16.9116  -10.1105   14.1928 C   0  0  0  0  0  0  0  0  0  0  0  0
   17.9091  -11.0727   14.4378 C   0  0  0  0  0  0  0  0  0  0  0  0
   18.2786  -11.3672   15.7533 C   0  0  0  0  0  0  0  0  0  0  0  0
   17.6662  -10.7077   16.8221 C   0  0  0  0  0  0  0  0  0  0  0  0
   16.6785   -9.7466   16.5886 C   0  0  0  0  0  0  0  0  0  0  0  0
   16.3087   -9.4503   15.2687 C   0  0  0  0  0  0  0  0  0  0  0  0
   18.5886  -11.7937   13.3232 C   0  0  0  0  0  0  0  0  0  0  0  0
   16.0794   -9.0861   17.7118 N   0  0  0  0  0  0  0  0  0  0  0  0
   15.1645   -7.9800   17.6730 C   0  0  0  0  0  0  0  0  0  0  0  0
   14.7830   -7.5005   16.5706 O   0  0  0  0  0  0  0  0  0  0  0  0
   16.3208   -9.4269   18.6033 H   0  0  0  0  0  0  0  0  0  0  0  0
   14.6646   -7.4015   18.9326 C   0  0  0  0  0  0  0  0  0  0  0  0
   15.3998   -7.5655   20.1283 C   0  0  0  0  0  0  0  0  0  0  0  0
   14.8769   -6.9942   21.2832 C   0  0  0  0  0  0  0  0  0  0  0  0
   13.7104   -6.3025   21.2892 C   0  0  0  0  0  0  0  0  0  0  0  0
   12.9496   -6.1124   20.1415 C   0  0  0  0  0  0  0  0  0  0  0  0
   13.4441   -6.6753   18.9489 C   0  0  0  0  0  0  0  0  0  0  0  0
   13.4720   -5.8776   22.5374 N   0  0  0  0  0  0  0  0  0  0  0  0
   14.4986   -6.3203   23.2624 N   0  0  0  0  0  0  0  0  0  0  0  0
   15.3736   -7.0055   22.5275 N   0  0  0  0  0  0  0  0  0  0  0  0
   16.2075   -7.4298   22.8337 H   0  0  0  0  0  0  0  0  0  0  0  0
   16.5028   -9.7438   12.8048 C   0  0  0  0  0  0  0  0  0  0  0  0
   17.6845   -9.4708   12.0008 N   0  0  0  0  0  0  0  0  0  0  0  0
   18.5521   -9.3749   12.4561 H   0  0  0  0  0  0  0  0  0  0  0  0
   18.6263   -8.5732    9.9298 C   0  0  0  0  0  0  0  0  0  0  0  0
   17.6400   -9.3360   10.5791 C   0  0  0  0  0  0  0  0  0  0  0  0
   16.6216   -9.9558    9.8133 C   0  0  0  0  0  0  0  0  0  0  0  0
   16.5905   -9.8184    8.4539 N   0  0  0  0  0  0  0  0  0  0  0  0
   17.5506   -9.0788    7.8455 C   0  0  0  0  0  0  0  0  0  0  0  0
   18.5473   -8.4672    8.5459 C   0  0  0  0  0  0  0  0  0  0  0  0
   19.3552   -7.8023    7.6543 C   0  0  0  0  0  0  0  0  0  0  0  0
   18.7547   -8.0762    6.4214 C   0  0  0  0  0  0  0  0  0  0  0  0
   17.6495   -8.8566    6.5280 N   0  0  0  0  0  0  0  0  0  0  0  0
   17.0610   -9.1819    5.8089 H   0  0  0  0  0  0  0  0  0  0  0  0
   19.2577   -7.5792    5.1361 C   0  0  0  0  0  0  0  0  0  0  0  0
   18.6541   -7.8788    4.0697 O   0  0  0  0  0  0  0  0  0  0  0  0
   20.4019   -6.7796    5.1027 O   0  0  0  0  0  0  0  0  0  0  0  0
   20.6719   -5.9019    4.0204 C   0  0  0  0  0  0  0  0  0  0  0  0
 25 26  2  0  0  0
 26 27  1  0  0  0
 27 28  2  0  0  0
 28 29  1  0  0  0
 29 30  2  0  0  0
 30 31  1  0  0  0
 31 32  2  0  0  0
 32 33  1  0  0  0
 32 35  1  0  0  0
 35 36  2  0  0  0
 35 37  1  0  0  0
 37 38  1  0  0  0
 26 23  1  0  0  0
 23 22  1  0  0  0
 22  1  1  0  0  0
  1  2  2  0  0  0
  2  3  1  0  0  0
  3  4  2  0  0  0
  4  5  1  0  0  0
  5  6  2  0  0  0
  5  8  1  0  0  0
  8  9  1  0  0  0
  9 10  2  0  0  0
  9 12  1  0  0  0
 12 13  2  0  0  0
 13 14  1  0  0  0
 14 15  2  0  0  0
 15 16  1  0  0  0
 16 17  2  0  0  0
 15 18  1  0  0  0
 18 19  2  0  0  0
 19 20  1  0  0  0
  2  7  1  0  0  0
 30 25  1  0  0  0
  6  1  1  0  0  0
 17 12  1  0  0  0
 33 29  1  0  0  0
 20 14  1  0  0  0
 33 34  1  0  0  0
 23 24  1  0  0  0
  8 11  1  0  0  0
 20 21  1  0  0  0
M  END
>  <minimizedAffinity>
-11.38364

>  <minimizedRMSD>
1.15606

$$$$
CHEMBL5093668 PubChem-156898823


 35 39  0  0  0  0  0  0  0  0999 V2000
   16.6404   -8.7344   14.3101 C   0  0  0  0  0  0  0  0  0  0  0  0
   15.5843   -9.3683   15.2069 C   0  0  0  0  0  0  0  0  0  0  0  0
   14.6691  -10.2100   14.6759 C   0  0  0  0  0  0  0  0  0  0  0  0
   14.6962  -10.5080   13.2795 N   0  0  0  0  0  0  0  0  0  0  0  0
   15.6625   -9.9195   12.4132 C   0  0  0  0  0  0  0  0  0  0  0  0
   16.5495   -9.1044   12.8943 N   0  0  0  0  0  0  0  0  0  0  0  0
   13.5639  -10.8121   15.4791 C   0  0  0  0  0  0  0  0  0  0  0  0
   14.0332  -11.1334   12.9074 H   0  0  0  0  0  0  0  0  0  0  0  0
   18.4054  -11.0028   13.3581 C   0  0  0  0  0  0  0  0  0  0  0  0
   18.8676  -10.0087   14.3687 C   0  0  0  0  0  0  0  0  0  0  0  0
   20.1617  -10.1415   14.8820 C   0  0  0  0  0  0  0  0  0  0  0  0
   20.6440   -9.2335   15.8273 C   0  0  0  0  0  0  0  0  0  0  0  0
   19.8334   -8.1845   16.2644 C   0  0  0  0  0  0  0  0  0  0  0  0
   18.5395   -8.0440   15.7578 C   0  0  0  0  0  0  0  0  0  0  0  0
   18.0423   -8.9498   14.8131 C   0  0  0  0  0  0  0  0  0  0  0  0
   15.5757   -8.9750   16.6401 C   0  0  0  0  0  0  0  0  0  0  0  0
   16.3246   -9.5865   17.4496 O   0  0  0  0  0  0  0  0  0  0  0  0
   14.6936   -7.9489   17.1141 N   0  0  0  0  0  0  0  0  0  0  0  0
   14.1143   -7.5070   16.4520 H   0  0  0  0  0  0  0  0  0  0  0  0
   14.5895   -7.5172   18.4739 C   0  0  0  0  0  0  0  0  0  0  0  0
   15.5440   -7.6977   19.4090 N   0  0  0  0  0  0  0  0  0  0  0  0
   15.2033   -7.2046   20.5991 N   0  0  0  0  0  0  0  0  0  0  0  0
   13.9788   -6.6260   20.6332 C   0  0  0  0  0  0  0  0  0  0  0  0
   13.2594   -6.7204   19.1094 S   0  0  0  0  0  0  0  0  0  0  0  0
   15.6423  -10.2443   11.0195 N   0  0  0  0  0  0  0  0  0  0  0  0
   14.9971  -10.9249   10.7199 H   0  0  0  0  0  0  0  0  0  0  0  0
   16.4895   -9.6541   10.0288 C   0  0  0  0  0  0  0  0  0  0  0  0
   16.3188   -9.8787    8.6999 N   0  0  0  0  0  0  0  0  0  0  0  0
   17.3131   -9.1464    8.1702 C   0  0  0  0  0  0  0  0  0  0  0  0
   17.6348   -8.9917    6.8242 C   0  0  0  0  0  0  0  0  0  0  0  0
   18.7319   -8.1654    6.5133 C   0  0  0  0  0  0  0  0  0  0  0  0
   19.4655   -7.5269    7.5396 C   0  0  0  0  0  0  0  0  0  0  0  0
   19.1121   -7.7060    8.8904 C   0  0  0  0  0  0  0  0  0  0  0  0
   18.0224   -8.5295    9.1573 C   0  0  0  0  0  0  0  0  0  0  0  0
   17.5033   -8.8508   10.3103 O   0  0  0  0  0  0  0  0  0  0  0  0
  9 10  1  0  0  0
 10 11  2  0  0  0
 11 12  1  0  0  0
 12 13  2  0  0  0
 13 14  1  0  0  0
 14 15  2  0  0  0
 15  1  1  0  0  0
  1  2  1  0  0  0
  2  3  2  0  0  0
  3  4  1  0  0  0
  4  5  1  0  0  0
  5  6  2  0  0  0
  5 25  1  0  0  0
 25 27  1  0  0  0
 27 28  2  0  0  0
 28 29  1  0  0  0
 29 30  2  0  0  0
 30 31  1  0  0  0
 31 32  2  0  0  0
 32 33  1  0  0  0
 33 34  2  0  0  0
 34 35  1  0  0  0
  3  7  1  0  0  0
  2 16  1  0  0  0
 16 17  2  0  0  0
 16 18  1  0  0  0
 18 20  1  0  0  0
 20 21  2  0  0  0
 21 22  1  0  0  0
 22 23  2  0  0  0
 23 24  1  0  0  0
 15 10  1  0  0  0
  6  1  1  0  0  0
 35 27  1  0  0  0
 34 29  1  0  0  0
 24 20  1  0  0  0
  4  8  1  0  0  0
 25 26  1  0  0  0
 18 19  1  0  0  0
M  END
>  <minimizedAffinity>
-1.57121

>  <minimizedRMSD>
1.16240

$$$$
CHEMBL5193775 PubChem-164172189


 36 40  0  0  0  0  0  0  0  0999 V2000
   16.0169   -8.6114   18.8220 N   0  0  0  0  0  0  0  0  0  0  0  0
   15.8598   -8.4895   17.3999 C   0  0  0  0  0  0  0  0  0  0  0  0
   15.1245   -7.5894   16.9098 O   0  0  0  0  0  0  0  0  0  0  0  0
   16.6049   -9.3342   19.1397 H   0  0  0  0  0  0  0  0  0  0  0  0
   15.1383   -7.2627   22.1875 C   0  0  0  0  0  0  0  0  0  0  0  0
   14.2544   -6.2292   21.8487 C   0  0  0  0  0  0  0  0  0  0  0  0
   13.9391   -5.9668   20.5077 C   0  0  0  0  0  0  0  0  0  0  0  0
   14.5215   -6.7543   19.5042 C   0  0  0  0  0  0  0  0  0  0  0  0
   15.4075   -7.7911   19.8281 C   0  0  0  0  0  0  0  0  0  0  0  0
   15.7095   -8.0378   21.1703 C   0  0  0  0  0  0  0  0  0  0  0  0
   13.0327   -4.9059   20.1664 N   0  0  0  0  0  0  0  0  0  0  0  0
   12.5290   -3.9808   21.0028 C   0  0  0  0  0  0  0  0  0  0  0  0
   11.7055   -3.1583   20.2598 C   0  0  0  0  0  0  0  0  0  0  0  0
   11.7055   -3.5775   18.9773 N   0  0  0  0  0  0  0  0  0  0  0  0
   12.5242   -4.6462   18.9484 C   0  0  0  0  0  0  0  0  0  0  0  0
   14.8453   -6.6590   24.4715 F   0  0  0  0  0  0  0  0  0  0  0  0
   15.4796   -7.5490   23.6210 C   0  0  0  0  0  0  0  0  0  0  0  0
   16.8465   -7.4399   23.8016 F   0  0  0  0  0  0  0  0  0  0  0  0
   15.0815   -8.8336   23.9433 F   0  0  0  0  0  0  0  0  0  0  0  0
   16.5638   -9.4247   16.5050 C   0  0  0  0  0  0  0  0  0  0  0  0
   16.5033   -9.2575   15.1132 C   0  0  0  0  0  0  0  0  0  0  0  0
   17.1717  -10.1451   14.2646 C   0  0  0  0  0  0  0  0  0  0  0  0
   17.9056  -11.2065   14.8015 C   0  0  0  0  0  0  0  0  0  0  0  0
   17.9708  -11.3806   16.1864 C   0  0  0  0  0  0  0  0  0  0  0  0
   17.3024  -10.4930   17.0348 C   0  0  0  0  0  0  0  0  0  0  0  0
   17.1044   -9.9652   12.8424 C   0  0  0  0  0  0  0  0  0  0  0  0
   17.0474   -9.8154   11.6476 C   0  0  0  0  0  0  0  0  0  0  0  0
   16.9780   -9.6394   10.2226 C   0  0  0  0  0  0  0  0  0  0  0  0
   17.8217   -8.9061    9.4907 N   0  0  0  0  0  0  0  0  0  0  0  0
   18.8792   -8.1936    9.8739 N   0  0  0  0  0  0  0  0  0  0  0  0
   19.5948   -7.5196    8.9287 C   0  0  0  0  0  0  0  0  0  0  0  0
   19.2047   -7.5895    7.5767 C   0  0  0  0  0  0  0  0  0  0  0  0
   18.0841   -8.3501    7.2067 C   0  0  0  0  0  0  0  0  0  0  0  0
   17.4063   -9.0083    8.2257 C   0  0  0  0  0  0  0  0  0  0  0  0
   16.3130   -9.7866    8.0949 N   0  0  0  0  0  0  0  0  0  0  0  0
   16.0363  -10.1911    9.3649 C   0  0  0  0  0  0  0  0  0  0  0  0
 16 17  1  0  0  0
 17 18  1  0  0  0
 17 19  1  0  0  0
 17  5  1  0  0  0
  5  6  2  0  0  0
  6  7  1  0  0  0
  7 11  1  0  0  0
 11 12  1  0  0  0
 12 13  2  0  0  0
 13 14  1  0  0  0
 14 15  2  0  0  0
  7  8  2  0  0  0
  8  9  1  0  0  0
  9  1  1  0  0  0
  1  2  1  0  0  0
  2  3  2  0  0  0
  2 20  1  0  0  0
 20 21  2  0  0  0
 21 22  1  0  0  0
 22 23  2  0  0  0
 23 24  1  0  0  0
 24 25  2  0  0  0
 22 26  1  0  0  0
 26 27  3  0  0  0
 27 28  1  0  0  0
 28 29  1  0  0  0
 29 30  1  0  0  0
 30 31  2  0  0  0
 31 32  1  0  0  0
 32 33  2  0  0  0
 33 34  1  0  0  0
 34 35  2  0  0  0
 35 36  1  0  0  0
  9 10  2  0  0  0
 10  5  1  0  0  0
 15 11  1  0  0  0
 25 20  1  0  0  0
 36 28  2  0  0  0
 34 29  1  0  0  0
  1  4  1  0  0  0
M  END
>  <minimizedAffinity>
-7.43296

>  <minimizedRMSD>
1.16519

$$$$
CHEMBL4782988 PubChem-162665208


 33 35  0  0  0  0  0  0  0  0999 V2000
   19.4631   -7.7959    6.0152 C   0  0  0  0  0  0  0  0  0  0  0  0
   20.0118   -7.4302    7.2741 C   0  0  0  0  0  0  0  0  0  0  0  0
   19.4246   -7.8581    8.4788 C   0  0  0  0  0  0  0  0  0  0  0  0
   18.2878   -8.6516    8.3792 C   0  0  0  0  0  0  0  0  0  0  0  0
   17.7467   -9.0130    7.1807 C   0  0  0  0  0  0  0  0  0  0  0  0
   18.3036   -8.6062    5.9725 C   0  0  0  0  0  0  0  0  0  0  0  0
   16.6559   -9.7787    7.3687 N   0  0  0  0  0  0  0  0  0  0  0  0
   16.4880   -9.9150    8.6821 N   0  0  0  0  0  0  0  0  0  0  0  0
   17.4733   -9.2348    9.3138 C   0  0  0  0  0  0  0  0  0  0  0  0
   16.0871  -10.1664    6.6647 H   0  0  0  0  0  0  0  0  0  0  0  0
   20.0992   -7.3332    4.7588 C   0  0  0  0  0  0  0  0  0  0  0  0
   20.1304   -8.1624    3.6257 C   0  0  0  0  0  0  0  0  0  0  0  0
   20.7313   -7.7301    2.4325 C   0  0  0  0  0  0  0  0  0  0  0  0
   21.3051   -6.4570    2.3756 C   0  0  0  0  0  0  0  0  0  0  0  0
   21.2810   -5.6223    3.4951 C   0  0  0  0  0  0  0  0  0  0  0  0
   20.6817   -6.0579    4.6794 C   0  0  0  0  0  0  0  0  0  0  0  0
   20.7713   -8.5421    1.2958 O   0  0  0  0  0  0  0  0  0  0  0  0
   20.5381   -9.9430    1.3450 C   0  0  0  0  0  0  0  0  0  0  0  0
   17.6335   -9.1433   10.7331 N   0  0  0  0  0  0  0  0  0  0  0  0
   16.7667   -9.7562   11.6926 C   0  0  0  0  0  0  0  0  0  0  0  0
   15.7811  -10.4507   11.3274 O   0  0  0  0  0  0  0  0  0  0  0  0
   18.3951   -8.6208   11.0739 H   0  0  0  0  0  0  0  0  0  0  0  0
   17.0537   -9.5972   13.1431 C   0  0  0  0  0  0  0  0  0  0  0  0
   18.4133  -10.1910   13.4676 C   0  0  0  0  0  0  0  0  0  0  0  0
   18.3825  -10.8703   14.8243 C   0  0  0  0  0  0  0  0  0  0  0  0
   18.2875   -9.8344   15.9326 C   0  0  0  0  0  0  0  0  0  0  0  0
   16.9931  -10.0144   16.7150 C   0  0  0  0  0  0  0  0  0  0  0  0
   16.1901   -8.7529   16.8314 C   0  0  0  0  0  0  0  0  0  0  0  0
   15.8374   -8.1066   15.8070 O   0  0  0  0  0  0  0  0  0  0  0  0
   15.8305   -8.2815   18.1275 N   0  0  0  0  0  0  0  0  0  0  0  0
   15.1089   -7.1465   18.2786 O   0  0  0  0  0  0  0  0  0  0  0  0
   16.1108   -8.7884   18.9236 H   0  0  0  0  0  0  0  0  0  0  0  0
   14.9136   -6.7690   17.4067 H   0  0  0  0  0  0  0  0  0  0  0  0
  1  2  2  0  0  0
  2  3  1  0  0  0
  3  4  2  0  0  0
  4  5  1  0  0  0
  5  6  2  0  0  0
  5  7  1  0  0  0
  7  8  1  0  0  0
  8  9  2  0  0  0
  9 19  1  0  0  0
 19 20  1  0  0  0
 20 21  2  0  0  0
 20 23  1  0  0  0
 23 24  1  0  0  0
 24 25  1  0  0  0
 25 26  1  0  0  0
 26 27  1  0  0  0
 27 28  1  0  0  0
 28 29  2  0  0  0
 28 30  1  0  0  0
 30 31  1  0  0  0
  1 11  1  0  0  0
 11 12  2  0  0  0
 12 13  1  0  0  0
 13 14  2  0  0  0
 14 15  1  0  0  0
 15 16  2  0  0  0
 13 17  1  0  0  0
 17 18  1  0  0  0
  6  1  1  0  0  0
 16 11  1  0  0  0
  9  4  1  0  0  0
  7 10  1  0  0  0
 19 22  1  0  0  0
 30 32  1  0  0  0
 31 33  1  0  0  0
M  END
>  <minimizedAffinity>
-9.46804

>  <minimizedRMSD>
1.16702

$$$$
CHEMBL4065156 PubChem-137631480


 37 40  0  0  0  0  0  0  0  0999 V2000
   15.9068   -9.2400    8.2685 N   0  0  0  0  0  0  0  0  0  0  0  0
   15.3032   -9.5990    9.4320 C   0  0  0  0  0  0  0  0  0  0  0  0
   13.9834  -10.0506    9.4231 C   0  0  0  0  0  0  0  0  0  0  0  0
   13.3676  -10.4262   10.6171 C   0  0  0  0  0  0  0  0  0  0  0  0
   14.0700  -10.3533   11.8222 C   0  0  0  0  0  0  0  0  0  0  0  0
   15.3976   -9.9016   11.8603 C   0  0  0  0  0  0  0  0  0  0  0  0
   16.0202   -9.5173   10.6490 C   0  0  0  0  0  0  0  0  0  0  0  0
   17.3055   -9.0712   10.6223 N   0  0  0  0  0  0  0  0  0  0  0  0
   17.9127   -8.7097    9.4605 C   0  0  0  0  0  0  0  0  0  0  0  0
   17.1915   -8.8004    8.2510 C   0  0  0  0  0  0  0  0  0  0  0  0
   17.7994   -8.4433    7.0454 C   0  0  0  0  0  0  0  0  0  0  0  0
   19.1238   -7.9967    7.0377 C   0  0  0  0  0  0  0  0  0  0  0  0
   19.8422   -7.9038    8.2342 C   0  0  0  0  0  0  0  0  0  0  0  0
   19.2430   -8.2541    9.4496 C   0  0  0  0  0  0  0  0  0  0  0  0
   16.0869   -9.8631   13.1715 C   0  0  0  0  0  0  0  0  0  0  0  0
   17.1308  -10.5426   13.3742 O   0  0  0  0  0  0  0  0  0  0  0  0
   15.5672   -9.0653   14.1959 O   0  0  0  0  0  0  0  0  0  0  0  0
   16.3841   -8.5280   15.2330 C   0  0  0  0  0  0  0  0  0  0  0  0
   15.6680   -7.5530   15.9755 O   0  0  0  0  0  0  0  0  0  0  0  0
   14.9510   -8.1977   16.9997 C   0  0  0  0  0  0  0  0  0  0  0  0
   15.9064   -8.6376   18.1238 C   0  0  0  0  0  0  0  0  0  0  0  0
   17.2277   -9.1439   17.5324 C   0  0  0  0  0  0  0  0  0  0  0  0
   17.0653   -9.6354   16.0883 C   0  0  0  0  0  0  0  0  0  0  0  0
   17.7665  -10.1458   18.3408 O   0  0  0  0  0  0  0  0  0  0  0  0
   16.1808   -7.5772   18.9912 O   0  0  0  0  0  0  0  0  0  0  0  0
   13.8235   -7.3125   17.5020 C   0  0  0  0  0  0  0  0  0  0  0  0
   17.1568  -10.8996   18.3711 H   0  0  0  0  0  0  0  0  0  0  0  0
   16.6170   -6.8629   18.5009 H   0  0  0  0  0  0  0  0  0  0  0  0
   16.3090  -10.8150   16.0662 O   0  0  0  0  0  0  0  0  0  0  0  0
   17.2280  -11.8373   16.3087 C   0  0  0  0  0  0  0  0  0  0  0  0
   20.0373   -8.1453   10.7103 C   0  0  0  0  0  0  0  0  0  0  0  0
   19.6541   -9.2372   11.6617 C   0  0  0  0  0  0  0  0  0  0  0  0
   20.0214   -9.2427   12.9474 C   0  0  0  0  0  0  0  0  0  0  0  0
   20.8330   -8.1349   13.5417 C   0  0  0  0  0  0  0  0  0  0  0  0
   19.5702  -10.3620   13.8228 C   0  0  0  0  0  0  0  0  0  0  0  0
   19.6706   -9.9844   15.1618 O   0  0  0  0  0  0  0  0  0  0  0  0
   20.5936   -9.7699   15.3690 H   0  0  0  0  0  0  0  0  0  0  0  0
  1  2  2  0  0  0
  2  3  1  0  0  0
  3  4  2  0  0  0
  4  5  1  0  0  0
  5  6  2  0  0  0
  6  7  1  0  0  0
  7  8  2  0  0  0
  8  9  1  0  0  0
  9 10  2  0  0  0
 10 11  1  0  0  0
 11 12  2  0  0  0
 12 13  1  0  0  0
 13 14  2  0  0  0
 14 31  1  0  0  0
 31 32  1  0  0  0
 32 33  2  0  0  0
 33 35  1  0  0  0
 35 36  1  0  0  0
 33 34  1  0  0  0
  6 15  1  0  0  0
 15 16  2  0  0  0
 15 17  1  0  0  0
 18 17  1  0  0  0
 18 19  1  0  0  0
 19 20  1  0  0  0
 20 21  1  0  0  0
 21 22  1  0  0  0
 22 23  1  0  0  0
 23 29  1  0  0  0
 29 30  1  0  0  0
 22 24  1  0  0  0
 21 25  1  0  0  0
 20 26  1  0  0  0
 10  1  1  0  0  0
 23 18  1  0  0  0
  7  2  1  0  0  0
 14  9  1  0  0  0
 36 37  1  0  0  0
 24 27  1  0  0  0
 25 28  1  0  0  0
M  END
>  <minimizedAffinity>
6.32288

>  <minimizedRMSD>
1.16733

$$$$
CHEMBL495300 PubChem-24960306


 35 39  0  0  0  0  0  0  0  0999 V2000
   17.8181   -9.2755   12.4044 N   0  0  0  0  0  0  0  0  0  0  0  0
   17.6167   -7.9938   13.0862 C   0  0  0  0  0  0  0  0  0  0  0  0
   16.7679   -8.1214   14.3566 C   0  0  0  0  0  0  0  0  0  0  0  0
   17.1180   -9.3236   15.1958 C   0  0  0  0  0  0  0  0  0  0  0  0
   17.9299  -10.3405   14.6453 C   0  0  0  0  0  0  0  0  0  0  0  0
   18.2304  -11.4819   15.3890 C   0  0  0  0  0  0  0  0  0  0  0  0
   17.7140  -11.6416   16.6714 C   0  0  0  0  0  0  0  0  0  0  0  0
   16.8981  -10.6544   17.2197 C   0  0  0  0  0  0  0  0  0  0  0  0
   16.5851   -9.4886   16.5040 C   0  0  0  0  0  0  0  0  0  0  0  0
   18.5409  -10.2074   13.2768 C   0  0  0  0  0  0  0  0  0  0  0  0
   15.7096   -8.4882   17.1707 C   0  0  0  0  0  0  0  0  0  0  0  0
   14.9874   -7.7089   16.4930 O   0  0  0  0  0  0  0  0  0  0  0  0
   15.7003   -8.4066   18.6040 N   0  0  0  0  0  0  0  0  0  0  0  0
   16.2859   -9.0302   19.0913 H   0  0  0  0  0  0  0  0  0  0  0  0
   14.9170   -7.5009   19.3901 C   0  0  0  0  0  0  0  0  0  0  0  0
   15.2477   -7.3058   20.7338 C   0  0  0  0  0  0  0  0  0  0  0  0
   14.4890   -6.4246   21.5061 C   0  0  0  0  0  0  0  0  0  0  0  0
   13.4112   -5.7485   20.9326 C   0  0  0  0  0  0  0  0  0  0  0  0
   13.1086   -5.9673   19.5872 C   0  0  0  0  0  0  0  0  0  0  0  0
   13.8599   -6.8300   18.8512 N   0  0  0  0  0  0  0  0  0  0  0  0
   16.5370   -9.8500   11.9971 C   0  0  0  0  0  0  0  0  0  0  0  0
   18.4904   -7.8529    7.6199 C   0  0  0  0  0  0  0  0  0  0  0  0
   17.8745   -9.0632    7.2810 C   0  0  0  0  0  0  0  0  0  0  0  0
   17.2454   -9.8466    8.2484 C   0  0  0  0  0  0  0  0  0  0  0  0
   16.6569  -11.0197    7.8938 N   0  0  0  0  0  0  0  0  0  0  0  0
   16.0377  -11.8113    8.8095 C   0  0  0  0  0  0  0  0  0  0  0  0
   15.9911  -11.4299   10.1517 C   0  0  0  0  0  0  0  0  0  0  0  0
   16.5802  -10.2274   10.5503 C   0  0  0  0  0  0  0  0  0  0  0  0
   17.2225   -9.4219    9.5926 C   0  0  0  0  0  0  0  0  0  0  0  0
   17.8363   -8.2129    9.9386 C   0  0  0  0  0  0  0  0  0  0  0  0
   18.4729   -7.4191    8.9698 C   0  0  0  0  0  0  0  0  0  0  0  0
   20.1535   -7.6223    5.7633 C   0  0  0  0  0  0  0  0  0  0  0  0
   19.0973   -7.1350    6.5783 O   0  0  0  0  0  0  0  0  0  0  0  0
   19.0814   -6.2145    9.3408 O   0  0  0  0  0  0  0  0  0  0  0  0
   18.3982   -4.9678    9.3350 C   0  0  0  0  0  0  0  0  0  0  0  0
 32 33  1  0  0  0
 33 22  1  0  0  0
 22 23  2  0  0  0
 23 24  1  0  0  0
 24 25  2  0  0  0
 25 26  1  0  0  0
 26 27  2  0  0  0
 27 28  1  0  0  0
 28 21  1  0  0  0
 28 29  2  0  0  0
 21  1  1  0  0  0
  1  2  1  0  0  0
  2  3  1  0  0  0
  3  4  1  0  0  0
  4  5  2  0  0  0
  5  6  1  0  0  0
  5 10  1  0  0  0
  6  7  2  0  0  0
  7  8  1  0  0  0
  8  9  2  0  0  0
  9 11  1  0  0  0
  9  4  1  0  0  0
 11 12  2  0  0  0
 11 13  1  0  0  0
 13 15  1  0  0  0
 15 16  2  0  0  0
 16 17  1  0  0  0
 17 18  2  0  0  0
 18 19  1  0  0  0
 19 20  2  0  0  0
 20 15  1  0  0  0
 10  1  1  0  0  0
 29 30  1  0  0  0
 29 24  1  0  0  0
 30 31  2  0  0  0
 31 34  1  0  0  0
 31 22  1  0  0  0
 34 35  1  0  0  0
 13 14  1  0  0  0
M  END
>  <minimizedAffinity>
0.14547

>  <minimizedRMSD>
1.16744

$$$$
CHEMBL1611888


 28 31  0  0  0  0  0  0  0  0999 V2000
   16.9290  -10.3384   13.7597 C   0  0  0  0  0  0  0  0  0  0  0  0
   17.4993  -10.3342   12.5804 O   0  0  0  0  0  0  0  0  0  0  0  0
   16.5463   -9.9802   11.7520 C   0  0  0  0  0  0  0  0  0  0  0  0
   15.3863   -9.7648   12.4016 N   0  0  0  0  0  0  0  0  0  0  0  0
   15.6305   -9.9939   13.6825 N   0  0  0  0  0  0  0  0  0  0  0  0
   16.7155   -9.8348   10.3024 C   0  0  0  0  0  0  0  0  0  0  0  0
   15.9522  -10.4645    9.3781 N   0  0  0  0  0  0  0  0  0  0  0  0
   16.3670  -10.1152    8.1627 N   0  0  0  0  0  0  0  0  0  0  0  0
   17.3945   -9.2630    8.3209 C   0  0  0  0  0  0  0  0  0  0  0  0
   17.6449   -9.0607    9.6481 C   0  0  0  0  0  0  0  0  0  0  0  0
   18.6606   -8.2187   10.0956 C   0  0  0  0  0  0  0  0  0  0  0  0
   19.4358   -7.5709    9.1156 C   0  0  0  0  0  0  0  0  0  0  0  0
   19.1786   -7.7787    7.7410 C   0  0  0  0  0  0  0  0  0  0  0  0
   18.1425   -8.6376    7.3269 C   0  0  0  0  0  0  0  0  0  0  0  0
   15.2101  -11.0812    9.5736 H   0  0  0  0  0  0  0  0  0  0  0  0
   17.7678  -10.7497   15.2850 S   0  0  0  0  0  0  0  0  0  0  0  0
   18.1804   -9.0136   15.6439 C   0  0  0  0  0  0  0  0  0  0  0  0
   16.9860   -8.2844   16.1552 C   0  0  0  0  0  0  0  0  0  0  0  0
   16.4473   -7.4055   15.4319 O   0  0  0  0  0  0  0  0  0  0  0  0
   16.4792   -8.5851   17.4624 N   0  0  0  0  0  0  0  0  0  0  0  0
   16.9756   -9.2559   17.9848 H   0  0  0  0  0  0  0  0  0  0  0  0
   15.3239   -8.0097   18.0871 C   0  0  0  0  0  0  0  0  0  0  0  0
   15.3315   -7.8223   19.4737 C   0  0  0  0  0  0  0  0  0  0  0  0
   14.2220   -7.2681   20.1193 C   0  0  0  0  0  0  0  0  0  0  0  0
   13.0955   -6.8984   19.3797 C   0  0  0  0  0  0  0  0  0  0  0  0
   13.0785   -7.0832   17.9946 C   0  0  0  0  0  0  0  0  0  0  0  0
   14.1885   -7.6373   17.3506 C   0  0  0  0  0  0  0  0  0  0  0  0
   14.2407   -7.0727   21.5923 C   0  0  0  0  0  0  0  0  0  0  0  0
 16  1  1  0  0  0
  1  2  1  0  0  0
  2  3  1  0  0  0
  3  4  2  0  0  0
  4  5  1  0  0  0
  3  6  1  0  0  0
  6  7  1  0  0  0
  7  8  1  0  0  0
  8  9  2  0  0  0
  9 10  1  0  0  0
 10 11  1  0  0  0
 11 12  2  0  0  0
 12 13  1  0  0  0
 13 14  2  0  0  0
 16 17  1  0  0  0
 17 18  1  0  0  0
 18 19  2  0  0  0
 18 20  1  0  0  0
 20 22  1  0  0  0
 22 23  2  0  0  0
 23 24  1  0  0  0
 24 25  2  0  0  0
 25 26  1  0  0  0
 26 27  2  0  0  0
 24 28  1  0  0  0
  5  1  2  0  0  0
 10  6  2  0  0  0
 27 22  1  0  0  0
 14  9  1  0  0  0
  7 15  1  0  0  0
 20 21  1  0  0  0
M  END
>  <minimizedAffinity>
-10.15833

>  <minimizedRMSD>
1.17064

$$$$
CHEMBL1406482


 28 30  0  0  0  0  0  0  0  0999 V2000
   18.3088   -9.6419   12.2723 N   0  0  0  0  0  0  0  0  0  0  0  0
   18.9053   -8.8836   12.4683 H   0  0  0  0  0  0  0  0  0  0  0  0
   13.7633  -10.7223   10.1235 S   0  0  0  0  0  0  0  0  0  0  0  0
   15.4112  -10.0408   10.0413 C   0  0  0  0  0  0  0  0  0  0  0  0
   16.2189  -10.0893   11.1330 N   0  0  0  0  0  0  0  0  0  0  0  0
   17.4802   -9.5777   11.1058 C   0  0  0  0  0  0  0  0  0  0  0  0
   17.9578   -8.9900    9.9268 C   0  0  0  0  0  0  0  0  0  0  0  0
   17.1027   -8.9505    8.8057 C   0  0  0  0  0  0  0  0  0  0  0  0
   15.8535   -9.4748    8.8883 N   0  0  0  0  0  0  0  0  0  0  0  0
   17.5428   -8.3715    7.6120 C   0  0  0  0  0  0  0  0  0  0  0  0
   18.8301   -7.8316    7.5298 C   0  0  0  0  0  0  0  0  0  0  0  0
   19.6801   -7.8689    8.6399 C   0  0  0  0  0  0  0  0  0  0  0  0
   19.2465   -8.4465    9.8371 C   0  0  0  0  0  0  0  0  0  0  0  0
   13.5442  -11.2302   11.3660 H   0  0  0  0  0  0  0  0  0  0  0  0
   18.3075  -10.7802   13.1814 C   0  0  0  0  0  0  0  0  0  0  0  0
   17.1950  -10.6428   14.2097 C   0  0  0  0  0  0  0  0  0  0  0  0
   17.7390  -11.0124   15.5956 C   0  0  0  0  0  0  0  0  0  0  0  0
   16.9287  -10.3456   16.7021 C   0  0  0  0  0  0  0  0  0  0  0  0
   17.0269   -8.8157   16.6095 C   0  0  0  0  0  0  0  0  0  0  0  0
   17.1953   -8.2920   15.1735 C   0  0  0  0  0  0  0  0  0  0  0  0
   16.5689   -9.2384   14.1500 C   0  0  0  0  0  0  0  0  0  0  0  0
   15.8519   -8.1785   17.2744 C   0  0  0  0  0  0  0  0  0  0  0  0
   14.9243   -7.6764   16.5821 O   0  0  0  0  0  0  0  0  0  0  0  0
   15.7894   -8.1470   18.7018 N   0  0  0  0  0  0  0  0  0  0  0  0
   16.5172   -8.5662   19.2155 H   0  0  0  0  0  0  0  0  0  0  0  0
   14.6940   -7.5208   19.4272 C   0  0  0  0  0  0  0  0  0  0  0  0
   14.9822   -7.5220   20.8908 C   0  0  0  0  0  0  0  0  0  0  0  0
   14.6030   -6.4948   21.6435 C   0  0  0  0  0  0  0  0  0  0  0  0
  3  4  1  0  0  0
  4  5  2  0  0  0
  5  6  1  0  0  0
  6  1  1  0  0  0
  1 15  1  0  0  0
 15 16  1  0  0  0
 16 17  1  0  0  0
 17 18  1  0  0  0
 18 19  1  0  0  0
 19 20  1  0  0  0
 20 21  1  0  0  0
 19 22  1  0  0  0
 22 23  2  0  0  0
 22 24  1  0  0  0
 24 26  1  0  0  0
 26 27  1  0  0  0
 27 28  2  0  0  0
  6  7  2  0  0  0
  7  8  1  0  0  0
  8  9  2  0  0  0
  8 10  1  0  0  0
 10 11  2  0  0  0
 11 12  1  0  0  0
 12 13  2  0  0  0
  9  4  1  0  0  0
 21 16  1  0  0  0
 13  7  1  0  0  0
  3 14  1  0  0  0
  1  2  1  0  0  0
 24 25  1  0  0  0
M  END
>  <minimizedAffinity>
-7.85234

>  <minimizedRMSD>
1.17209

$$$$
CHEMBL5070414 PubChem-156898857


 36 40  0  0  0  0  0  0  0  0999 V2000
   16.6345   -8.7000   14.4518 C   0  0  0  0  0  0  0  0  0  0  0  0
   15.6676   -9.4217   15.3831 C   0  0  0  0  0  0  0  0  0  0  0  0
   14.7487  -10.2691   14.8685 C   0  0  0  0  0  0  0  0  0  0  0  0
   14.7170  -10.5240   13.4635 N   0  0  0  0  0  0  0  0  0  0  0  0
   15.6519   -9.9145   12.5773 C   0  0  0  0  0  0  0  0  0  0  0  0
   16.5377   -9.0887   13.0418 N   0  0  0  0  0  0  0  0  0  0  0  0
   13.7045  -10.9312   15.7056 C   0  0  0  0  0  0  0  0  0  0  0  0
   14.0350  -11.1335   13.0995 H   0  0  0  0  0  0  0  0  0  0  0  0
   22.1123   -8.7802   16.3395 C   0  0  0  0  0  0  0  0  0  0  0  0
   20.7117   -8.7755   15.8433 C   0  0  0  0  0  0  0  0  0  0  0  0
   20.2957   -9.7347   14.9177 C   0  0  0  0  0  0  0  0  0  0  0  0
   18.9795   -9.7389   14.4449 C   0  0  0  0  0  0  0  0  0  0  0  0
   18.0650   -8.7668   14.9107 C   0  0  0  0  0  0  0  0  0  0  0  0
   18.4960   -7.8071   15.8342 C   0  0  0  0  0  0  0  0  0  0  0  0
   19.8124   -7.8106   16.3002 C   0  0  0  0  0  0  0  0  0  0  0  0
   18.5301  -10.9717   13.2759 Cl  0  0  0  0  0  0  0  0  0  0  0  0
   15.7186   -9.0862   16.8296 C   0  0  0  0  0  0  0  0  0  0  0  0
   16.4747   -9.7499   17.5895 O   0  0  0  0  0  0  0  0  0  0  0  0
   14.8830   -8.0544   17.3702 N   0  0  0  0  0  0  0  0  0  0  0  0
   14.2988   -7.5687   16.7440 H   0  0  0  0  0  0  0  0  0  0  0  0
   14.8320   -7.6754   18.7487 C   0  0  0  0  0  0  0  0  0  0  0  0
   15.9139   -7.4297   19.5149 N   0  0  0  0  0  0  0  0  0  0  0  0
   15.5981   -7.0960   20.7657 N   0  0  0  0  0  0  0  0  0  0  0  0
   14.2671   -7.0701   21.0168 C   0  0  0  0  0  0  0  0  0  0  0  0
   13.4138   -7.4821   19.6200 S   0  0  0  0  0  0  0  0  0  0  0  0
   15.6135  -10.2444   11.1852 N   0  0  0  0  0  0  0  0  0  0  0  0
   14.9578  -10.9189   10.8948 H   0  0  0  0  0  0  0  0  0  0  0  0
   16.4570   -9.6670   10.1837 C   0  0  0  0  0  0  0  0  0  0  0  0
   16.2551   -9.8738    8.8563 N   0  0  0  0  0  0  0  0  0  0  0  0
   17.2585   -9.1632    8.3145 C   0  0  0  0  0  0  0  0  0  0  0  0
   17.5587   -9.0039    6.9641 C   0  0  0  0  0  0  0  0  0  0  0  0
   18.6715   -8.2043    6.6399 C   0  0  0  0  0  0  0  0  0  0  0  0
   19.4414   -7.5957    7.6578 C   0  0  0  0  0  0  0  0  0  0  0  0
   19.1090   -7.7784    9.0134 C   0  0  0  0  0  0  0  0  0  0  0  0
   18.0028   -8.5752    9.2936 C   0  0  0  0  0  0  0  0  0  0  0  0
   17.4971   -8.8938   10.4532 O   0  0  0  0  0  0  0  0  0  0  0  0
  9 10  1  0  0  0
 10 11  2  0  0  0
 11 12  1  0  0  0
 12 13  2  0  0  0
 13 14  1  0  0  0
 14 15  2  0  0  0
 13  1  1  0  0  0
  1  2  1  0  0  0
  2  3  2  0  0  0
  3  4  1  0  0  0
  4  5  1  0  0  0
  5  6  2  0  0  0
  5 26  1  0  0  0
 26 28  1  0  0  0
 28 29  2  0  0  0
 29 30  1  0  0  0
 30 31  2  0  0  0
 31 32  1  0  0  0
 32 33  2  0  0  0
 33 34  1  0  0  0
 34 35  2  0  0  0
 35 36  1  0  0  0
  3  7  1  0  0  0
  2 17  1  0  0  0
 17 18  2  0  0  0
 17 19  1  0  0  0
 19 21  1  0  0  0
 21 22  2  0  0  0
 22 23  1  0  0  0
 23 24  2  0  0  0
 24 25  1  0  0  0
 12 16  1  0  0  0
 15 10  1  0  0  0
  6  1  1  0  0  0
 36 28  1  0  0  0
 35 30  1  0  0  0
 25 21  1  0  0  0
  4  8  1  0  0  0
 26 27  1  0  0  0
 19 20  1  0  0  0
M  END
>  <minimizedAffinity>
1.63977

>  <minimizedRMSD>
1.17514

$$$$
CHEMBL1668276 PubChem-53323643


 29 32  0  0  0  0  0  0  0  0999 V2000
   15.6603   -6.1912   14.0092 C   0  0  0  0  0  0  0  0  0  0  0  0
   16.0484   -7.4025   14.7773 C   0  0  0  0  0  0  0  0  0  0  0  0
   15.7972   -7.4692   16.1098 N   0  0  0  0  0  0  0  0  0  0  0  0
   16.1384   -8.5653   16.8352 C   0  0  0  0  0  0  0  0  0  0  0  0
   15.8525   -8.5962   18.2314 N   0  0  0  0  0  0  0  0  0  0  0  0
   16.7624   -9.6501   16.2032 C   0  0  0  0  0  0  0  0  0  0  0  0
   17.1165  -10.8000   16.9119 C   0  0  0  0  0  0  0  0  0  0  0  0
   17.7308  -11.8632   16.2558 C   0  0  0  0  0  0  0  0  0  0  0  0
   17.9964  -11.7992   14.8862 C   0  0  0  0  0  0  0  0  0  0  0  0
   18.7026  -12.9620   14.2729 C   0  0  0  0  0  0  0  0  0  0  0  0
   17.6455  -10.6442   14.1428 C   0  0  0  0  0  0  0  0  0  0  0  0
   17.0251   -9.5640   14.8178 C   0  0  0  0  0  0  0  0  0  0  0  0
   16.6529   -8.4406   14.1444 N   0  0  0  0  0  0  0  0  0  0  0  0
   15.4139   -7.8268   18.6612 H   0  0  0  0  0  0  0  0  0  0  0  0
   16.0937   -9.3871   18.7658 H   0  0  0  0  0  0  0  0  0  0  0  0
   17.9198  -10.5587   12.6843 C   0  0  0  0  0  0  0  0  0  0  0  0
   18.8119  -11.2882   12.1728 O   0  0  0  0  0  0  0  0  0  0  0  0
   17.1828   -9.6349   11.8691 N   0  0  0  0  0  0  0  0  0  0  0  0
   16.5108   -9.0816   12.3288 H   0  0  0  0  0  0  0  0  0  0  0  0
   17.3216   -9.4324   10.4564 C   0  0  0  0  0  0  0  0  0  0  0  0
   16.4849  -10.1594    9.5795 C   0  0  0  0  0  0  0  0  0  0  0  0
   16.5822   -9.9997    8.2254 N   0  0  0  0  0  0  0  0  0  0  0  0
   17.4968   -9.1302    7.7298 C   0  0  0  0  0  0  0  0  0  0  0  0
   17.7081   -8.8684    6.4339 N   0  0  0  0  0  0  0  0  0  0  0  0
   18.7060   -7.9481    6.4383 C   0  0  0  0  0  0  0  0  0  0  0  0
   19.1219   -7.6315    7.7360 C   0  0  0  0  0  0  0  0  0  0  0  0
   18.3218   -8.4108    8.5354 C   0  0  0  0  0  0  0  0  0  0  0  0
   18.2664   -8.5334    9.9185 C   0  0  0  0  0  0  0  0  0  0  0  0
   17.2454   -9.2550    5.6556 H   0  0  0  0  0  0  0  0  0  0  0  0
  1  2  1  0  0  0
  2  3  2  0  0  0
  3  4  1  0  0  0
  4  5  1  0  0  0
  4  6  2  0  0  0
  6  7  1  0  0  0
  7  8  2  0  0  0
  8  9  1  0  0  0
  9 10  1  0  0  0
  9 11  2  0  0  0
 11 16  1  0  0  0
 11 12  1  0  0  0
 16 17  2  0  0  0
 16 18  1  0  0  0
 18 20  1  0  0  0
 20 21  2  0  0  0
 21 22  1  0  0  0
 22 23  2  0  0  0
 23 24  1  0  0  0
 24 25  1  0  0  0
 25 26  2  0  0  0
 26 27  1  0  0  0
 27 28  2  0  0  0
 27 23  1  0  0  0
 28 20  1  0  0  0
 12 13  2  0  0  0
 12  6  1  0  0  0
 13  2  1  0  0  0
  5 14  1  0  0  0
  5 15  1  0  0  0
 18 19  1  0  0  0
 24 29  1  0  0  0
M  END
>  <minimizedAffinity>
-5.91614

>  <minimizedRMSD>
1.17963

$$$$
CHEMBL2113970 CSC027231275 MCULE-7090045446 MolPort-009-147-618 PubChem-47015523 Z196139376


 25 27  0  0  0  0  0  0  0  0999 V2000
   18.9527  -11.9522   13.0682 C   0  0  0  0  0  0  0  0  0  0  0  0
   18.0305  -10.7429   13.0766 C   0  0  0  0  0  0  0  0  0  0  0  0
   18.1079  -10.0279   14.3871 C   0  0  0  0  0  0  0  0  0  0  0  0
   16.9237   -9.6570   15.0327 C   0  0  0  0  0  0  0  0  0  0  0  0
   16.9689   -8.9785   16.2556 C   0  0  0  0  0  0  0  0  0  0  0  0
   18.2045   -8.6741   16.8372 C   0  0  0  0  0  0  0  0  0  0  0  0
   19.3910   -9.0403   16.1957 C   0  0  0  0  0  0  0  0  0  0  0  0
   19.3442   -9.7148   14.9726 C   0  0  0  0  0  0  0  0  0  0  0  0
   15.4796   -8.5283   17.0656 S   0  0  0  0  0  0  0  0  0  0  0  0
   14.3065   -9.7780   16.8535 N   0  0  0  0  0  0  0  0  0  0  0  0
   14.9562   -7.2445   16.4858 O   0  0  0  0  0  0  0  0  0  0  0  0
   15.7403   -8.3289   18.5323 O   0  0  0  0  0  0  0  0  0  0  0  0
   14.1299   -9.9131   15.8581 H   0  0  0  0  0  0  0  0  0  0  0  0
   13.4390   -9.5127   17.3199 H   0  0  0  0  0  0  0  0  0  0  0  0
   18.3723   -9.8357   11.9891 N   0  0  0  0  0  0  0  0  0  0  0  0
   19.1705   -9.2673   12.0841 H   0  0  0  0  0  0  0  0  0  0  0  0
   17.6002   -9.7338   10.7900 C   0  0  0  0  0  0  0  0  0  0  0  0
   18.0564   -8.9867    9.7117 C   0  0  0  0  0  0  0  0  0  0  0  0
   17.3042   -8.8915    8.5644 C   0  0  0  0  0  0  0  0  0  0  0  0
   17.8806   -8.1107    7.5598 C   0  0  0  0  0  0  0  0  0  0  0  0
   19.1200   -7.5832    7.9399 C   0  0  0  0  0  0  0  0  0  0  0  0
   19.4644   -8.1037    9.5176 S   0  0  0  0  0  0  0  0  0  0  0  0
   16.1075   -9.5234    8.4692 N   0  0  0  0  0  0  0  0  0  0  0  0
   15.6520  -10.2583    9.5261 C   0  0  0  0  0  0  0  0  0  0  0  0
   16.3926  -10.3591   10.6715 N   0  0  0  0  0  0  0  0  0  0  0  0
  1  2  1  0  0  0
  2  3  1  0  0  0
  3  4  2  0  0  0
  4  5  1  0  0  0
  5  9  1  0  0  0
  9 10  1  0  0  0
  9 11  2  0  0  0
  9 12  2  0  0  0
  5  6  2  0  0  0
  6  7  1  0  0  0
  7  8  2  0  0  0
  2 15  1  0  0  0
 15 17  1  0  0  0
 17 18  1  0  0  0
 18 19  2  0  0  0
 19 20  1  0  0  0
 20 21  2  0  0  0
 21 22  1  0  0  0
 19 23  1  0  0  0
 23 24  2  0  0  0
 24 25  1  0  0  0
  8  3  1  0  0  0
 25 17  2  0  0  0
 22 18  1  0  0  0
 10 13  1  0  0  0
 10 14  1  0  0  0
 15 16  1  0  0  0
M  END
>  <minimizedAffinity>
-4.59926

>  <minimizedRMSD>
1.18068

$$$$
CHEMBL1553576 8603806 ChemDiv-C679-5592 MCULE-7315795231 MolPort-007-656-139 PubChem-16009580 ZINC000008603806 ZINC08603806


 32 35  0  0  0  0  0  0  0  0999 V2000
   16.7972  -10.0229   16.6054 C   0  0  0  0  0  0  0  0  0  0  0  0
   16.7341   -9.6256   15.2613 C   0  0  0  0  0  0  0  0  0  0  0  0
   17.4089  -10.3459   14.2708 C   0  0  0  0  0  0  0  0  0  0  0  0
   18.1565  -11.4777   14.6312 C   0  0  0  0  0  0  0  0  0  0  0  0
   18.2246  -11.8786   15.9674 C   0  0  0  0  0  0  0  0  0  0  0  0
   17.5473  -11.1520   16.9502 C   0  0  0  0  0  0  0  0  0  0  0  0
   15.3291   -8.1127   17.4917 C   0  0  0  0  0  0  0  0  0  0  0  0
   15.1753   -7.5841   16.3570 O   0  0  0  0  0  0  0  0  0  0  0  0
   16.1158   -9.3046   17.6427 N   0  0  0  0  0  0  0  0  0  0  0  0
   16.1958   -9.6667   18.5547 H   0  0  0  0  0  0  0  0  0  0  0  0
   13.5047   -6.3225   20.9350 C   0  0  0  0  0  0  0  0  0  0  0  0
   14.7148   -7.0116   21.0556 C   0  0  0  0  0  0  0  0  0  0  0  0
   15.3094   -7.5951   19.9331 C   0  0  0  0  0  0  0  0  0  0  0  0
   14.6984   -7.5001   18.6745 C   0  0  0  0  0  0  0  0  0  0  0  0
   13.4824   -6.8124   18.5548 C   0  0  0  0  0  0  0  0  0  0  0  0
   12.8881   -6.2279   19.6767 C   0  0  0  0  0  0  0  0  0  0  0  0
   12.9320   -5.7547   22.0790 O   0  0  0  0  0  0  0  0  0  0  0  0
   10.9488   -5.0062   23.2306 C   0  0  0  0  0  0  0  0  0  0  0  0
   11.8606   -4.8184   22.0335 C   0  0  0  0  0  0  0  0  0  0  0  0
   17.3243   -9.9141   12.9447 O   0  0  0  0  0  0  0  0  0  0  0  0
   18.3956   -9.2574   12.2804 C   0  0  0  0  0  0  0  0  0  0  0  0
   18.1438   -9.2474   10.8148 C   0  0  0  0  0  0  0  0  0  0  0  0
   17.0234   -9.9122   10.2911 C   0  0  0  0  0  0  0  0  0  0  0  0
   16.7968   -9.8655    8.9117 C   0  0  0  0  0  0  0  0  0  0  0  0
   15.8015  -10.4576    8.4157 O   0  0  0  0  0  0  0  0  0  0  0  0
   17.6661   -9.1742    8.1249 N   0  0  0  0  0  0  0  0  0  0  0  0
   17.5858   -9.0279    6.7756 C   0  0  0  0  0  0  0  0  0  0  0  0
   18.6242   -8.2595    6.2543 C   0  0  0  0  0  0  0  0  0  0  0  0
   18.8003   -7.9289    4.8169 C   0  0  0  0  0  0  0  0  0  0  0  0
   19.6554   -7.7548    7.4968 S   0  0  0  0  0  0  0  0  0  0  0  0
   18.7349   -8.5406    8.6582 C   0  0  0  0  0  0  0  0  0  0  0  0
   18.9863   -8.5648    9.9898 N   0  0  0  0  0  0  0  0  0  0  0  0
 18 19  1  0  0  0
 19 17  1  0  0  0
 17 11  1  0  0  0
 11 12  2  0  0  0
 12 13  1  0  0  0
 13 14  2  0  0  0
 14 15  1  0  0  0
 14  7  1  0  0  0
 15 16  2  0  0  0
 16 11  1  0  0  0
  7  8  2  0  0  0
  7  9  1  0  0  0
  9  1  1  0  0  0
  1  2  2  0  0  0
  2  3  1  0  0  0
  3 20  1  0  0  0
  3  4  2  0  0  0
 20 21  1  0  0  0
 21 22  1  0  0  0
 22 23  2  0  0  0
 23 24  1  0  0  0
 24 25  2  0  0  0
 24 26  1  0  0  0
 26 27  1  0  0  0
 27 28  2  0  0  0
 28 29  1  0  0  0
 28 30  1  0  0  0
 30 31  1  0  0  0
 31 32  2  0  0  0
 31 26  1  0  0  0
 32 22  1  0  0  0
  4  5  1  0  0  0
  5  6  2  0  0  0
  6  1  1  0  0  0
  9 10  1  0  0  0
M  END
>  <minimizedAffinity>
-8.26569

>  <minimizedRMSD>
1.18089

$$$$
CHEMBL1594099 8607922 ChemDiv-G357-3561 MCULE-6566606979 MolPort-007-848-037 PubChem-16027699 ZINC000008607922


 35 38  0  0  0  0  0  0  0  0999 V2000
   17.1806  -10.0220   14.9012 C   0  0  0  0  0  0  0  0  0  0  0  0
   16.5495   -8.7784   14.7698 C   0  0  0  0  0  0  0  0  0  0  0  0
   16.0709   -8.1076   15.8984 C   0  0  0  0  0  0  0  0  0  0  0  0
   16.2170   -8.6720   17.1743 C   0  0  0  0  0  0  0  0  0  0  0  0
   16.8475   -9.9135   17.3043 C   0  0  0  0  0  0  0  0  0  0  0  0
   17.3266  -10.5857   16.1763 C   0  0  0  0  0  0  0  0  0  0  0  0
   15.7395   -8.0135   18.3553 N   0  0  0  0  0  0  0  0  0  0  0  0
   14.4292   -7.4706   18.5638 C   0  0  0  0  0  0  0  0  0  0  0  0
   13.5384   -7.5517   17.6771 O   0  0  0  0  0  0  0  0  0  0  0  0
   16.3775   -7.9251   19.0998 H   0  0  0  0  0  0  0  0  0  0  0  0
   14.1059   -6.8283   19.8656 C   0  0  0  0  0  0  0  0  0  0  0  0
   12.7485   -6.1513   19.7827 C   0  0  0  0  0  0  0  0  0  0  0  0
   12.3436   -5.6234   21.1164 C   0  0  0  0  0  0  0  0  0  0  0  0
   13.1367   -5.8602   22.2470 C   0  0  0  0  0  0  0  0  0  0  0  0
   12.7388   -5.3742   23.4962 C   0  0  0  0  0  0  0  0  0  0  0  0
   11.5457   -4.6555   23.6189 C   0  0  0  0  0  0  0  0  0  0  0  0
   10.7495   -4.4244   22.4931 C   0  0  0  0  0  0  0  0  0  0  0  0
   11.1470   -4.9100   21.2435 C   0  0  0  0  0  0  0  0  0  0  0  0
   17.6830  -10.7245   13.7094 C   0  0  0  0  0  0  0  0  0  0  0  0
   18.0168  -11.9394   13.7854 O   0  0  0  0  0  0  0  0  0  0  0  0
   17.7882  -10.0402   12.4965 O   0  0  0  0  0  0  0  0  0  0  0  0
   16.6578   -9.7904   11.6741 C   0  0  0  0  0  0  0  0  0  0  0  0
   17.8934   -8.9268    7.7364 N   0  0  0  0  0  0  0  0  0  0  0  0
   18.3834   -8.5466    6.5589 N   0  0  0  0  0  0  0  0  0  0  0  0
   19.3615   -7.6180    6.6914 C   0  0  0  0  0  0  0  0  0  0  0  0
   19.6652   -7.2375    8.3175 S   0  0  0  0  0  0  0  0  0  0  0  0
   18.4716   -8.3191    8.7938 C   0  0  0  0  0  0  0  0  0  0  0  0
   18.0926   -8.5898   10.0666 N   0  0  0  0  0  0  0  0  0  0  0  0
   17.1061   -9.5046   10.2858 C   0  0  0  0  0  0  0  0  0  0  0  0
   16.4806  -10.1468    9.2044 C   0  0  0  0  0  0  0  0  0  0  0  0
   16.9009   -9.8397    7.9055 C   0  0  0  0  0  0  0  0  0  0  0  0
   16.3633  -10.4018    6.9147 O   0  0  0  0  0  0  0  0  0  0  0  0
   20.1054   -7.0399    5.5358 C   0  0  0  0  0  0  0  0  0  0  0  0
   19.8997   -7.8782    4.2846 C   0  0  0  0  0  0  0  0  0  0  0  0
   21.1118   -7.7876    3.3766 C   0  0  0  0  0  0  0  0  0  0  0  0
 23 24  1  0  0  0
 24 25  2  0  0  0
 25 26  1  0  0  0
 26 27  1  0  0  0
 27 28  2  0  0  0
 28 29  1  0  0  0
 29 22  1  0  0  0
 22 21  1  0  0  0
 21 19  1  0  0  0
 19 20  2  0  0  0
 19  1  1  0  0  0
  1  2  2  0  0  0
  2  3  1  0  0  0
  3  4  2  0  0  0
  4  5  1  0  0  0
  5  6  2  0  0  0
  4  7  1  0  0  0
  7  8  1  0  0  0
  8 11  1  0  0  0
 11 12  1  0  0  0
 12 13  1  0  0  0
 13 14  2  0  0  0
 14 15  1  0  0  0
 15 16  2  0  0  0
 16 17  1  0  0  0
 17 18  2  0  0  0
  8  9  2  0  0  0
 29 30  2  0  0  0
 30 31  1  0  0  0
 31 32  2  0  0  0
 25 33  1  0  0  0
 33 34  1  0  0  0
 34 35  1  0  0  0
 27 23  1  0  0  0
  6  1  1  0  0  0
 18 13  1  0  0  0
 31 23  1  0  0  0
  7 10  1  0  0  0
M  END
>  <minimizedAffinity>
-8.52227

>  <minimizedRMSD>
1.18373

$$$$
CHEMBL3939312 PubChem-56948862


 39 44  0  0  0  0  0  0  0  0999 V2000
   17.2298  -10.7393   15.3912 C   0  0  0  0  0  0  0  0  0  0  0  0
   17.7079  -10.6838   16.7103 C   0  0  0  0  0  0  0  0  0  0  0  0
   17.2171   -9.7365   17.6107 C   0  0  0  0  0  0  0  0  0  0  0  0
   16.2336   -8.8253   17.2112 C   0  0  0  0  0  0  0  0  0  0  0  0
   15.7413   -8.8823   15.9018 C   0  0  0  0  0  0  0  0  0  0  0  0
   16.2285   -9.8281   14.9950 C   0  0  0  0  0  0  0  0  0  0  0  0
   15.6846   -9.8683   13.7568 F   0  0  0  0  0  0  0  0  0  0  0  0
   15.7178   -7.8232   18.1596 C   0  0  0  0  0  0  0  0  0  0  0  0
   14.6429   -7.2115   17.9103 O   0  0  0  0  0  0  0  0  0  0  0  0
   16.4353   -7.5436   19.3657 N   0  0  0  0  0  0  0  0  0  0  0  0
   17.2615   -8.0455   19.5520 H   0  0  0  0  0  0  0  0  0  0  0  0
   15.9895   -6.5430   20.3305 C   0  0  0  0  0  0  0  0  0  0  0  0
   17.1634   -5.9646   21.1641 C   0  0  0  0  0  0  0  0  0  0  0  0
   18.4078   -6.4296   20.7305 O   0  0  0  0  0  0  0  0  0  0  0  0
   16.9448   -6.3649   22.6297 C   0  0  0  0  0  0  0  0  0  0  0  0
   15.6555   -7.0856   22.6118 C   0  0  0  0  0  0  0  0  0  0  0  0
   14.9958   -7.6262   23.7162 C   0  0  0  0  0  0  0  0  0  0  0  0
   13.7681   -8.2747   23.5133 C   0  0  0  0  0  0  0  0  0  0  0  0
   13.2233   -8.3704   22.2207 C   0  0  0  0  0  0  0  0  0  0  0  0
   13.9048   -7.8202   21.1246 C   0  0  0  0  0  0  0  0  0  0  0  0
   15.1280   -7.1835   21.3489 C   0  0  0  0  0  0  0  0  0  0  0  0
   18.4418   -7.3948   20.8211 H   0  0  0  0  0  0  0  0  0  0  0  0
   17.8222  -13.1167   14.9081 C   0  0  0  0  0  0  0  0  0  0  0  0
   17.7719  -11.7252   14.4852 N   0  0  0  0  0  0  0  0  0  0  0  0
   18.5451  -11.3902   13.2863 C   0  0  0  0  0  0  0  0  0  0  0  0
   19.3439  -10.1000   13.4346 C   0  0  0  0  0  0  0  0  0  0  0  0
   19.1978   -9.3669   12.1141 C   0  0  0  0  0  0  0  0  0  0  0  0
   18.1525  -10.0582   11.3800 N   0  0  0  0  0  0  0  0  0  0  0  0
   17.6684  -11.2440   12.0595 C   0  0  0  0  0  0  0  0  0  0  0  0
   17.6247   -9.6345   10.1106 C   0  0  0  0  0  0  0  0  0  0  0  0
   16.4213  -10.1186    9.6767 N   0  0  0  0  0  0  0  0  0  0  0  0
   15.8815   -9.7392    8.4772 C   0  0  0  0  0  0  0  0  0  0  0  0
   16.5392   -8.8557    7.6714 N   0  0  0  0  0  0  0  0  0  0  0  0
   17.7321   -8.3676    8.0876 C   0  0  0  0  0  0  0  0  0  0  0  0
   18.4947   -7.4960    7.4150 N   0  0  0  0  0  0  0  0  0  0  0  0
   19.5721   -7.3056    8.2163 C   0  0  0  0  0  0  0  0  0  0  0  0
   19.4854   -8.0569    9.3909 C   0  0  0  0  0  0  0  0  0  0  0  0
   18.2885   -8.7286    9.2743 C   0  0  0  0  0  0  0  0  0  0  0  0
   18.3142   -7.0866    6.5381 H   0  0  0  0  0  0  0  0  0  0  0  0
 23 24  1  0  0  0
 25 24  1  0  0  0
 25 26  1  0  0  0
 26 27  1  0  0  0
 27 28  1  0  0  0
 28 29  1  0  0  0
 28 30  1  0  0  0
 30 31  2  0  0  0
 31 32  1  0  0  0
 32 33  2  0  0  0
 33 34  1  0  0  0
 34 35  1  0  0  0
 35 36  1  0  0  0
 36 37  2  0  0  0
 37 38  1  0  0  0
 24  1  1  0  0  0
  1  2  2  0  0  0
  2  3  1  0  0  0
  3  4  2  0  0  0
  4  5  1  0  0  0
  5  6  2  0  0  0
  6  7  1  0  0  0
  4  8  1  0  0  0
  8  9  2  0  0  0
  8 10  1  0  0  0
 10 12  1  0  0  0
 12 13  1  0  0  0
 13 14  1  0  0  0
 13 15  1  0  0  0
 15 16  1  0  0  0
 16 17  2  0  0  0
 17 18  1  0  0  0
 18 19  2  0  0  0
 19 20  1  0  0  0
 20 21  2  0  0  0
 29 25  1  0  0  0
 38 30  1  0  0  0
  6  1  1  0  0  0
 21 12  1  0  0  0
 38 34  2  0  0  0
 21 16  1  0  0  0
 35 39  1  0  0  0
 10 11  1  0  0  0
 14 22  1  0  0  0
M  END
>  <minimizedAffinity>
-3.18611

>  <minimizedRMSD>
1.18382

$$$$
CHEMBL4096739 PubChem-137654097


 25 26  0  0  0  0  0  0  0  0999 V2000
   17.5725   -9.6905   12.4689 N   0  0  0  0  0  0  0  0  0  0  0  0
   17.4428   -8.8730   13.0019 H   0  0  0  0  0  0  0  0  0  0  0  0
   17.1413   -9.7019   11.1046 C   0  0  0  0  0  0  0  0  0  0  0  0
   15.9874  -10.3350   10.7576 N   0  0  0  0  0  0  0  0  0  0  0  0
   15.5549  -10.3608    9.4703 C   0  0  0  0  0  0  0  0  0  0  0  0
   16.2742   -9.7480    8.4949 N   0  0  0  0  0  0  0  0  0  0  0  0
   17.4350   -9.0995    8.7817 C   0  0  0  0  0  0  0  0  0  0  0  0
   17.9003   -9.0623   10.1145 C   0  0  0  0  0  0  0  0  0  0  0  0
   19.0950   -8.3961   10.4177 C   0  0  0  0  0  0  0  0  0  0  0  0
   19.8247   -7.7700    9.4045 C   0  0  0  0  0  0  0  0  0  0  0  0
   19.3659   -7.8058    8.0851 C   0  0  0  0  0  0  0  0  0  0  0  0
   18.1753   -8.4668    7.7672 C   0  0  0  0  0  0  0  0  0  0  0  0
   17.7173   -8.4838    6.3485 C   0  0  0  0  0  0  0  0  0  0  0  0
   18.1952  -10.8448   13.0939 C   0  0  0  0  0  0  0  0  0  0  0  0
   18.6658  -10.4721   14.4866 C   0  0  0  0  0  0  0  0  0  0  0  0
   18.0907  -11.4330   15.5164 C   0  0  0  0  0  0  0  0  0  0  0  0
   17.1326  -10.7242   16.4620 C   0  0  0  0  0  0  0  0  0  0  0  0
   17.2167   -9.2216   16.2731 C   0  0  0  0  0  0  0  0  0  0  0  0
   15.8263   -8.6626   16.0479 C   0  0  0  0  0  0  0  0  0  0  0  0
   15.3425   -7.9977   17.2877 C   0  0  0  0  0  0  0  0  0  0  0  0
   14.2505   -7.3703   17.2765 O   0  0  0  0  0  0  0  0  0  0  0  0
   16.1324   -8.0486   18.4736 N   0  0  0  0  0  0  0  0  0  0  0  0
   15.7197   -7.4388   19.6092 O   0  0  0  0  0  0  0  0  0  0  0  0
   16.9891   -8.5336   18.4663 H   0  0  0  0  0  0  0  0  0  0  0  0
   14.8643   -7.0089   19.4528 H   0  0  0  0  0  0  0  0  0  0  0  0
 20 21  2  0  0  0
 20 19  1  0  0  0
 19 18  1  0  0  0
 18 17  1  0  0  0
 17 16  1  0  0  0
 16 15  1  0  0  0
 15 14  1  0  0  0
 14  1  1  0  0  0
  1  3  1  0  0  0
  3  4  2  0  0  0
  4  5  1  0  0  0
  5  6  2  0  0  0
  6  7  1  0  0  0
  7  8  2  0  0  0
  8  9  1  0  0  0
  9 10  2  0  0  0
 10 11  1  0  0  0
 11 12  2  0  0  0
 12 13  1  0  0  0
 20 22  1  0  0  0
 22 23  1  0  0  0
  8  3  1  0  0  0
 12  7  1  0  0  0
  1  2  1  0  0  0
 22 24  1  0  0  0
 23 25  1  0  0  0
M  END
>  <minimizedAffinity>
-8.29936

>  <minimizedRMSD>
1.18613

$$$$
CHEMBL3945908


 30 34  0  0  0  0  0  0  0  0999 V2000
   17.9280  -13.1294   15.0139 C   0  0  0  0  0  0  0  0  0  0  0  0
   17.9751  -11.6994   14.7487 N   0  0  0  0  0  0  0  0  0  0  0  0
   17.2788  -10.7569   15.6030 C   0  0  0  0  0  0  0  0  0  0  0  0
   16.3815   -9.8316   15.0430 C   0  0  0  0  0  0  0  0  0  0  0  0
   15.6967   -8.9155   15.8426 C   0  0  0  0  0  0  0  0  0  0  0  0
   15.8961   -8.9018   17.2258 C   0  0  0  0  0  0  0  0  0  0  0  0
   16.7930   -9.8101   17.7976 C   0  0  0  0  0  0  0  0  0  0  0  0
   17.4815  -10.7312   17.0023 C   0  0  0  0  0  0  0  0  0  0  0  0
   18.3636  -11.5648   17.6065 F   0  0  0  0  0  0  0  0  0  0  0  0
   15.1753   -7.9381   18.0707 C   0  0  0  0  0  0  0  0  0  0  0  0
   14.0842   -7.2521   17.6828 N   0  0  0  0  0  0  0  0  0  0  0  0
   13.7635   -6.5118   18.7312 N   0  0  0  0  0  0  0  0  0  0  0  0
   14.6195   -6.7347   19.7158 N   0  0  0  0  0  0  0  0  0  0  0  0
   15.5193   -7.6258   19.3338 N   0  0  0  0  0  0  0  0  0  0  0  0
   16.2734   -7.9817   19.8572 H   0  0  0  0  0  0  0  0  0  0  0  0
   18.7461  -11.2976   13.5697 C   0  0  0  0  0  0  0  0  0  0  0  0
   19.3353   -9.9010   13.7270 C   0  0  0  0  0  0  0  0  0  0  0  0
   19.0804   -9.1838   12.4142 C   0  0  0  0  0  0  0  0  0  0  0  0
   18.1825  -10.0344   11.6538 N   0  0  0  0  0  0  0  0  0  0  0  0
   17.9000  -11.2956   12.3096 C   0  0  0  0  0  0  0  0  0  0  0  0
   17.6117   -9.6905   10.3789 C   0  0  0  0  0  0  0  0  0  0  0  0
   16.4033  -10.2140   10.0094 N   0  0  0  0  0  0  0  0  0  0  0  0
   15.8234   -9.9109    8.8069 C   0  0  0  0  0  0  0  0  0  0  0  0
   16.4439   -9.0661    7.9334 N   0  0  0  0  0  0  0  0  0  0  0  0
   17.6409   -8.5391    8.2853 C   0  0  0  0  0  0  0  0  0  0  0  0
   18.3704   -7.6972    7.5421 N   0  0  0  0  0  0  0  0  0  0  0  0
   19.4677   -7.4473    8.2986 C   0  0  0  0  0  0  0  0  0  0  0  0
   19.4268   -8.1318    9.5157 C   0  0  0  0  0  0  0  0  0  0  0  0
   18.2371   -8.8248    9.4732 C   0  0  0  0  0  0  0  0  0  0  0  0
   18.1582   -7.3406    6.6493 H   0  0  0  0  0  0  0  0  0  0  0  0
  1  2  1  0  0  0
 16  2  1  0  0  0
 16 17  1  0  0  0
 17 18  1  0  0  0
 18 19  1  0  0  0
 19 20  1  0  0  0
 19 21  1  0  0  0
 21 22  2  0  0  0
 22 23  1  0  0  0
 23 24  2  0  0  0
 24 25  1  0  0  0
 25 26  1  0  0  0
 26 27  1  0  0  0
 27 28  2  0  0  0
 28 29  1  0  0  0
  2  3  1  0  0  0
  3  4  2  0  0  0
  4  5  1  0  0  0
  5  6  2  0  0  0
  6  7  1  0  0  0
  7  8  2  0  0  0
  8  9  1  0  0  0
  6 10  1  0  0  0
 10 11  2  0  0  0
 11 12  1  0  0  0
 12 13  2  0  0  0
 13 14  1  0  0  0
 20 16  1  0  0  0
 29 21  1  0  0  0
  8  3  1  0  0  0
 14 10  1  0  0  0
 29 25  2  0  0  0
 26 30  1  0  0  0
 14 15  1  0  0  0
M  END
>  <minimizedAffinity>
-5.90704

>  <minimizedRMSD>
1.18679

$$$$
CHEMBL495300 PubChem-24960306


 35 39  0  0  0  0  0  0  0  0999 V2000
   17.8147   -9.2707   12.4213 N   0  0  0  0  0  0  0  0  0  0  0  0
   17.6344   -7.9924   13.1157 C   0  0  0  0  0  0  0  0  0  0  0  0
   16.7866   -8.1196   14.3866 C   0  0  0  0  0  0  0  0  0  0  0  0
   17.1230   -9.3331   15.2150 C   0  0  0  0  0  0  0  0  0  0  0  0
   17.9213  -10.3553   14.6540 C   0  0  0  0  0  0  0  0  0  0  0  0
   18.2179  -11.5020   15.3911 C   0  0  0  0  0  0  0  0  0  0  0  0
   17.7107  -11.6619   16.6770 C   0  0  0  0  0  0  0  0  0  0  0  0
   16.9074  -10.6700   17.2356 C   0  0  0  0  0  0  0  0  0  0  0  0
   16.5973   -9.4992   16.5264 C   0  0  0  0  0  0  0  0  0  0  0  0
   18.5266  -10.2209   13.2829 C   0  0  0  0  0  0  0  0  0  0  0  0
   15.7344   -8.4949   17.2044 C   0  0  0  0  0  0  0  0  0  0  0  0
   15.0395   -7.6850   16.5343 O   0  0  0  0  0  0  0  0  0  0  0  0
   15.7032   -8.4501   18.6406 N   0  0  0  0  0  0  0  0  0  0  0  0
   16.2625   -9.1088   19.1124 H   0  0  0  0  0  0  0  0  0  0  0  0
   14.9457   -7.5499   19.4612 C   0  0  0  0  0  0  0  0  0  0  0  0
   13.7387   -6.9879   19.0214 C   0  0  0  0  0  0  0  0  0  0  0  0
   13.0406   -6.1140   19.8557 C   0  0  0  0  0  0  0  0  0  0  0  0
   13.5478   -5.8066   21.1183 C   0  0  0  0  0  0  0  0  0  0  0  0
   14.7525   -6.3815   21.5259 C   0  0  0  0  0  0  0  0  0  0  0  0
   15.4179   -7.2310   20.6976 N   0  0  0  0  0  0  0  0  0  0  0  0
   16.5240   -9.8224   12.0131 C   0  0  0  0  0  0  0  0  0  0  0  0
   18.4756   -7.8664    7.6168 C   0  0  0  0  0  0  0  0  0  0  0  0
   17.8638   -9.0816    7.2902 C   0  0  0  0  0  0  0  0  0  0  0  0
   17.2353   -9.8562    8.2651 C   0  0  0  0  0  0  0  0  0  0  0  0
   16.6443  -11.0313    7.9212 N   0  0  0  0  0  0  0  0  0  0  0  0
   16.0215  -11.8124    8.8436 C   0  0  0  0  0  0  0  0  0  0  0  0
   15.9743  -11.4179   10.1821 C   0  0  0  0  0  0  0  0  0  0  0  0
   16.5657  -10.2130   10.5698 C   0  0  0  0  0  0  0  0  0  0  0  0
   17.2100   -9.4175    9.6049 C   0  0  0  0  0  0  0  0  0  0  0  0
   17.8225   -8.2047    9.9393 C   0  0  0  0  0  0  0  0  0  0  0  0
   18.4586   -7.4199    8.9627 C   0  0  0  0  0  0  0  0  0  0  0  0
   20.1552   -7.6384    5.7750 C   0  0  0  0  0  0  0  0  0  0  0  0
   19.0800   -7.1568    6.5679 O   0  0  0  0  0  0  0  0  0  0  0  0
   19.0705   -6.2138    9.3230 O   0  0  0  0  0  0  0  0  0  0  0  0
   18.3896   -4.9660    9.3129 C   0  0  0  0  0  0  0  0  0  0  0  0
 32 33  1  0  0  0
 33 22  1  0  0  0
 22 23  2  0  0  0
 23 24  1  0  0  0
 24 25  2  0  0  0
 25 26  1  0  0  0
 26 27  2  0  0  0
 27 28  1  0  0  0
 28 21  1  0  0  0
 28 29  2  0  0  0
 21  1  1  0  0  0
  1  2  1  0  0  0
  2  3  1  0  0  0
  3  4  1  0  0  0
  4  5  2  0  0  0
  5  6  1  0  0  0
  5 10  1  0  0  0
  6  7  2  0  0  0
  7  8  1  0  0  0
  8  9  2  0  0  0
  9 11  1  0  0  0
  9  4  1  0  0  0
 11 12  2  0  0  0
 11 13  1  0  0  0
 13 15  1  0  0  0
 15 16  2  0  0  0
 16 17  1  0  0  0
 17 18  2  0  0  0
 18 19  1  0  0  0
 19 20  2  0  0  0
 20 15  1  0  0  0
 10  1  1  0  0  0
 29 30  1  0  0  0
 29 24  1  0  0  0
 30 31  2  0  0  0
 31 34  1  0  0  0
 31 22  1  0  0  0
 34 35  1  0  0  0
 13 14  1  0  0  0
M  END
>  <minimizedAffinity>
0.29995

>  <minimizedRMSD>
1.19124

$$$$
CHEMBL2235550 PubChem-25108449


 30 33  0  0  0  0  0  0  0  0999 V2000
   17.2900  -11.2938   15.9813 S   0  0  0  0  0  0  0  0  0  0  0  0
   17.4116  -10.7737   14.2746 C   0  0  0  0  0  0  0  0  0  0  0  0
   17.9999  -11.4986   13.3053 N   0  0  0  0  0  0  0  0  0  0  0  0
   17.8886  -10.7869   12.1944 N   0  0  0  0  0  0  0  0  0  0  0  0
   17.2402   -9.6580   12.5357 C   0  0  0  0  0  0  0  0  0  0  0  0
   16.9387   -9.6430   13.8110 O   0  0  0  0  0  0  0  0  0  0  0  0
   16.8782   -8.5805   11.5734 C   0  0  0  0  0  0  0  0  0  0  0  0
   16.8833   -9.1059   10.2170 N   0  0  0  0  0  0  0  0  0  0  0  0
   16.1616  -10.1417    9.8016 N   0  0  0  0  0  0  0  0  0  0  0  0
   16.4247  -10.4228    8.5251 N   0  0  0  0  0  0  0  0  0  0  0  0
   17.3536   -9.5283    8.1389 C   0  0  0  0  0  0  0  0  0  0  0  0
   17.9775   -9.3975    6.9024 C   0  0  0  0  0  0  0  0  0  0  0  0
   18.9359   -8.3720    6.7754 C   0  0  0  0  0  0  0  0  0  0  0  0
   19.2384   -7.5255    7.8694 C   0  0  0  0  0  0  0  0  0  0  0  0
   18.5864   -7.6902    9.1073 C   0  0  0  0  0  0  0  0  0  0  0  0
   17.6440   -8.7125    9.1878 C   0  0  0  0  0  0  0  0  0  0  0  0
   16.0477  -10.0285   16.3734 C   0  0  0  0  0  0  0  0  0  0  0  0
   16.7208   -8.8205   16.9967 C   0  0  0  0  0  0  0  0  0  0  0  0
   15.6930   -7.9967   19.1468 N   0  0  0  0  0  0  0  0  0  0  0  0
   15.7115   -7.9998   17.7160 C   0  0  0  0  0  0  0  0  0  0  0  0
   14.8900   -7.3067   17.0585 O   0  0  0  0  0  0  0  0  0  0  0  0
   16.4567   -8.4065   19.6138 H   0  0  0  0  0  0  0  0  0  0  0  0
   16.3899   -6.6508   21.5933 C   0  0  0  0  0  0  0  0  0  0  0  0
   14.9714   -6.7919   21.1576 C   0  0  0  0  0  0  0  0  0  0  0  0
   13.9663   -6.2463   21.9606 C   0  0  0  0  0  0  0  0  0  0  0  0
   12.6272   -6.3594   21.5863 C   0  0  0  0  0  0  0  0  0  0  0  0
   12.2866   -7.0289   20.4107 C   0  0  0  0  0  0  0  0  0  0  0  0
   13.2803   -7.5752   19.5933 C   0  0  0  0  0  0  0  0  0  0  0  0
   12.8505   -8.3545   18.3970 C   0  0  0  0  0  0  0  0  0  0  0  0
   14.6418   -7.4396   19.9516 C   0  0  0  0  0  0  0  0  0  0  0  0
 23 24  1  0  0  0
 24 25  2  0  0  0
 25 26  1  0  0  0
 26 27  2  0  0  0
 27 28  1  0  0  0
 28 29  1  0  0  0
 28 30  2  0  0  0
 30 19  1  0  0  0
 30 24  1  0  0  0
 19 20  1  0  0  0
 20 21  2  0  0  0
 20 18  1  0  0  0
 18 17  1  0  0  0
 17  1  1  0  0  0
  1  2  1  0  0  0
  2  3  2  0  0  0
  3  4  1  0  0  0
  4  5  2  0  0  0
  5  7  1  0  0  0
  5  6  1  0  0  0
  7  8  1  0  0  0
  8  9  1  0  0  0
  9 10  2  0  0  0
 10 11  1  0  0  0
 11 12  2  0  0  0
 12 13  1  0  0  0
 13 14  2  0  0  0
 14 15  1  0  0  0
 15 16  2  0  0  0
 16  8  1  0  0  0
 16 11  1  0  0  0
  6  2  1  0  0  0
 19 22  1  0  0  0
M  END
>  <minimizedAffinity>
-7.62179

>  <minimizedRMSD>
1.19577

$$$$
CHEMBL2063451 PubChem-70696941


 34 37  0  0  0  0  0  0  0  0999 V2000
   18.4962  -10.5725   13.6956 C   0  0  0  0  0  0  0  0  0  0  0  0
   18.3948  -11.9561   13.8799 C   0  0  0  0  0  0  0  0  0  0  0  0
   18.1413  -12.4844   15.1488 C   0  0  0  0  0  0  0  0  0  0  0  0
   17.9887  -11.6299   16.2437 C   0  0  0  0  0  0  0  0  0  0  0  0
   18.0934  -10.2461   16.0711 C   0  0  0  0  0  0  0  0  0  0  0  0
   18.3415   -9.7201   14.7991 C   0  0  0  0  0  0  0  0  0  0  0  0
   17.8203   -9.4225   11.5032 C   0  0  0  0  0  0  0  0  0  0  0  0
   16.6378   -9.2019   11.8819 O   0  0  0  0  0  0  0  0  0  0  0  0
   18.7548  -10.0695   12.3778 N   0  0  0  0  0  0  0  0  0  0  0  0
   19.6719  -10.1800   12.0372 H   0  0  0  0  0  0  0  0  0  0  0  0
   15.5806  -10.6309    9.4716 N   0  0  0  0  0  0  0  0  0  0  0  0
   16.5439  -10.0515    8.5995 C   0  0  0  0  0  0  0  0  0  0  0  0
   16.4133  -10.0451    7.2549 N   0  0  0  0  0  0  0  0  0  0  0  0
   17.3949   -9.3282    6.7791 O   0  0  0  0  0  0  0  0  0  0  0  0
   18.1378   -8.8669    7.7552 C   0  0  0  0  0  0  0  0  0  0  0  0
   19.2419   -8.0270    7.6579 C   0  0  0  0  0  0  0  0  0  0  0  0
   19.8578   -7.6257    8.8545 C   0  0  0  0  0  0  0  0  0  0  0  0
   19.3680   -8.0730   10.0994 C   0  0  0  0  0  0  0  0  0  0  0  0
   18.2544   -8.9359   10.1794 C   0  0  0  0  0  0  0  0  0  0  0  0
   17.6536   -9.3082    8.9615 C   0  0  0  0  0  0  0  0  0  0  0  0
   14.8260  -11.1432    9.1009 H   0  0  0  0  0  0  0  0  0  0  0  0
   15.6685  -10.5195   10.4458 H   0  0  0  0  0  0  0  0  0  0  0  0
   17.9093   -9.3322   17.2342 C   0  0  0  0  0  0  0  0  0  0  0  0
   16.4781   -8.9382   17.3653 C   0  0  0  0  0  0  0  0  0  0  0  0
   15.6535   -9.3081   16.4882 O   0  0  0  0  0  0  0  0  0  0  0  0
   16.0620   -8.1700   18.5016 N   0  0  0  0  0  0  0  0  0  0  0  0
   16.7669   -7.9006   19.1340 H   0  0  0  0  0  0  0  0  0  0  0  0
   14.7258   -7.7530   18.8130 C   0  0  0  0  0  0  0  0  0  0  0  0
   14.3252   -7.7233   20.1536 C   0  0  0  0  0  0  0  0  0  0  0  0
   13.0288   -7.3272   20.4962 C   0  0  0  0  0  0  0  0  0  0  0  0
   12.1237   -6.9585   19.4972 C   0  0  0  0  0  0  0  0  0  0  0  0
   12.5154   -6.9852   18.1563 C   0  0  0  0  0  0  0  0  0  0  0  0
   11.6373   -6.6330   17.1871 F   0  0  0  0  0  0  0  0  0  0  0  0
   13.8120   -7.3804   17.8151 C   0  0  0  0  0  0  0  0  0  0  0  0
 11 12  1  0  0  0
 12 13  2  0  0  0
 13 14  1  0  0  0
 14 15  1  0  0  0
 15 16  2  0  0  0
 16 17  1  0  0  0
 17 18  2  0  0  0
 18 19  1  0  0  0
 19  7  1  0  0  0
 19 20  2  0  0  0
  7  8  2  0  0  0
  7  9  1  0  0  0
  9  1  1  0  0  0
  1  2  2  0  0  0
  2  3  1  0  0  0
  3  4  2  0  0  0
  4  5  1  0  0  0
  5 23  1  0  0  0
  5  6  2  0  0  0
 23 24  1  0  0  0
 24 25  2  0  0  0
 24 26  1  0  0  0
 26 28  1  0  0  0
 28 29  2  0  0  0
 29 30  1  0  0  0
 30 31  2  0  0  0
 31 32  1  0  0  0
 32 33  1  0  0  0
 32 34  2  0  0  0
 34 28  1  0  0  0
  6  1  1  0  0  0
 20 12  1  0  0  0
 20 15  1  0  0  0
 11 21  1  0  0  0
 11 22  1  0  0  0
  9 10  1  0  0  0
 26 27  1  0  0  0
M  END
>  <minimizedAffinity>
-9.40623

>  <minimizedRMSD>
1.19771

$$$$
CHEMBL5091242 PubChem-156898864


 40 44  0  0  0  0  0  0  0  0999 V2000
   13.2797  -10.2375   15.3490 C   0  0  0  0  0  0  0  0  0  0  0  0
   14.5442   -9.7867   14.6949 C   0  0  0  0  0  0  0  0  0  0  0  0
   15.3400   -8.8412   15.2364 C   0  0  0  0  0  0  0  0  0  0  0  0
   16.5596   -8.3463   14.4711 C   0  0  0  0  0  0  0  0  0  0  0  0
   16.8653   -9.1066   13.2557 N   0  0  0  0  0  0  0  0  0  0  0  0
   16.0885  -10.0202   12.7596 C   0  0  0  0  0  0  0  0  0  0  0  0
   14.8840  -10.3722   13.4370 N   0  0  0  0  0  0  0  0  0  0  0  0
   14.2756  -11.0307   13.0304 H   0  0  0  0  0  0  0  0  0  0  0  0
   17.7881   -8.2253   15.3317 C   0  0  0  0  0  0  0  0  0  0  0  0
   18.2787   -6.9395   15.5871 C   0  0  0  0  0  0  0  0  0  0  0  0
   19.4061   -6.7562   16.3908 C   0  0  0  0  0  0  0  0  0  0  0  0
   20.0538   -7.8606   16.9467 C   0  0  0  0  0  0  0  0  0  0  0  0
   19.5753   -9.1485   16.6982 C   0  0  0  0  0  0  0  0  0  0  0  0
   18.4480   -9.3420   15.8936 C   0  0  0  0  0  0  0  0  0  0  0  0
   17.9042  -10.9910   15.6228 Cl  0  0  0  0  0  0  0  0  0  0  0  0
   15.0363   -8.2080   16.5398 C   0  0  0  0  0  0  0  0  0  0  0  0
   15.3720   -7.0094   16.7424 O   0  0  0  0  0  0  0  0  0  0  0  0
   14.4493   -8.9734   17.5962 N   0  0  0  0  0  0  0  0  0  0  0  0
   14.0380   -9.8414   17.3806 H   0  0  0  0  0  0  0  0  0  0  0  0
   14.4376   -8.5164   18.9783 C   0  0  0  0  0  0  0  0  0  0  0  0
   15.7921   -8.0209   19.3591 C   0  0  0  0  0  0  0  0  0  0  0  0
   16.0841   -7.1770   20.4090 C   0  0  0  0  0  0  0  0  0  0  0  0
   17.4027   -6.9342   20.3318 N   0  0  0  0  0  0  0  0  0  0  0  0
   17.9425   -7.5585   19.2986 N   0  0  0  0  0  0  0  0  0  0  0  0
   16.9675   -8.2399   18.6658 C   0  0  0  0  0  0  0  0  0  0  0  0
   18.1508   -6.0919   21.2455 C   0  0  0  0  0  0  0  0  0  0  0  0
   16.4411  -10.7093   11.5557 N   0  0  0  0  0  0  0  0  0  0  0  0
   16.3327  -11.6877   11.5417 H   0  0  0  0  0  0  0  0  0  0  0  0
   16.9396  -10.0803   10.3711 C   0  0  0  0  0  0  0  0  0  0  0  0
   16.5533  -10.4643    9.1264 N   0  0  0  0  0  0  0  0  0  0  0  0
   17.2595   -9.6243    8.3508 C   0  0  0  0  0  0  0  0  0  0  0  0
   17.2689   -9.5515    6.9595 C   0  0  0  0  0  0  0  0  0  0  0  0
   18.0992   -8.5799    6.3666 C   0  0  0  0  0  0  0  0  0  0  0  0
   18.8866   -7.7200    7.1665 C   0  0  0  0  0  0  0  0  0  0  0  0
   18.8494   -7.8252    8.5686 C   0  0  0  0  0  0  0  0  0  0  0  0
   18.0183   -8.7954    9.1221 C   0  0  0  0  0  0  0  0  0  0  0  0
   17.8130   -9.0858   10.3777 O   0  0  0  0  0  0  0  0  0  0  0  0
   19.6358   -6.9687    9.3889 N   0  0  0  0  0  0  0  0  0  0  0  0
   20.2168   -6.2893    8.9765 H   0  0  0  0  0  0  0  0  0  0  0  0
   19.5988   -7.0555   10.3689 H   0  0  0  0  0  0  0  0  0  0  0  0
  1  2  1  0  0  0
  2  3  2  0  0  0
  3  4  1  0  0  0
  4  5  1  0  0  0
  5  6  2  0  0  0
  6  7  1  0  0  0
  6 27  1  0  0  0
 27 29  1  0  0  0
 29 30  2  0  0  0
 30 31  1  0  0  0
 31 32  2  0  0  0
 32 33  1  0  0  0
 33 34  2  0  0  0
 34 35  1  0  0  0
 35 36  2  0  0  0
 36 37  1  0  0  0
 35 38  1  0  0  0
  4  9  1  0  0  0
  9 10  2  0  0  0
 10 11  1  0  0  0
 11 12  2  0  0  0
 12 13  1  0  0  0
 13 14  2  0  0  0
 14 15  1  0  0  0
  3 16  1  0  0  0
 16 17  2  0  0  0
 16 18  1  0  0  0
 18 20  1  0  0  0
 20 21  1  0  0  0
 21 22  2  0  0  0
 22 23  1  0  0  0
 23 24  1  0  0  0
 24 25  2  0  0  0
 23 26  1  0  0  0
  7  2  1  0  0  0
 37 29  1  0  0  0
 36 31  1  0  0  0
 14  9  1  0  0  0
 25 21  1  0  0  0
  7  8  1  0  0  0
 27 28  1  0  0  0
 38 39  1  0  0  0
 38 40  1  0  0  0
 18 19  1  0  0  0
M  END
>  <minimizedAffinity>
15.01990

>  <minimizedRMSD>
1.19901

$$$$
CHEMBL379076 PubChem-44414195


 33 36  0  0  0  0  0  0  0  0999 V2000
   16.3090  -10.0910   12.2602 C   0  0  0  0  0  0  0  0  0  0  0  0
   17.4932   -9.8918   12.9010 N   0  0  0  0  0  0  0  0  0  0  0  0
   17.1146   -9.3736   14.0844 C   0  0  0  0  0  0  0  0  0  0  0  0
   15.7568   -9.2669   14.1488 C   0  0  0  0  0  0  0  0  0  0  0  0
   15.2334   -9.7168   13.0019 N   0  0  0  0  0  0  0  0  0  0  0  0
   13.8238   -9.7900   12.6468 C   0  0  0  0  0  0  0  0  0  0  0  0
   15.1019   -8.7588   15.2690 C   0  0  0  0  0  0  0  0  0  0  0  0
   15.8965   -8.3474   16.3610 C   0  0  0  0  0  0  0  0  0  0  0  0
   17.3076   -8.4611   16.2862 C   0  0  0  0  0  0  0  0  0  0  0  0
   17.9338   -8.9795   15.1377 C   0  0  0  0  0  0  0  0  0  0  0  0
   15.2624   -7.8006   17.5730 C   0  0  0  0  0  0  0  0  0  0  0  0
   14.1491   -7.2125   17.4920 O   0  0  0  0  0  0  0  0  0  0  0  0
   15.9042   -7.9451   18.8442 N   0  0  0  0  0  0  0  0  0  0  0  0
   16.7460   -8.4533   18.8920 H   0  0  0  0  0  0  0  0  0  0  0  0
   15.3652   -7.3725   20.0697 C   0  0  0  0  0  0  0  0  0  0  0  0
   16.4813   -6.7843   20.9169 C   0  0  0  0  0  0  0  0  0  0  0  0
   17.6570   -6.6950   20.1719 O   0  0  0  0  0  0  0  0  0  0  0  0
   17.9216   -7.5806   19.8779 H   0  0  0  0  0  0  0  0  0  0  0  0
   16.2223  -10.6567   10.8701 C   0  0  0  0  0  0  0  0  0  0  0  0
   16.7356  -11.9424   10.8528 F   0  0  0  0  0  0  0  0  0  0  0  0
   14.8961  -10.7107   10.4770 F   0  0  0  0  0  0  0  0  0  0  0  0
   19.9072   -7.3861    7.5758 C   0  0  0  0  0  0  0  0  0  0  0  0
   18.7285   -7.0818    6.8579 C   0  0  0  0  0  0  0  0  0  0  0  0
   17.4971   -7.6411    7.2440 C   0  0  0  0  0  0  0  0  0  0  0  0
   17.4899   -8.4943    8.3452 C   0  0  0  0  0  0  0  0  0  0  0  0
   18.6260   -8.7861    9.0356 C   0  0  0  0  0  0  0  0  0  0  0  0
   19.8639   -8.2516    8.6856 C   0  0  0  0  0  0  0  0  0  0  0  0
   18.3520   -9.6194   10.0485 N   0  0  0  0  0  0  0  0  0  0  0  0
   17.0112   -9.8081    9.9199 C   0  0  0  0  0  0  0  0  0  0  0  0
   16.4416   -9.1294    8.8879 N   0  0  0  0  0  0  0  0  0  0  0  0
   16.3592   -7.3561    6.5654 F   0  0  0  0  0  0  0  0  0  0  0  0
   21.0866   -6.8405    7.1941 F   0  0  0  0  0  0  0  0  0  0  0  0
   18.9665   -9.9995   10.7173 H   0  0  0  0  0  0  0  0  0  0  0  0
 22 23  2  0  0  0
 23 24  1  0  0  0
 24 25  2  0  0  0
 25 26  1  0  0  0
 26 27  2  0  0  0
 26 28  1  0  0  0
 28 29  1  0  0  0
 29 30  2  0  0  0
 29 19  1  0  0  0
 19  1  1  0  0  0
  1  2  2  0  0  0
  2  3  1  0  0  0
  3  4  2  0  0  0
  4  5  1  0  0  0
  5  6  1  0  0  0
  4  7  1  0  0  0
  7  8  2  0  0  0
  8  9  1  0  0  0
  9 10  2  0  0  0
  8 11  1  0  0  0
 11 12  2  0  0  0
 11 13  1  0  0  0
 13 15  1  0  0  0
 15 16  1  0  0  0
 16 17  1  0  0  0
 19 20  1  0  0  0
 19 21  1  0  0  0
 24 31  1  0  0  0
 22 32  1  0  0  0
 27 22  1  0  0  0
  5  1  1  0  0  0
 30 25  1  0  0  0
 10  3  1  0  0  0
 28 33  1  0  0  0
 13 14  1  0  0  0
 17 18  1  0  0  0
M  END
>  <minimizedAffinity>
-0.49055

>  <minimizedRMSD>
1.20602

$$$$
CHEMBL5202391 PubChem-155927641


 36 40  0  0  0  0  0  0  0  0999 V2000
   15.0338   -7.5453   16.7887 O   0  0  0  0  0  0  0  0  0  0  0  0
   15.7667   -8.4329   17.3041 C   0  0  0  0  0  0  0  0  0  0  0  0
   15.8929   -8.5389   18.7306 N   0  0  0  0  0  0  0  0  0  0  0  0
   16.4783   -9.2546   19.0688 H   0  0  0  0  0  0  0  0  0  0  0  0
   16.4995   -9.3704   16.4349 C   0  0  0  0  0  0  0  0  0  0  0  0
   16.4585   -9.2256   15.0411 C   0  0  0  0  0  0  0  0  0  0  0  0
   17.1516  -10.1118   14.2105 C   0  0  0  0  0  0  0  0  0  0  0  0
   17.8988  -11.1611   14.7793 C   0  0  0  0  0  0  0  0  0  0  0  0
   17.9403  -11.3065   16.1689 C   0  0  0  0  0  0  0  0  0  0  0  0
   17.2454  -10.4173   16.9923 C   0  0  0  0  0  0  0  0  0  0  0  0
   18.6553  -12.1320   13.9360 C   0  0  0  0  0  0  0  0  0  0  0  0
   17.0804   -9.9231   12.7844 C   0  0  0  0  0  0  0  0  0  0  0  0
   17.0217   -9.7650   11.5908 C   0  0  0  0  0  0  0  0  0  0  0  0
   16.9541   -9.5756   10.1675 C   0  0  0  0  0  0  0  0  0  0  0  0
   17.8082   -8.8487    9.4414 N   0  0  0  0  0  0  0  0  0  0  0  0
   18.8764   -8.1554    9.8300 N   0  0  0  0  0  0  0  0  0  0  0  0
   19.6017   -7.4844    8.8900 C   0  0  0  0  0  0  0  0  0  0  0  0
   19.2101   -7.5373    7.5377 C   0  0  0  0  0  0  0  0  0  0  0  0
   18.0781   -8.2779    7.1619 C   0  0  0  0  0  0  0  0  0  0  0  0
   17.3909   -8.9342    8.1757 C   0  0  0  0  0  0  0  0  0  0  0  0
   16.2864   -9.6953    8.0391 N   0  0  0  0  0  0  0  0  0  0  0  0
   16.0043  -10.1064    9.3056 C   0  0  0  0  0  0  0  0  0  0  0  0
   15.2564   -7.7126   19.7148 C   0  0  0  0  0  0  0  0  0  0  0  0
   15.1864   -8.1712   21.0346 C   0  0  0  0  0  0  0  0  0  0  0  0
   14.5710   -7.3961   22.0216 C   0  0  0  0  0  0  0  0  0  0  0  0
   14.0130   -6.1560   21.6937 C   0  0  0  0  0  0  0  0  0  0  0  0
   14.0940   -5.6847   20.3792 C   0  0  0  0  0  0  0  0  0  0  0  0
   14.7094   -6.4609   19.3936 C   0  0  0  0  0  0  0  0  0  0  0  0
   13.3626   -5.3188   22.7551 C   0  0  0  0  0  0  0  0  0  0  0  0
   11.9019   -5.2011   22.6298 N   0  0  0  0  0  0  0  0  0  0  0  0
   11.2927   -6.2736   21.8267 C   0  0  0  0  0  0  0  0  0  0  0  0
   11.2205   -5.9193   20.3403 C   0  0  0  0  0  0  0  0  0  0  0  0
   10.5360   -4.6459   20.1671 N   0  0  0  0  0  0  0  0  0  0  0  0
   11.3687   -3.6187   20.7767 C   0  0  0  0  0  0  0  0  0  0  0  0
   11.4495   -3.8430   22.2877 C   0  0  0  0  0  0  0  0  0  0  0  0
   10.5186   -4.3744   18.7418 C   0  0  0  0  0  0  0  0  0  0  0  0
  1  2  2  0  0  0
  2  3  1  0  0  0
  3 23  1  0  0  0
 23 24  2  0  0  0
 24 25  1  0  0  0
 25 26  2  0  0  0
 26 29  1  0  0  0
 29 30  1  0  0  0
 30 31  1  0  0  0
 31 32  1  0  0  0
 32 33  1  0  0  0
 33 34  1  0  0  0
 34 35  1  0  0  0
 33 36  1  0  0  0
 26 27  1  0  0  0
 27 28  2  0  0  0
  2  5  1  0  0  0
  5  6  2  0  0  0
  6  7  1  0  0  0
  7  8  2  0  0  0
  8  9  1  0  0  0
  9 10  2  0  0  0
  8 11  1  0  0  0
  7 12  1  0  0  0
 12 13  3  0  0  0
 13 14  1  0  0  0
 14 15  1  0  0  0
 15 16  1  0  0  0
 16 17  2  0  0  0
 17 18  1  0  0  0
 18 19  2  0  0  0
 19 20  1  0  0  0
 20 21  2  0  0  0
 21 22  1  0  0  0
 28 23  1  0  0  0
 10  5  1  0  0  0
 22 14  2  0  0  0
 35 30  1  0  0  0
 20 15  1  0  0  0
  3  4  1  0  0  0
M  END
>  <minimizedAffinity>
-9.30487

>  <minimizedRMSD>
1.20854

$$$$
CHEMBL3906976 PubChem-134135473


 31 34  0  0  0  0  0  0  0  0999 V2000
   16.7415   -9.9033   14.0893 C   0  0  0  0  0  0  0  0  0  0  0  0
   16.0871   -9.0181   14.9525 C   0  0  0  0  0  0  0  0  0  0  0  0
   16.2219   -9.1344   16.3424 C   0  0  0  0  0  0  0  0  0  0  0  0
   17.0111  -10.1637   16.8691 C   0  0  0  0  0  0  0  0  0  0  0  0
   17.6457  -11.0714   16.0191 C   0  0  0  0  0  0  0  0  0  0  0  0
   17.5130  -10.9548   14.6325 C   0  0  0  0  0  0  0  0  0  0  0  0
   18.1359  -12.0050   13.7775 C   0  0  0  0  0  0  0  0  0  0  0  0
   18.7735   -9.2863   12.1102 O   0  0  0  0  0  0  0  0  0  0  0  0
   17.6037   -9.5547   11.7241 C   0  0  0  0  0  0  0  0  0  0  0  0
   16.5515   -9.7381   12.6782 N   0  0  0  0  0  0  0  0  0  0  0  0
   15.6273   -9.7517   12.3391 H   0  0  0  0  0  0  0  0  0  0  0  0
   17.3032   -9.6377   10.2876 C   0  0  0  0  0  0  0  0  0  0  0  0
   17.8873   -8.9477    9.2475 C   0  0  0  0  0  0  0  0  0  0  0  0
   17.3076   -9.3371    8.1042 N   0  0  0  0  0  0  0  0  0  0  0  0
   16.3774  -10.2442    8.3449 N   0  0  0  0  0  0  0  0  0  0  0  0
   16.3482  -10.4541    9.6842 C   0  0  0  0  0  0  0  0  0  0  0  0
   17.6537   -8.8475    6.8877 C   0  0  0  0  0  0  0  0  0  0  0  0
   18.6716   -7.8841    6.8285 C   0  0  0  0  0  0  0  0  0  0  0  0
   19.2949   -7.4606    8.0178 C   0  0  0  0  0  0  0  0  0  0  0  0
   18.9049   -7.9946    9.2562 C   0  0  0  0  0  0  0  0  0  0  0  0
   15.5386   -8.1865   17.2396 C   0  0  0  0  0  0  0  0  0  0  0  0
   14.8325   -7.2588   16.7573 O   0  0  0  0  0  0  0  0  0  0  0  0
   15.6795   -8.3149   18.6585 N   0  0  0  0  0  0  0  0  0  0  0  0
   16.2716   -9.0181   19.0108 H   0  0  0  0  0  0  0  0  0  0  0  0
   14.9855   -7.4510   19.6041 C   0  0  0  0  0  0  0  0  0  0  0  0
   13.5439   -7.3344   19.2407 C   0  0  0  0  0  0  0  0  0  0  0  0
   12.7271   -8.4710   19.2336 C   0  0  0  0  0  0  0  0  0  0  0  0
   11.3788   -8.3619   18.8793 C   0  0  0  0  0  0  0  0  0  0  0  0
   10.8463   -7.1172   18.5295 C   0  0  0  0  0  0  0  0  0  0  0  0
   11.6618   -5.9814   18.5334 C   0  0  0  0  0  0  0  0  0  0  0  0
   13.0101   -6.0900   18.8878 C   0  0  0  0  0  0  0  0  0  0  0  0
  8  9  2  0  0  0
  9 10  1  0  0  0
 10  1  1  0  0  0
  1  2  2  0  0  0
  2  3  1  0  0  0
  3 21  1  0  0  0
 21 22  2  0  0  0
 21 23  1  0  0  0
 23 25  1  0  0  0
 25 26  1  0  0  0
 26 27  2  0  0  0
 27 28  1  0  0  0
 28 29  2  0  0  0
 29 30  1  0  0  0
 30 31  2  0  0  0
  3  4  2  0  0  0
  4  5  1  0  0  0
  5  6  2  0  0  0
  6  7  1  0  0  0
  9 12  1  0  0  0
 12 13  2  0  0  0
 13 14  1  0  0  0
 14 15  1  0  0  0
 15 16  2  0  0  0
 14 17  1  0  0  0
 17 18  2  0  0  0
 18 19  1  0  0  0
 19 20  2  0  0  0
  6  1  1  0  0  0
 16 12  1  0  0  0
 31 26  1  0  0  0
 20 13  1  0  0  0
 10 11  1  0  0  0
 23 24  1  0  0  0
M  END
>  <minimizedAffinity>
-10.81076

>  <minimizedRMSD>
1.21038

$$$$
CHEMBL3933796 PubChem-89743513


 35 39  0  0  0  0  0  0  0  0999 V2000
   17.2742  -10.7486   15.6283 C   0  0  0  0  0  0  0  0  0  0  0  0
   16.3779   -9.8290   15.0579 C   0  0  0  0  0  0  0  0  0  0  0  0
   15.6875   -8.9090   15.8477 C   0  0  0  0  0  0  0  0  0  0  0  0
   15.8792   -8.8839   17.2331 C   0  0  0  0  0  0  0  0  0  0  0  0
   16.7757   -9.7879   17.8137 C   0  0  0  0  0  0  0  0  0  0  0  0
   17.4699  -10.7129   17.0282 C   0  0  0  0  0  0  0  0  0  0  0  0
   18.3504  -11.5406   17.6426 F   0  0  0  0  0  0  0  0  0  0  0  0
   15.1500   -7.9157   18.0705 C   0  0  0  0  0  0  0  0  0  0  0  0
   14.5511   -6.9433   17.5343 O   0  0  0  0  0  0  0  0  0  0  0  0
   15.1249   -8.0755   19.4929 N   0  0  0  0  0  0  0  0  0  0  0  0
   15.6372   -8.8152   19.8924 H   0  0  0  0  0  0  0  0  0  0  0  0
   14.3750   -7.1919   20.3755 C   0  0  0  0  0  0  0  0  0  0  0  0
   12.9644   -7.0652   19.9083 C   0  0  0  0  0  0  0  0  0  0  0  0
   12.3499   -5.8088   19.8724 C   0  0  0  0  0  0  0  0  0  0  0  0
   11.0320   -5.6864   19.4216 C   0  0  0  0  0  0  0  0  0  0  0  0
   10.3277   -6.8200   19.0042 C   0  0  0  0  0  0  0  0  0  0  0  0
   10.9413   -8.0760   19.0368 C   0  0  0  0  0  0  0  0  0  0  0  0
   12.2593   -8.1988   19.4875 C   0  0  0  0  0  0  0  0  0  0  0  0
   17.9362  -13.1234   15.0620 C   0  0  0  0  0  0  0  0  0  0  0  0
   17.9762  -11.6957   14.7837 N   0  0  0  0  0  0  0  0  0  0  0  0
   18.7461  -11.3014   13.6015 C   0  0  0  0  0  0  0  0  0  0  0  0
   19.3414   -9.9066   13.7521 C   0  0  0  0  0  0  0  0  0  0  0  0
   19.0864   -9.1933   12.4371 C   0  0  0  0  0  0  0  0  0  0  0  0
   18.1833  -10.0432   11.6820 N   0  0  0  0  0  0  0  0  0  0  0  0
   17.8973  -11.3007   12.3432 C   0  0  0  0  0  0  0  0  0  0  0  0
   17.6101   -9.7014   10.4076 C   0  0  0  0  0  0  0  0  0  0  0  0
   16.4016  -10.2263   10.0408 N   0  0  0  0  0  0  0  0  0  0  0  0
   15.8195   -9.9252    8.8389 C   0  0  0  0  0  0  0  0  0  0  0  0
   16.4380   -9.0812    7.9631 N   0  0  0  0  0  0  0  0  0  0  0  0
   17.6351   -8.5530    8.3124 C   0  0  0  0  0  0  0  0  0  0  0  0
   18.3631   -7.7118    7.5667 N   0  0  0  0  0  0  0  0  0  0  0  0
   19.4616   -7.4603    8.3208 C   0  0  0  0  0  0  0  0  0  0  0  0
   19.4230   -8.1432    9.5391 C   0  0  0  0  0  0  0  0  0  0  0  0
   18.2336   -8.8367    9.4997 C   0  0  0  0  0  0  0  0  0  0  0  0
   18.1492   -7.3567    6.6737 H   0  0  0  0  0  0  0  0  0  0  0  0
 19 20  1  0  0  0
 21 20  1  0  0  0
 21 22  1  0  0  0
 22 23  1  0  0  0
 23 24  1  0  0  0
 24 25  1  0  0  0
 24 26  1  0  0  0
 26 27  2  0  0  0
 27 28  1  0  0  0
 28 29  2  0  0  0
 29 30  1  0  0  0
 30 31  1  0  0  0
 31 32  1  0  0  0
 32 33  2  0  0  0
 33 34  1  0  0  0
 20  1  1  0  0  0
  1  2  2  0  0  0
  2  3  1  0  0  0
  3  4  2  0  0  0
  4  5  1  0  0  0
  5  6  2  0  0  0
  6  7  1  0  0  0
  4  8  1  0  0  0
  8  9  2  0  0  0
  8 10  1  0  0  0
 10 12  1  0  0  0
 12 13  1  0  0  0
 13 14  2  0  0  0
 14 15  1  0  0  0
 15 16  2  0  0  0
 16 17  1  0  0  0
 17 18  2  0  0  0
 25 21  1  0  0  0
 34 26  1  0  0  0
  6  1  1  0  0  0
 18 13  1  0  0  0
 34 30  2  0  0  0
 31 35  1  0  0  0
 10 11  1  0  0  0
M  END
>  <minimizedAffinity>
-6.86778

>  <minimizedRMSD>
1.21514

$$$$
CHEMBL4949941 952990612 MCULE-8931828759 MolPort-045-965-280 PubChem-131940803 ZINC000952990612


 27 29  0  0  0  0  0  0  0  0999 V2000
   16.1136   -9.8249   12.2587 N   0  0  0  0  0  0  0  0  0  0  0  0
   16.1552   -8.3811   12.0680 C   0  0  0  0  0  0  0  0  0  0  0  0
   17.5325  -10.3368   13.1300 S   0  0  0  0  0  0  0  0  0  0  0  0
   17.7725  -11.8040   12.9049 O   0  0  0  0  0  0  0  0  0  0  0  0
   18.7419   -9.5701   12.6680 O   0  0  0  0  0  0  0  0  0  0  0  0
   16.3557   -9.0612   16.7130 C   0  0  0  0  0  0  0  0  0  0  0  0
   16.3890   -9.0971   15.3276 C   0  0  0  0  0  0  0  0  0  0  0  0
   17.2907  -10.0554   14.8439 C   0  0  0  0  0  0  0  0  0  0  0  0
   17.9685  -10.7835   15.8183 C   0  0  0  0  0  0  0  0  0  0  0  0
   17.4295  -10.2083   17.3044 S   0  0  0  0  0  0  0  0  0  0  0  0
   14.9084   -7.2467   19.7905 C   0  0  0  0  0  0  0  0  0  0  0  0
   15.7103   -8.1111   18.9412 N   0  0  0  0  0  0  0  0  0  0  0  0
   15.5192   -8.1716   17.5266 C   0  0  0  0  0  0  0  0  0  0  0  0
   14.6341   -7.4629   16.9746 O   0  0  0  0  0  0  0  0  0  0  0  0
   16.4065   -8.6721   19.3531 H   0  0  0  0  0  0  0  0  0  0  0  0
   15.9897  -10.5161   10.9667 C   0  0  0  0  0  0  0  0  0  0  0  0
   16.7333   -9.8610    9.8364 C   0  0  0  0  0  0  0  0  0  0  0  0
   16.4354  -10.0760    8.5276 N   0  0  0  0  0  0  0  0  0  0  0  0
   17.3416   -9.3162    7.8976 C   0  0  0  0  0  0  0  0  0  0  0  0
   17.5022   -9.1469    6.5249 C   0  0  0  0  0  0  0  0  0  0  0  0
   18.5339   -8.2911    6.0958 C   0  0  0  0  0  0  0  0  0  0  0  0
   19.3642   -7.6389    7.0351 C   0  0  0  0  0  0  0  0  0  0  0  0
   20.3523   -6.8189    6.6044 F   0  0  0  0  0  0  0  0  0  0  0  0
   19.1713   -7.8357    8.4155 C   0  0  0  0  0  0  0  0  0  0  0  0
   18.1410   -8.6884    8.8030 C   0  0  0  0  0  0  0  0  0  0  0  0
   17.7792   -9.0204   10.0498 N   0  0  0  0  0  0  0  0  0  0  0  0
   18.1719   -8.7291   10.9043 H   0  0  0  0  0  0  0  0  0  0  0  0
 11 12  1  0  0  0
 12 13  1  0  0  0
 13 14  2  0  0  0
 13  6  1  0  0  0
  6  7  2  0  0  0
  7  8  1  0  0  0
  8  9  2  0  0  0
  9 10  1  0  0  0
  8  3  1  0  0  0
  3  4  2  0  0  0
  3  5  2  0  0  0
  3  1  1  0  0  0
  1  2  1  0  0  0
  1 16  1  0  0  0
 16 17  1  0  0  0
 17 18  2  0  0  0
 18 19  1  0  0  0
 19 20  2  0  0  0
 20 21  1  0  0  0
 21 22  2  0  0  0
 22 23  1  0  0  0
 22 24  1  0  0  0
 24 25  2  0  0  0
 25 26  1  0  0  0
 10  6  1  0  0  0
 26 17  1  0  0  0
 25 19  1  0  0  0
 12 15  1  0  0  0
 26 27  1  0  0  0
M  END
>  <minimizedAffinity>
-6.60514

>  <minimizedRMSD>
1.21713

$$$$
CHEMBL5073082 PubChem-156898895


 37 41  0  0  0  0  0  0  0  0999 V2000
   14.7944  -10.1386   15.1861 C   0  0  0  0  0  0  0  0  0  0  0  0
   15.7789   -9.3444   15.6653 C   0  0  0  0  0  0  0  0  0  0  0  0
   16.7440   -8.6666   14.7002 C   0  0  0  0  0  0  0  0  0  0  0  0
   16.5632   -9.0281   13.2915 N   0  0  0  0  0  0  0  0  0  0  0  0
   15.6171   -9.8020   12.8579 C   0  0  0  0  0  0  0  0  0  0  0  0
   14.6932  -10.3758   13.7781 N   0  0  0  0  0  0  0  0  0  0  0  0
   13.9685  -10.9487   13.4378 H   0  0  0  0  0  0  0  0  0  0  0  0
   18.1867   -8.8246   15.0945 C   0  0  0  0  0  0  0  0  0  0  0  0
   18.7189   -7.8943   15.9951 C   0  0  0  0  0  0  0  0  0  0  0  0
   20.0520   -7.9820   16.4021 C   0  0  0  0  0  0  0  0  0  0  0  0
   20.8666   -9.0021   15.9081 C   0  0  0  0  0  0  0  0  0  0  0  0
   20.3488   -9.9336   15.0057 C   0  0  0  0  0  0  0  0  0  0  0  0
   19.0152   -9.8537   14.5919 C   0  0  0  0  0  0  0  0  0  0  0  0
   18.4355  -11.0567   13.4493 Cl  0  0  0  0  0  0  0  0  0  0  0  0
   15.9119   -9.0257   17.1104 C   0  0  0  0  0  0  0  0  0  0  0  0
   16.7036   -9.7047   17.8178 O   0  0  0  0  0  0  0  0  0  0  0  0
   15.1125   -7.9940   17.7055 N   0  0  0  0  0  0  0  0  0  0  0  0
   14.5012   -7.5064   17.1074 H   0  0  0  0  0  0  0  0  0  0  0  0
   15.1153   -7.6025   19.0833 C   0  0  0  0  0  0  0  0  0  0  0  0
   14.0163   -7.6747   19.8588 N   0  0  0  0  0  0  0  0  0  0  0  0
   14.2289   -7.2652   21.1091 N   0  0  0  0  0  0  0  0  0  0  0  0
   15.4971   -6.8593   21.3568 C   0  0  0  0  0  0  0  0  0  0  0  0
   16.4252   -7.0092   19.9568 S   0  0  0  0  0  0  0  0  0  0  0  0
   13.0262  -11.8703   15.3569 C   0  0  0  0  0  0  0  0  0  0  0  0
   13.7607  -10.7581   16.0807 C   0  0  0  0  0  0  0  0  0  0  0  0
   12.7726   -9.7132   16.5622 C   0  0  0  0  0  0  0  0  0  0  0  0
   15.4993  -10.1093   11.4651 N   0  0  0  0  0  0  0  0  0  0  0  0
   14.7733  -10.7158   11.1923 H   0  0  0  0  0  0  0  0  0  0  0  0
   16.3578   -9.6009   10.4393 C   0  0  0  0  0  0  0  0  0  0  0  0
   16.1436   -9.8533    9.1218 N   0  0  0  0  0  0  0  0  0  0  0  0
   17.1682   -9.1991    8.5494 C   0  0  0  0  0  0  0  0  0  0  0  0
   17.4680   -9.1036    7.1930 C   0  0  0  0  0  0  0  0  0  0  0  0
   18.6057   -8.3555    6.8341 C   0  0  0  0  0  0  0  0  0  0  0  0
   19.3997   -7.7334    7.8248 C   0  0  0  0  0  0  0  0  0  0  0  0
   19.0670   -7.8510    9.1876 C   0  0  0  0  0  0  0  0  0  0  0  0
   17.9356   -8.5982    9.5023 C   0  0  0  0  0  0  0  0  0  0  0  0
   17.4244   -8.8532   10.6750 O   0  0  0  0  0  0  0  0  0  0  0  0
 24 25  1  0  0  0
 25 26  1  0  0  0
 25  1  1  0  0  0
  1  2  2  0  0  0
  2  3  1  0  0  0
  3  4  1  0  0  0
  4  5  2  0  0  0
  5  6  1  0  0  0
  5 27  1  0  0  0
 27 29  1  0  0  0
 29 30  2  0  0  0
 30 31  1  0  0  0
 31 32  2  0  0  0
 32 33  1  0  0  0
 33 34  2  0  0  0
 34 35  1  0  0  0
 35 36  2  0  0  0
 36 37  1  0  0  0
  3  8  1  0  0  0
  8  9  2  0  0  0
  9 10  1  0  0  0
 10 11  2  0  0  0
 11 12  1  0  0  0
 12 13  2  0  0  0
 13 14  1  0  0  0
  2 15  1  0  0  0
 15 16  2  0  0  0
 15 17  1  0  0  0
 17 19  1  0  0  0
 19 20  2  0  0  0
 20 21  1  0  0  0
 21 22  2  0  0  0
 22 23  1  0  0  0
  6  1  1  0  0  0
 37 29  1  0  0  0
 36 31  1  0  0  0
 13  8  1  0  0  0
 23 19  1  0  0  0
  6  7  1  0  0  0
 27 28  1  0  0  0
 17 18  1  0  0  0
M  END
>  <minimizedAffinity>
5.31880

>  <minimizedRMSD>
1.22065

$$$$
CHEMBL4937886 67834295 MCULE-1774510033 MolPort-019-890-048 PubChem-56747693 ZINC000067834295 ZINC67834295


 24 25  0  0  0  0  0  0  0  0999 V2000
   18.1798  -10.8452   13.5149 C   0  0  0  0  0  0  0  0  0  0  0  0
   16.9926  -10.0540   13.2324 N   0  0  0  0  0  0  0  0  0  0  0  0
   16.6487   -8.9229   14.0509 C   0  0  0  0  0  0  0  0  0  0  0  0
   15.5639   -8.3098   13.8625 O   0  0  0  0  0  0  0  0  0  0  0  0
   16.1143  -10.5046   12.1591 C   0  0  0  0  0  0  0  0  0  0  0  0
   16.5736   -9.9716   10.8430 C   0  0  0  0  0  0  0  0  0  0  0  0
   15.8423  -10.2402    9.6815 C   0  0  0  0  0  0  0  0  0  0  0  0
   16.2542   -9.7473    8.4819 N   0  0  0  0  0  0  0  0  0  0  0  0
   17.3759   -8.9859    8.3747 C   0  0  0  0  0  0  0  0  0  0  0  0
   17.7758   -8.4918    7.1299 C   0  0  0  0  0  0  0  0  0  0  0  0
   18.9308   -7.7090    7.0282 C   0  0  0  0  0  0  0  0  0  0  0  0
   19.6874   -7.4188    8.1692 C   0  0  0  0  0  0  0  0  0  0  0  0
   19.2932   -7.9100    9.4181 C   0  0  0  0  0  0  0  0  0  0  0  0
   18.1406   -8.6924    9.5250 C   0  0  0  0  0  0  0  0  0  0  0  0
   17.7302   -9.1912   10.7609 C   0  0  0  0  0  0  0  0  0  0  0  0
   17.5499   -8.4673   15.1552 C   0  0  0  0  0  0  0  0  0  0  0  0
   17.2800   -9.2456   16.4363 C   0  0  0  0  0  0  0  0  0  0  0  0
   15.7901   -9.4750   16.6519 C   0  0  0  0  0  0  0  0  0  0  0  0
   15.0514   -8.1181   17.5433 S   0  0  0  0  0  0  0  0  0  0  0  0
   16.0409   -7.7003   18.8964 N   0  0  0  0  0  0  0  0  0  0  0  0
   13.6923   -8.5315   18.0317 O   0  0  0  0  0  0  0  0  0  0  0  0
   14.9115   -6.9267   16.6384 O   0  0  0  0  0  0  0  0  0  0  0  0
   16.1360   -8.5090   19.5107 H   0  0  0  0  0  0  0  0  0  0  0  0
   15.6084   -6.9324   19.4097 H   0  0  0  0  0  0  0  0  0  0  0  0
  1  2  1  0  0  0
  2  5  1  0  0  0
  2  3  1  0  0  0
  5  6  1  0  0  0
  6  7  2  0  0  0
  7  8  1  0  0  0
  8  9  2  0  0  0
  9 10  1  0  0  0
 10 11  2  0  0  0
 11 12  1  0  0  0
 12 13  2  0  0  0
 13 14  1  0  0  0
 14 15  2  0  0  0
 14  9  1  0  0  0
 15  6  1  0  0  0
  3  4  2  0  0  0
  3 16  1  0  0  0
 16 17  1  0  0  0
 17 18  1  0  0  0
 18 19  1  0  0  0
 19 20  1  0  0  0
 19 21  2  0  0  0
 19 22  2  0  0  0
 20 23  1  0  0  0
 20 24  1  0  0  0
M  END
>  <minimizedAffinity>
-5.83693

>  <minimizedRMSD>
1.22087

$$$$
CHEMBL3582391 PubChem-122179526


 33 36  0  0  0  0  0  0  0  0999 V2000
   16.8327   -9.8653   15.0436 C   0  0  0  0  0  0  0  0  0  0  0  0
   17.3481  -11.0043   15.6778 C   0  0  0  0  0  0  0  0  0  0  0  0
   17.8533  -12.0337   14.9522 F   0  0  0  0  0  0  0  0  0  0  0  0
   17.3449  -11.0879   17.0696 C   0  0  0  0  0  0  0  0  0  0  0  0
   16.8301  -10.0399   17.8325 C   0  0  0  0  0  0  0  0  0  0  0  0
   16.3114   -8.8942   17.2213 C   0  0  0  0  0  0  0  0  0  0  0  0
   16.3130   -8.8072   15.8098 C   0  0  0  0  0  0  0  0  0  0  0  0
   15.8202   -7.7191   15.1680 F   0  0  0  0  0  0  0  0  0  0  0  0
   16.8406   -9.7102   12.4012 C   0  0  0  0  0  0  0  0  0  0  0  0
   16.8371   -9.7813   13.6048 C   0  0  0  0  0  0  0  0  0  0  0  0
   18.6124   -8.3382    7.9391 C   0  0  0  0  0  0  0  0  0  0  0  0
   18.0664   -8.6116    6.7303 N   0  0  0  0  0  0  0  0  0  0  0  0
   16.9540   -9.3212    6.9082 N   0  0  0  0  0  0  0  0  0  0  0  0
   16.8066   -9.4907    8.2329 C   0  0  0  0  0  0  0  0  0  0  0  0
   15.8028  -10.1578    8.8540 N   0  0  0  0  0  0  0  0  0  0  0  0
   15.8104  -10.2321   10.2200 C   0  0  0  0  0  0  0  0  0  0  0  0
   16.8454   -9.6248   10.9689 C   0  0  0  0  0  0  0  0  0  0  0  0
   17.8797   -8.9362   10.3090 C   0  0  0  0  0  0  0  0  0  0  0  0
   17.8192   -8.8938    8.9202 C   0  0  0  0  0  0  0  0  0  0  0  0
   16.3541   -9.6576    6.2038 H   0  0  0  0  0  0  0  0  0  0  0  0
   20.6587   -7.7820    9.2091 C   0  0  0  0  0  0  0  0  0  0  0  0
   19.7917   -7.6060    8.0990 O   0  0  0  0  0  0  0  0  0  0  0  0
   15.8022   -7.8634   18.0809 N   0  0  0  0  0  0  0  0  0  0  0  0
   16.4674   -7.2471   18.4643 H   0  0  0  0  0  0  0  0  0  0  0  0
   14.1483   -7.5801   18.5210 S   0  0  0  0  0  0  0  0  0  0  0  0
   13.5740   -6.4739   17.6814 O   0  0  0  0  0  0  0  0  0  0  0  0
   13.3567   -8.8443   18.3332 O   0  0  0  0  0  0  0  0  0  0  0  0
   14.0792   -7.1072   20.2082 C   0  0  0  0  0  0  0  0  0  0  0  0
   12.9051   -6.5726   20.7444 C   0  0  0  0  0  0  0  0  0  0  0  0
   12.8639   -6.1915   22.0867 C   0  0  0  0  0  0  0  0  0  0  0  0
   14.0057   -6.3501   22.8756 C   0  0  0  0  0  0  0  0  0  0  0  0
   15.1415   -6.8695   22.3357 N   0  0  0  0  0  0  0  0  0  0  0  0
   15.2012   -7.2466   21.0301 C   0  0  0  0  0  0  0  0  0  0  0  0
 21 22  1  0  0  0
 22 11  1  0  0  0
 11 12  2  0  0  0
 12 13  1  0  0  0
 13 14  1  0  0  0
 14 15  2  0  0  0
 15 16  1  0  0  0
 16 17  2  0  0  0
 17  9  1  0  0  0
  9 10  3  0  0  0
 10  1  1  0  0  0
  1  2  2  0  0  0
  2  3  1  0  0  0
  2  4  1  0  0  0
  4  5  2  0  0  0
  5  6  1  0  0  0
  6 23  1  0  0  0
 23 25  1  0  0  0
 25 26  2  0  0  0
 25 27  2  0  0  0
 25 28  1  0  0  0
 28 29  2  0  0  0
 29 30  1  0  0  0
 30 31  2  0  0  0
 31 32  1  0  0  0
 32 33  2  0  0  0
  6  7  2  0  0  0
  7  8  1  0  0  0
 17 18  1  0  0  0
 18 19  2  0  0  0
 19 11  1  0  0  0
 19 14  1  0  0  0
  7  1  1  0  0  0
 33 28  1  0  0  0
 13 20  1  0  0  0
 23 24  1  0  0  0
M  END
>  <minimizedAffinity>
-7.10322

>  <minimizedRMSD>
1.22634

$$$$
CHEMBL3808521 PubChem-76903080


 36 39  0  0  0  0  0  0  0  0999 V2000
   18.8494  -12.1364   13.6128 C   0  0  0  0  0  0  0  0  0  0  0  0
   18.1567  -11.3444   14.6698 C   0  0  0  0  0  0  0  0  0  0  0  0
   17.7302  -10.0231   14.4393 C   0  0  0  0  0  0  0  0  0  0  0  0
   17.0758   -9.3205   15.4568 C   0  0  0  0  0  0  0  0  0  0  0  0
   16.8516   -9.9144   16.7072 C   0  0  0  0  0  0  0  0  0  0  0  0
   17.2861  -11.2244   16.9291 C   0  0  0  0  0  0  0  0  0  0  0  0
   17.9342  -11.9362   15.9164 C   0  0  0  0  0  0  0  0  0  0  0  0
   16.1877   -9.2183   17.7709 N   0  0  0  0  0  0  0  0  0  0  0  0
   15.3327   -8.0701   17.6503 C   0  0  0  0  0  0  0  0  0  0  0  0
   15.0896   -7.5774   16.5158 O   0  0  0  0  0  0  0  0  0  0  0  0
   16.3335   -9.5642   18.6811 H   0  0  0  0  0  0  0  0  0  0  0  0
   14.7392   -7.4731   18.8711 C   0  0  0  0  0  0  0  0  0  0  0  0
   15.5181   -7.4250   20.0380 C   0  0  0  0  0  0  0  0  0  0  0  0
   15.0136   -6.8740   21.2168 C   0  0  0  0  0  0  0  0  0  0  0  0
   13.7181   -6.3609   21.2462 C   0  0  0  0  0  0  0  0  0  0  0  0
   12.9284   -6.3993   20.0969 C   0  0  0  0  0  0  0  0  0  0  0  0
   13.4227   -6.9514   18.9022 C   0  0  0  0  0  0  0  0  0  0  0  0
   12.6204   -6.9849   17.7548 O   0  0  0  0  0  0  0  0  0  0  0  0
   11.2228   -7.2410   17.7950 C   0  0  0  0  0  0  0  0  0  0  0  0
   17.9260   -9.3579   13.1175 C   0  0  0  0  0  0  0  0  0  0  0  0
   16.9415   -9.8533   12.1672 N   0  0  0  0  0  0  0  0  0  0  0  0
   16.1626  -10.3479   12.5106 H   0  0  0  0  0  0  0  0  0  0  0  0
   17.0566   -9.6527   10.7571 C   0  0  0  0  0  0  0  0  0  0  0  0
   16.1131  -10.2538    9.8945 C   0  0  0  0  0  0  0  0  0  0  0  0
   16.1953  -10.0811    8.5411 N   0  0  0  0  0  0  0  0  0  0  0  0
   17.1983   -9.3225    8.0337 C   0  0  0  0  0  0  0  0  0  0  0  0
   18.1295   -8.7254    8.8297 C   0  0  0  0  0  0  0  0  0  0  0  0
   18.0936   -8.8674   10.2119 C   0  0  0  0  0  0  0  0  0  0  0  0
   19.0046   -8.0343    8.0260 C   0  0  0  0  0  0  0  0  0  0  0  0
   18.5104   -8.2783    6.7409 C   0  0  0  0  0  0  0  0  0  0  0  0
   17.4050   -9.0658    6.7351 N   0  0  0  0  0  0  0  0  0  0  0  0
   16.8804   -9.3748    5.9615 H   0  0  0  0  0  0  0  0  0  0  0  0
   19.1150   -7.7455    5.5151 C   0  0  0  0  0  0  0  0  0  0  0  0
   18.8374   -8.2695    4.4015 O   0  0  0  0  0  0  0  0  0  0  0  0
   19.9938   -6.6630    5.5902 O   0  0  0  0  0  0  0  0  0  0  0  0
   20.8984   -6.3571    4.5398 C   0  0  0  0  0  0  0  0  0  0  0  0
  1  2  1  0  0  0
  2  3  2  0  0  0
  3  4  1  0  0  0
  3 20  1  0  0  0
  4  5  2  0  0  0
  5  6  1  0  0  0
  5  8  1  0  0  0
  6  7  2  0  0  0
  7  2  1  0  0  0
  8  9  1  0  0  0
  9 10  2  0  0  0
  9 12  1  0  0  0
 12 13  2  0  0  0
 13 14  1  0  0  0
 14 15  2  0  0  0
 15 16  1  0  0  0
 16 17  2  0  0  0
 17 18  1  0  0  0
 17 12  1  0  0  0
 18 19  1  0  0  0
 20 21  1  0  0  0
 21 23  1  0  0  0
 23 24  2  0  0  0
 24 25  1  0  0  0
 25 26  2  0  0  0
 26 27  1  0  0  0
 27 28  2  0  0  0
 27 29  1  0  0  0
 28 23  1  0  0  0
 29 30  2  0  0  0
 30 31  1  0  0  0
 30 33  1  0  0  0
 31 26  1  0  0  0
 33 34  2  0  0  0
 33 35  1  0  0  0
 35 36  1  0  0  0
  8 11  1  0  0  0
 21 22  1  0  0  0
 31 32  1  0  0  0
M  END
>  <minimizedAffinity>
-10.92773

>  <minimizedRMSD>
1.22690

$$$$
CHEMBL3582386 PubChem-122179521


 31 34  0  0  0  0  0  0  0  0999 V2000
   17.0404   -9.6947   16.4682 C   0  0  0  0  0  0  0  0  0  0  0  0
   17.4841  -10.9566   16.8767 C   0  0  0  0  0  0  0  0  0  0  0  0
   17.9516  -11.8866   15.9483 C   0  0  0  0  0  0  0  0  0  0  0  0
   17.9819  -11.5662   14.5916 C   0  0  0  0  0  0  0  0  0  0  0  0
   18.4397  -12.4837   13.7029 F   0  0  0  0  0  0  0  0  0  0  0  0
   17.5410  -10.3076   14.1593 C   0  0  0  0  0  0  0  0  0  0  0  0
   17.0680   -9.3683   15.0926 C   0  0  0  0  0  0  0  0  0  0  0  0
   16.6437   -8.1611   14.6441 F   0  0  0  0  0  0  0  0  0  0  0  0
   16.5760   -8.7983   17.4889 N   0  0  0  0  0  0  0  0  0  0  0  0
   17.2433   -8.5097   18.1527 H   0  0  0  0  0  0  0  0  0  0  0  0
   13.9608   -9.2165   17.3239 O   0  0  0  0  0  0  0  0  0  0  0  0
   14.9729   -8.1660   17.6856 S   0  0  0  0  0  0  0  0  0  0  0  0
   14.8006   -6.9495   16.8195 O   0  0  0  0  0  0  0  0  0  0  0  0
   14.7469   -7.7085   19.3620 C   0  0  0  0  0  0  0  0  0  0  0  0
   13.4788   -7.7924   19.9446 C   0  0  0  0  0  0  0  0  0  0  0  0
   13.3164   -7.4253   21.2815 C   0  0  0  0  0  0  0  0  0  0  0  0
   14.4157   -6.9815   22.0190 C   0  0  0  0  0  0  0  0  0  0  0  0
   15.6670   -6.9121   21.4024 C   0  0  0  0  0  0  0  0  0  0  0  0
   15.8058   -7.2740   20.0984 N   0  0  0  0  0  0  0  0  0  0  0  0
   17.5723   -9.9793   12.7563 C   0  0  0  0  0  0  0  0  0  0  0  0
   17.5983   -9.7034   11.5829 C   0  0  0  0  0  0  0  0  0  0  0  0
   17.6295   -9.3738   10.1867 C   0  0  0  0  0  0  0  0  0  0  0  0
   16.6713   -9.9292    9.3060 C   0  0  0  0  0  0  0  0  0  0  0  0
   16.6903   -9.6219    7.9731 N   0  0  0  0  0  0  0  0  0  0  0  0
   17.6457   -8.7752    7.5165 C   0  0  0  0  0  0  0  0  0  0  0  0
   17.8159   -8.3646    6.2542 N   0  0  0  0  0  0  0  0  0  0  0  0
   18.8662   -7.5469    6.2644 N   0  0  0  0  0  0  0  0  0  0  0  0
   19.3662   -7.4334    7.5234 C   0  0  0  0  0  0  0  0  0  0  0  0
   18.5815   -8.2234    8.3304 C   0  0  0  0  0  0  0  0  0  0  0  0
   18.6135   -8.4970    9.6922 C   0  0  0  0  0  0  0  0  0  0  0  0
   17.2722   -8.6171    5.4732 H   0  0  0  0  0  0  0  0  0  0  0  0
 11 12  2  0  0  0
 12 13  2  0  0  0
 12  9  1  0  0  0
  9  1  1  0  0  0
  1  2  2  0  0  0
  2  3  1  0  0  0
  3  4  2  0  0  0
  4  5  1  0  0  0
  4  6  1  0  0  0
  6 20  1  0  0  0
 20 21  3  0  0  0
 21 22  1  0  0  0
 22 23  2  0  0  0
 23 24  1  0  0  0
 24 25  2  0  0  0
 25 26  1  0  0  0
 26 27  1  0  0  0
 27 28  2  0  0  0
 28 29  1  0  0  0
 29 30  2  0  0  0
  6  7  2  0  0  0
  7  8  1  0  0  0
 12 14  1  0  0  0
 14 15  2  0  0  0
 15 16  1  0  0  0
 16 17  2  0  0  0
 17 18  1  0  0  0
 18 19  2  0  0  0
  7  1  1  0  0  0
 19 14  1  0  0  0
 30 22  1  0  0  0
 29 25  1  0  0  0
  9 10  1  0  0  0
 26 31  1  0  0  0
M  END
>  <minimizedAffinity>
-9.67203

>  <minimizedRMSD>
1.22808

$$$$
CHEMBL2336039 PubChem-71624793 ZINC000095592019


 30 33  0  0  0  0  0  0  0  0999 V2000
   16.4269   -9.2645   16.4030 C   0  0  0  0  0  0  0  0  0  0  0  0
   17.0917  -10.3422   17.0030 C   0  0  0  0  0  0  0  0  0  0  0  0
   17.8601  -11.2171   16.2313 C   0  0  0  0  0  0  0  0  0  0  0  0
   17.9740  -11.0264   14.8513 C   0  0  0  0  0  0  0  0  0  0  0  0
   18.8045  -11.9838   14.0636 C   0  0  0  0  0  0  0  0  0  0  0  0
   17.3094   -9.9461   14.2397 C   0  0  0  0  0  0  0  0  0  0  0  0
   16.5419   -9.0743   15.0189 C   0  0  0  0  0  0  0  0  0  0  0  0
   15.5610   -8.5164   18.6428 N   0  0  0  0  0  0  0  0  0  0  0  0
   15.6165   -8.3424   17.2182 C   0  0  0  0  0  0  0  0  0  0  0  0
   14.9793   -7.4088   16.6586 O   0  0  0  0  0  0  0  0  0  0  0  0
   16.0851   -9.2642   19.0109 H   0  0  0  0  0  0  0  0  0  0  0  0
   15.5102   -6.9357   20.5582 C   0  0  0  0  0  0  0  0  0  0  0  0
   14.7635   -6.1778   21.4687 C   0  0  0  0  0  0  0  0  0  0  0  0
   13.3689   -6.1879   21.4404 C   0  0  0  0  0  0  0  0  0  0  0  0
   12.6989   -6.9609   20.4950 C   0  0  0  0  0  0  0  0  0  0  0  0
   13.4248   -7.7227   19.5797 C   0  0  0  0  0  0  0  0  0  0  0  0
   14.8291   -7.7253   19.5926 C   0  0  0  0  0  0  0  0  0  0  0  0
   17.6150   -6.3706   21.8022 C   0  0  0  0  0  0  0  0  0  0  0  0
   16.9078   -6.8565   20.6704 O   0  0  0  0  0  0  0  0  0  0  0  0
   17.3981   -9.7108   12.8215 C   0  0  0  0  0  0  0  0  0  0  0  0
   17.4726   -9.5145   11.6341 C   0  0  0  0  0  0  0  0  0  0  0  0
   17.5616   -9.2816   10.2210 C   0  0  0  0  0  0  0  0  0  0  0  0
   16.6514   -9.8922    9.3361 C   0  0  0  0  0  0  0  0  0  0  0  0
   16.7379   -9.6696    7.9915 N   0  0  0  0  0  0  0  0  0  0  0  0
   17.7155   -8.8514    7.5306 C   0  0  0  0  0  0  0  0  0  0  0  0
   17.9746   -8.4983    6.2261 C   0  0  0  0  0  0  0  0  0  0  0  0
   19.0806   -7.6487    6.3638 C   0  0  0  0  0  0  0  0  0  0  0  0
   19.4285   -7.5269    7.6692 N   0  0  0  0  0  0  0  0  0  0  0  0
   18.5839   -8.2671    8.3565 N   0  0  0  0  0  0  0  0  0  0  0  0
   18.5558   -8.4435    9.6987 C   0  0  0  0  0  0  0  0  0  0  0  0
 18 19  1  0  0  0
 19 12  1  0  0  0
 12 13  2  0  0  0
 13 14  1  0  0  0
 14 15  2  0  0  0
 15 16  1  0  0  0
 16 17  2  0  0  0
 17  8  1  0  0  0
 17 12  1  0  0  0
  8  9  1  0  0  0
  9 10  2  0  0  0
  9  1  1  0  0  0
  1  2  2  0  0  0
  2  3  1  0  0  0
  3  4  2  0  0  0
  4  5  1  0  0  0
  4  6  1  0  0  0
  6 20  1  0  0  0
  6  7  2  0  0  0
 20 21  3  0  0  0
 21 22  1  0  0  0
 22 23  1  0  0  0
 23 24  2  0  0  0
 24 25  1  0  0  0
 25 26  2  0  0  0
 26 27  1  0  0  0
 27 28  2  0  0  0
 28 29  1  0  0  0
 29 30  1  0  0  0
 29 25  1  0  0  0
 30 22  2  0  0  0
  7  1  1  0  0  0
  8 11  1  0  0  0
M  END
>  <minimizedAffinity>
-10.81494

>  <minimizedRMSD>
1.23107

$$$$
CHEMBL1731153 8607130 ChemDiv-G357-2021 MCULE-1359328681 MolPort-007-847-744 PubChem-16027479 ZINC000008607130


 34 37  0  0  0  0  0  0  0  0999 V2000
   17.8861  -10.6405   14.6424 C   0  0  0  0  0  0  0  0  0  0  0  0
   17.7844  -11.3068   15.8715 C   0  0  0  0  0  0  0  0  0  0  0  0
   17.2748  -10.6458   16.9928 C   0  0  0  0  0  0  0  0  0  0  0  0
   16.8611   -9.3127   16.9019 C   0  0  0  0  0  0  0  0  0  0  0  0
   16.9639   -8.6451   15.6722 C   0  0  0  0  0  0  0  0  0  0  0  0
   17.4729   -9.3048   14.5505 C   0  0  0  0  0  0  0  0  0  0  0  0
   16.3474   -8.6677   18.0752 N   0  0  0  0  0  0  0  0  0  0  0  0
   15.1993   -7.8125   18.1495 C   0  0  0  0  0  0  0  0  0  0  0  0
   14.4930   -7.5748   17.1344 O   0  0  0  0  0  0  0  0  0  0  0  0
   16.8331   -8.8288   18.9162 H   0  0  0  0  0  0  0  0  0  0  0  0
   14.8120   -7.2261   19.4588 C   0  0  0  0  0  0  0  0  0  0  0  0
   13.4287   -7.4500   19.6909 O   0  0  0  0  0  0  0  0  0  0  0  0
   12.5517   -6.5490   20.3164 C   0  0  0  0  0  0  0  0  0  0  0  0
   11.5038   -6.0466   19.5341 C   0  0  0  0  0  0  0  0  0  0  0  0
   10.5766   -5.1469   20.0638 C   0  0  0  0  0  0  0  0  0  0  0  0
   10.6884   -4.7329   21.3903 C   0  0  0  0  0  0  0  0  0  0  0  0
   11.7286   -5.2167   22.1854 C   0  0  0  0  0  0  0  0  0  0  0  0
   12.6640   -6.1189   21.6667 C   0  0  0  0  0  0  0  0  0  0  0  0
   13.7497   -6.5674   22.5840 C   0  0  0  0  0  0  0  0  0  0  0  0
   18.4248  -11.3291   13.4589 C   0  0  0  0  0  0  0  0  0  0  0  0
   18.8006  -12.5311   13.5431 O   0  0  0  0  0  0  0  0  0  0  0  0
   18.5190  -10.6453   12.2448 O   0  0  0  0  0  0  0  0  0  0  0  0
   17.4878   -9.7847   11.7844 C   0  0  0  0  0  0  0  0  0  0  0  0
   18.0636   -8.8505    7.7103 N   0  0  0  0  0  0  0  0  0  0  0  0
   18.3892   -8.4303    6.4588 C   0  0  0  0  0  0  0  0  0  0  0  0
   19.4707   -7.5522    6.4493 C   0  0  0  0  0  0  0  0  0  0  0  0
   20.0263   -7.2961    8.0270 S   0  0  0  0  0  0  0  0  0  0  0  0
   18.8614   -8.3213    8.6651 C   0  0  0  0  0  0  0  0  0  0  0  0
   18.6962   -8.6188    9.9770 N   0  0  0  0  0  0  0  0  0  0  0  0
   17.7037   -9.4766   10.3458 C   0  0  0  0  0  0  0  0  0  0  0  0
   16.8533  -10.0344    9.3788 C   0  0  0  0  0  0  0  0  0  0  0  0
   17.0552   -9.7055    8.0341 C   0  0  0  0  0  0  0  0  0  0  0  0
   16.3075  -10.1944    7.1452 O   0  0  0  0  0  0  0  0  0  0  0  0
   20.0533   -6.9297    5.2321 C   0  0  0  0  0  0  0  0  0  0  0  0
 24 25  1  0  0  0
 25 26  2  0  0  0
 26 27  1  0  0  0
 27 28  1  0  0  0
 28 29  2  0  0  0
 29 30  1  0  0  0
 30 23  1  0  0  0
 23 22  1  0  0  0
 22 20  1  0  0  0
 20 21  2  0  0  0
 20  1  1  0  0  0
  1  2  2  0  0  0
  2  3  1  0  0  0
  3  4  2  0  0  0
  4  5  1  0  0  0
  5  6  2  0  0  0
  4  7  1  0  0  0
  7  8  1  0  0  0
  8 11  1  0  0  0
 11 12  1  0  0  0
 12 13  1  0  0  0
 13 14  2  0  0  0
 14 15  1  0  0  0
 15 16  2  0  0  0
 16 17  1  0  0  0
 17 18  2  0  0  0
 18 19  1  0  0  0
  8  9  2  0  0  0
 30 31  2  0  0  0
 31 32  1  0  0  0
 32 33  2  0  0  0
 26 34  1  0  0  0
 28 24  1  0  0  0
  6  1  1  0  0  0
 18 13  1  0  0  0
 32 24  1  0  0  0
  7 10  1  0  0  0
M  END
>  <minimizedAffinity>
-8.91575

>  <minimizedRMSD>
1.23208

$$$$
CHEMBL5279733


 29 33  0  0  0  0  0  0  0  0999 V2000
   17.8515  -10.8274   13.5429 C   0  0  0  0  0  0  0  0  0  0  0  0
   17.2064   -9.8696   12.5300 C   0  0  0  0  0  0  0  0  0  0  0  0
   18.1433   -9.5063   11.4622 N   0  0  0  0  0  0  0  0  0  0  0  0
   19.4919   -9.0331   11.8036 C   0  0  0  0  0  0  0  0  0  0  0  0
   19.8176   -9.2304   13.2830 C   0  0  0  0  0  0  0  0  0  0  0  0
   19.3776  -10.6231   13.7082 C   0  0  0  0  0  0  0  0  0  0  0  0
   19.9138  -10.9722   15.0876 C   0  0  0  0  0  0  0  0  0  0  0  0
   17.6776   -9.4670   10.0973 C   0  0  0  0  0  0  0  0  0  0  0  0
   18.2348   -8.6484    9.1599 N   0  0  0  0  0  0  0  0  0  0  0  0
   17.8177   -8.6059    7.8946 C   0  0  0  0  0  0  0  0  0  0  0  0
   16.8010   -9.3841    7.4522 N   0  0  0  0  0  0  0  0  0  0  0  0
   16.1944  -10.2316    8.3325 C   0  0  0  0  0  0  0  0  0  0  0  0
   16.6209  -10.2947    9.6725 C   0  0  0  0  0  0  0  0  0  0  0  0
   15.0781  -11.0983    7.8736 C   0  0  0  0  0  0  0  0  0  0  0  0
   18.5261   -7.7459    7.1462 N   0  0  0  0  0  0  0  0  0  0  0  0
   19.4169   -7.2651    8.0548 C   0  0  0  0  0  0  0  0  0  0  0  0
   19.2479   -7.8139    9.2839 N   0  0  0  0  0  0  0  0  0  0  0  0
   17.1109  -10.8252   14.8084 N   0  0  0  0  0  0  0  0  0  0  0  0
   17.0767  -12.0902   15.5266 C   0  0  0  0  0  0  0  0  0  0  0  0
   16.4123   -9.6539   15.2955 C   0  0  0  0  0  0  0  0  0  0  0  0
   16.3443   -9.3142   16.6548 C   0  0  0  0  0  0  0  0  0  0  0  0
   15.6776   -8.1939   17.0440 C   0  0  0  0  0  0  0  0  0  0  0  0
   15.7190   -8.0137   18.3705 N   0  0  0  0  0  0  0  0  0  0  0  0
   16.4432   -9.0637   18.8294 C   0  0  0  0  0  0  0  0  0  0  0  0
   16.8567   -9.9015   17.7912 C   0  0  0  0  0  0  0  0  0  0  0  0
   15.0644   -7.3743   16.1580 N   0  0  0  0  0  0  0  0  0  0  0  0
   15.1234   -7.6902   14.8327 C   0  0  0  0  0  0  0  0  0  0  0  0
   15.7886   -8.8111   14.4164 N   0  0  0  0  0  0  0  0  0  0  0  0
   15.3150   -7.2841   18.8936 H   0  0  0  0  0  0  0  0  0  0  0  0
 20 21  1  0  0  0
 21 22  2  0  0  0
 22 23  1  0  0  0
 23 24  1  0  0  0
 24 25  2  0  0  0
 22 26  1  0  0  0
 26 27  2  0  0  0
 27 28  1  0  0  0
 20 18  1  0  0  0
  1 18  1  0  0  0
  1  2  1  0  0  0
  2  3  1  0  0  0
  3  8  1  0  0  0
  8  9  1  0  0  0
  9 10  1  0  0  0
 10 11  1  0  0  0
 11 12  2  0  0  0
 12 13  1  0  0  0
 12 14  1  0  0  0
 10 15  2  0  0  0
 15 16  1  0  0  0
 16 17  2  0  0  0
  3  4  1  0  0  0
  4  5  1  0  0  0
  5  6  1  0  0  0
  6  7  1  0  0  0
 18 19  1  0  0  0
 28 20  2  0  0  0
  6  1  1  0  0  0
 25 21  1  0  0  0
 13  8  2  0  0  0
 17  9  1  0  0  0
 23 29  1  0  0  0
M  END
>  <minimizedAffinity>
7.70531

>  <minimizedRMSD>
1.23537

$$$$
CHEMBL1172718 PubChem-24826800 PubChem-88996409


 37 41  0  0  0  0  0  0  0  0999 V2000
   15.6156   -8.2630   17.1200 C   0  0  0  0  0  0  0  0  0  0  0  0
   14.8978   -7.3816   16.5743 O   0  0  0  0  0  0  0  0  0  0  0  0
   15.6155   -8.4249   18.5462 N   0  0  0  0  0  0  0  0  0  0  0  0
   16.1261   -9.1873   18.9028 H   0  0  0  0  0  0  0  0  0  0  0  0
   19.0024  -11.6654   13.9060 C   0  0  0  0  0  0  0  0  0  0  0  0
   18.1110  -10.7765   14.7077 C   0  0  0  0  0  0  0  0  0  0  0  0
   18.1662  -10.8559   16.1022 C   0  0  0  0  0  0  0  0  0  0  0  0
   17.3503  -10.0399   16.8877 C   0  0  0  0  0  0  0  0  0  0  0  0
   16.4671   -9.1314   16.2877 C   0  0  0  0  0  0  0  0  0  0  0  0
   16.4163   -9.0482   14.8885 C   0  0  0  0  0  0  0  0  0  0  0  0
   17.2304   -9.8632   14.0950 C   0  0  0  0  0  0  0  0  0  0  0  0
   17.1582   -9.7357   12.6618 C   0  0  0  0  0  0  0  0  0  0  0  0
   17.1020   -9.6485   11.4602 C   0  0  0  0  0  0  0  0  0  0  0  0
   17.0447   -9.5707   10.0264 C   0  0  0  0  0  0  0  0  0  0  0  0
   16.1650  -10.2439    9.1900 C   0  0  0  0  0  0  0  0  0  0  0  0
   16.4491   -9.9120    7.9008 N   0  0  0  0  0  0  0  0  0  0  0  0
   17.4854   -9.0556    7.9992 C   0  0  0  0  0  0  0  0  0  0  0  0
   18.1511   -8.4324    6.9507 C   0  0  0  0  0  0  0  0  0  0  0  0
   19.2120   -7.5779    7.2901 C   0  0  0  0  0  0  0  0  0  0  0  0
   19.5587   -7.3867    8.6420 C   0  0  0  0  0  0  0  0  0  0  0  0
   18.8595   -8.0350    9.6170 N   0  0  0  0  0  0  0  0  0  0  0  0
   17.8582   -8.8372    9.2622 N   0  0  0  0  0  0  0  0  0  0  0  0
   14.9506   -7.5940   19.5061 C   0  0  0  0  0  0  0  0  0  0  0  0
   15.6358   -7.2276   20.6682 C   0  0  0  0  0  0  0  0  0  0  0  0
   15.0263   -6.4059   21.6191 C   0  0  0  0  0  0  0  0  0  0  0  0
   13.7226   -5.9391   21.4172 C   0  0  0  0  0  0  0  0  0  0  0  0
   13.0298   -6.2965   20.2468 C   0  0  0  0  0  0  0  0  0  0  0  0
   11.3955   -5.7324   19.9326 Cl  0  0  0  0  0  0  0  0  0  0  0  0
   13.6452   -7.1226   19.3022 C   0  0  0  0  0  0  0  0  0  0  0  0
   13.1037   -5.0455   22.4440 C   0  0  0  0  0  0  0  0  0  0  0  0
   13.9754   -4.9294   23.6036 N   0  0  0  0  0  0  0  0  0  0  0  0
   14.2492   -3.5055   23.8134 C   0  0  0  0  0  0  0  0  0  0  0  0
   15.0467   -3.2760   25.1086 C   0  0  0  0  0  0  0  0  0  0  0  0
   15.2512   -4.5276   25.8416 N   0  0  0  0  0  0  0  0  0  0  0  0
   15.7849   -4.1685   27.1430 C   0  0  0  0  0  0  0  0  0  0  0  0
   13.9510   -5.1554   26.0769 C   0  0  0  0  0  0  0  0  0  0  0  0
   13.2249   -5.4424   24.7510 C   0  0  0  0  0  0  0  0  0  0  0  0
  5  6  1  0  0  0
  6  7  2  0  0  0
  7  8  1  0  0  0
  8  9  2  0  0  0
  9  1  1  0  0  0
  9 10  1  0  0  0
  1  2  2  0  0  0
  1  3  1  0  0  0
  3 23  1  0  0  0
 23 24  2  0  0  0
 24 25  1  0  0  0
 25 26  2  0  0  0
 26 30  1  0  0  0
 26 27  1  0  0  0
 30 31  1  0  0  0
 31 32  1  0  0  0
 32 33  1  0  0  0
 33 34  1  0  0  0
 34 35  1  0  0  0
 34 36  1  0  0  0
 36 37  1  0  0  0
 37 31  1  0  0  0
 27 28  1  0  0  0
 27 29  2  0  0  0
 29 23  1  0  0  0
 10 11  2  0  0  0
 11 12  1  0  0  0
 11  6  1  0  0  0
 12 13  3  0  0  0
 13 14  1  0  0  0
 14 15  2  0  0  0
 15 16  1  0  0  0
 16 17  2  0  0  0
 17 18  1  0  0  0
 18 19  2  0  0  0
 19 20  1  0  0  0
 20 21  2  0  0  0
 21 22  1  0  0  0
 22 14  1  0  0  0
 22 17  1  0  0  0
  3  4  1  0  0  0
M  END
>  <minimizedAffinity>
-12.37909

>  <minimizedRMSD>
1.23751

$$$$
CHEMBL3808521 PubChem-76903080


 36 39  0  0  0  0  0  0  0  0999 V2000
   18.5818  -11.7127   13.3695 C   0  0  0  0  0  0  0  0  0  0  0  0
   17.9589  -11.0135   14.5301 C   0  0  0  0  0  0  0  0  0  0  0  0
   17.3960   -9.7300   14.4011 C   0  0  0  0  0  0  0  0  0  0  0  0
   16.8125   -9.1162   15.5145 C   0  0  0  0  0  0  0  0  0  0  0  0
   16.7956   -9.7598   16.7601 C   0  0  0  0  0  0  0  0  0  0  0  0
   17.3594  -11.0333   16.8793 C   0  0  0  0  0  0  0  0  0  0  0  0
   17.9386  -11.6569   15.7710 C   0  0  0  0  0  0  0  0  0  0  0  0
   16.1960   -9.1592   17.9157 N   0  0  0  0  0  0  0  0  0  0  0  0
   15.2578   -8.0732   17.9303 C   0  0  0  0  0  0  0  0  0  0  0  0
   14.9726   -7.4589   16.8665 O   0  0  0  0  0  0  0  0  0  0  0  0
   16.4548   -9.5303   18.7901 H   0  0  0  0  0  0  0  0  0  0  0  0
   14.6780   -7.6165   19.2089 C   0  0  0  0  0  0  0  0  0  0  0  0
   15.5602   -7.2426   20.2343 C   0  0  0  0  0  0  0  0  0  0  0  0
   15.0832   -6.9123   21.5034 C   0  0  0  0  0  0  0  0  0  0  0  0
   13.7150   -6.9616   21.7675 C   0  0  0  0  0  0  0  0  0  0  0  0
   12.8219   -7.3138   20.7545 C   0  0  0  0  0  0  0  0  0  0  0  0
   13.2823   -7.6161   19.4678 C   0  0  0  0  0  0  0  0  0  0  0  0
   12.3239   -7.8835   18.4855 O   0  0  0  0  0  0  0  0  0  0  0  0
   11.5034   -6.8660   17.9280 C   0  0  0  0  0  0  0  0  0  0  0  0
   17.3673   -9.0169   13.0901 C   0  0  0  0  0  0  0  0  0  0  0  0
   16.7447   -9.8643   12.0842 N   0  0  0  0  0  0  0  0  0  0  0  0
   16.1672  -10.6035   12.3833 H   0  0  0  0  0  0  0  0  0  0  0  0
   16.9349   -9.6705   10.6814 C   0  0  0  0  0  0  0  0  0  0  0  0
   16.0666  -10.3128    9.7714 C   0  0  0  0  0  0  0  0  0  0  0  0
   16.2191  -10.1445    8.4237 N   0  0  0  0  0  0  0  0  0  0  0  0
   17.2186   -9.3492    7.9684 C   0  0  0  0  0  0  0  0  0  0  0  0
   18.0783   -8.7111    8.8113 C   0  0  0  0  0  0  0  0  0  0  0  0
   17.9689   -8.8466   10.1902 C   0  0  0  0  0  0  0  0  0  0  0  0
   18.9693   -7.9892    8.0534 C   0  0  0  0  0  0  0  0  0  0  0  0
   18.5600   -8.2612    6.7434 C   0  0  0  0  0  0  0  0  0  0  0  0
   17.4895   -9.0927    6.6817 N   0  0  0  0  0  0  0  0  0  0  0  0
   17.0231   -9.4276    5.8820 H   0  0  0  0  0  0  0  0  0  0  0  0
   19.2072   -7.7151    5.5453 C   0  0  0  0  0  0  0  0  0  0  0  0
   19.9781   -6.7208    5.6428 O   0  0  0  0  0  0  0  0  0  0  0  0
   18.9643   -8.3049    4.3037 O   0  0  0  0  0  0  0  0  0  0  0  0
   19.1823   -7.6072    3.0868 C   0  0  0  0  0  0  0  0  0  0  0  0
  1  2  1  0  0  0
  2  3  2  0  0  0
  3  4  1  0  0  0
  3 20  1  0  0  0
  4  5  2  0  0  0
  5  6  1  0  0  0
  5  8  1  0  0  0
  6  7  2  0  0  0
  7  2  1  0  0  0
  8  9  1  0  0  0
  9 10  2  0  0  0
  9 12  1  0  0  0
 12 13  2  0  0  0
 13 14  1  0  0  0
 14 15  2  0  0  0
 15 16  1  0  0  0
 16 17  2  0  0  0
 17 18  1  0  0  0
 17 12  1  0  0  0
 18 19  1  0  0  0
 20 21  1  0  0  0
 21 23  1  0  0  0
 23 24  2  0  0  0
 24 25  1  0  0  0
 25 26  2  0  0  0
 26 27  1  0  0  0
 27 28  2  0  0  0
 27 29  1  0  0  0
 28 23  1  0  0  0
 29 30  2  0  0  0
 30 31  1  0  0  0
 30 33  1  0  0  0
 31 26  1  0  0  0
 33 34  2  0  0  0
 33 35  1  0  0  0
 35 36  1  0  0  0
  8 11  1  0  0  0
 21 22  1  0  0  0
 31 32  1  0  0  0
M  END
>  <minimizedAffinity>
-10.86085

>  <minimizedRMSD>
1.24194

$$$$
CHEMBL1315554 8603856 ChemDiv-C679-5970 MCULE-4082113692 MolPort-007-656-194 PubChem-16009633 ZINC000008603856


 34 38  0  0  0  0  0  0  0  0999 V2000
   17.0154   -9.6229   14.2893 C   0  0  0  0  0  0  0  0  0  0  0  0
   17.8443  -10.7373   14.4926 C   0  0  0  0  0  0  0  0  0  0  0  0
   18.1058  -11.1921   15.7873 C   0  0  0  0  0  0  0  0  0  0  0  0
   17.5415  -10.5370   16.8850 C   0  0  0  0  0  0  0  0  0  0  0  0
   16.7135   -9.4255   16.6975 C   0  0  0  0  0  0  0  0  0  0  0  0
   16.4551   -8.9743   15.3943 C   0  0  0  0  0  0  0  0  0  0  0  0
   16.1538   -8.7806   17.8495 N   0  0  0  0  0  0  0  0  0  0  0  0
   15.0449   -7.8684   17.8731 C   0  0  0  0  0  0  0  0  0  0  0  0
   14.4460   -7.5580   16.8075 O   0  0  0  0  0  0  0  0  0  0  0  0
   16.5742   -8.9848   18.7160 H   0  0  0  0  0  0  0  0  0  0  0  0
   14.6022   -7.2913   19.1547 C   0  0  0  0  0  0  0  0  0  0  0  0
   13.3614   -6.6455   19.2526 C   0  0  0  0  0  0  0  0  0  0  0  0
   12.9433   -6.0993   20.4689 C   0  0  0  0  0  0  0  0  0  0  0  0
   13.7624   -6.1946   21.5967 C   0  0  0  0  0  0  0  0  0  0  0  0
   15.0027   -6.8352   21.5164 C   0  0  0  0  0  0  0  0  0  0  0  0
   15.4178   -7.3824   20.2913 C   0  0  0  0  0  0  0  0  0  0  0  0
   15.7995   -6.9141   22.6618 O   0  0  0  0  0  0  0  0  0  0  0  0
   15.2939   -7.3379   23.9206 C   0  0  0  0  0  0  0  0  0  0  0  0
   16.7338   -9.1420   13.0082 O   0  0  0  0  0  0  0  0  0  0  0  0
   16.1027   -9.9355   12.0120 C   0  0  0  0  0  0  0  0  0  0  0  0
   17.8041   -9.0624    8.2424 N   0  0  0  0  0  0  0  0  0  0  0  0
   18.4925   -8.6349    7.1416 C   0  0  0  0  0  0  0  0  0  0  0  0
   18.2142   -9.0730    5.7300 C   0  0  0  0  0  0  0  0  0  0  0  0
   18.7829   -8.0667    4.7261 C   0  0  0  0  0  0  0  0  0  0  0  0
   20.2551   -7.7839    5.0338 C   0  0  0  0  0  0  0  0  0  0  0  0
   20.4249   -7.1234    6.4077 C   0  0  0  0  0  0  0  0  0  0  0  0
   19.5475   -7.7703    7.4359 C   0  0  0  0  0  0  0  0  0  0  0  0
   19.6032   -7.4926    9.0995 S   0  0  0  0  0  0  0  0  0  0  0  0
   18.2991   -8.5169    9.3809 C   0  0  0  0  0  0  0  0  0  0  0  0
   17.7670   -8.7937   10.5963 N   0  0  0  0  0  0  0  0  0  0  0  0
   16.7111   -9.6475   10.6864 C   0  0  0  0  0  0  0  0  0  0  0  0
   16.1677  -10.2229    9.5301 C   0  0  0  0  0  0  0  0  0  0  0  0
   16.7379   -9.9167    8.2903 C   0  0  0  0  0  0  0  0  0  0  0  0
   16.2591  -10.4293    7.2438 O   0  0  0  0  0  0  0  0  0  0  0  0
 21 22  1  0  0  0
 22 23  1  0  0  0
 23 24  1  0  0  0
 24 25  1  0  0  0
 25 26  1  0  0  0
 26 27  1  0  0  0
 27 28  1  0  0  0
 28 29  1  0  0  0
 29 30  2  0  0  0
 30 31  1  0  0  0
 31 20  1  0  0  0
 20 19  1  0  0  0
 19  1  1  0  0  0
  1  2  2  0  0  0
  2  3  1  0  0  0
  3  4  2  0  0  0
  4  5  1  0  0  0
  5  6  2  0  0  0
  5  7  1  0  0  0
  7  8  1  0  0  0
  8  9  2  0  0  0
  8 11  1  0  0  0
 11 12  2  0  0  0
 12 13  1  0  0  0
 13 14  2  0  0  0
 14 15  1  0  0  0
 15 17  1  0  0  0
 17 18  1  0  0  0
 15 16  2  0  0  0
 31 32  2  0  0  0
 32 33  1  0  0  0
 33 34  2  0  0  0
 29 21  1  0  0  0
  6  1  1  0  0  0
 16 11  1  0  0  0
 33 21  1  0  0  0
 27 22  2  0  0  0
  7 10  1  0  0  0
M  END
>  <minimizedAffinity>
-8.73501

>  <minimizedRMSD>
1.24640

$$$$
CHEMBL1172718 PubChem-24826800 PubChem-88996409


 37 41  0  0  0  0  0  0  0  0999 V2000
   15.6864   -8.3756   17.0531 C   0  0  0  0  0  0  0  0  0  0  0  0
   14.9854   -7.4752   16.5158 O   0  0  0  0  0  0  0  0  0  0  0  0
   15.6557   -8.5750   18.4748 N   0  0  0  0  0  0  0  0  0  0  0  0
   16.2257   -9.2945   18.8307 H   0  0  0  0  0  0  0  0  0  0  0  0
   19.0692  -11.7492   13.8052 C   0  0  0  0  0  0  0  0  0  0  0  0
   18.1833  -10.8645   14.6171 C   0  0  0  0  0  0  0  0  0  0  0  0
   18.2308  -10.9659   16.0104 C   0  0  0  0  0  0  0  0  0  0  0  0
   17.4169  -10.1547   16.8047 C   0  0  0  0  0  0  0  0  0  0  0  0
   16.5446   -9.2308   16.2144 C   0  0  0  0  0  0  0  0  0  0  0  0
   16.4977   -9.1301   14.8169 C   0  0  0  0  0  0  0  0  0  0  0  0
   17.3093   -9.9391   14.0151 C   0  0  0  0  0  0  0  0  0  0  0  0
   17.2258   -9.8013   12.5839 C   0  0  0  0  0  0  0  0  0  0  0  0
   17.1563   -9.6878   11.3858 C   0  0  0  0  0  0  0  0  0  0  0  0
   17.0759   -9.5546    9.9570 C   0  0  0  0  0  0  0  0  0  0  0  0
   16.1519  -10.1639    9.1192 C   0  0  0  0  0  0  0  0  0  0  0  0
   16.4124   -9.7893    7.8367 N   0  0  0  0  0  0  0  0  0  0  0  0
   17.4789   -8.9710    7.9405 C   0  0  0  0  0  0  0  0  0  0  0  0
   18.1330   -8.3230    6.8997 C   0  0  0  0  0  0  0  0  0  0  0  0
   19.2287   -7.5149    7.2429 C   0  0  0  0  0  0  0  0  0  0  0  0
   19.6189   -7.3908    8.5910 C   0  0  0  0  0  0  0  0  0  0  0  0
   18.9275   -8.0583    9.5586 N   0  0  0  0  0  0  0  0  0  0  0  0
   17.8931   -8.8162    9.2006 N   0  0  0  0  0  0  0  0  0  0  0  0
   14.8828   -7.8371   19.4311 C   0  0  0  0  0  0  0  0  0  0  0  0
   13.9240   -6.8920   19.0413 C   0  0  0  0  0  0  0  0  0  0  0  0
   13.1916   -6.1919   20.0021 C   0  0  0  0  0  0  0  0  0  0  0  0
   13.4098   -6.4222   21.3655 C   0  0  0  0  0  0  0  0  0  0  0  0
   14.3630   -7.3794   21.7609 C   0  0  0  0  0  0  0  0  0  0  0  0
   14.6555   -7.7463   23.4544 Cl  0  0  0  0  0  0  0  0  0  0  0  0
   15.0923   -8.0760   20.7924 C   0  0  0  0  0  0  0  0  0  0  0  0
   12.6026   -5.6554   22.3843 C   0  0  0  0  0  0  0  0  0  0  0  0
   13.3843   -4.6986   23.1806 N   0  0  0  0  0  0  0  0  0  0  0  0
   14.8205   -4.9191   22.9651 C   0  0  0  0  0  0  0  0  0  0  0  0
   15.6762   -4.1193   23.9576 C   0  0  0  0  0  0  0  0  0  0  0  0
   14.8681   -3.1159   24.6463 N   0  0  0  0  0  0  0  0  0  0  0  0
   15.7464   -2.4396   25.5827 C   0  0  0  0  0  0  0  0  0  0  0  0
   13.8467   -3.7992   25.4429 C   0  0  0  0  0  0  0  0  0  0  0  0
   13.0465   -4.8076   24.6042 C   0  0  0  0  0  0  0  0  0  0  0  0
  5  6  1  0  0  0
  6  7  2  0  0  0
  7  8  1  0  0  0
  8  9  2  0  0  0
  9  1  1  0  0  0
  9 10  1  0  0  0
  1  2  2  0  0  0
  1  3  1  0  0  0
  3 23  1  0  0  0
 23 24  2  0  0  0
 24 25  1  0  0  0
 25 26  2  0  0  0
 26 30  1  0  0  0
 26 27  1  0  0  0
 30 31  1  0  0  0
 31 32  1  0  0  0
 32 33  1  0  0  0
 33 34  1  0  0  0
 34 35  1  0  0  0
 34 36  1  0  0  0
 36 37  1  0  0  0
 37 31  1  0  0  0
 27 28  1  0  0  0
 27 29  2  0  0  0
 29 23  1  0  0  0
 10 11  2  0  0  0
 11 12  1  0  0  0
 11  6  1  0  0  0
 12 13  3  0  0  0
 13 14  1  0  0  0
 14 15  2  0  0  0
 15 16  1  0  0  0
 16 17  2  0  0  0
 17 18  1  0  0  0
 18 19  2  0  0  0
 19 20  1  0  0  0
 20 21  2  0  0  0
 21 22  1  0  0  0
 22 14  1  0  0  0
 22 17  1  0  0  0
  3  4  1  0  0  0
M  END
>  <minimizedAffinity>
-11.68189

>  <minimizedRMSD>
1.25280

$$$$
CHEMBL5082168 PubChem-156898679


 37 41  0  0  0  0  0  0  0  0999 V2000
   14.6180  -10.0442   14.6250 C   0  0  0  0  0  0  0  0  0  0  0  0
   15.6092   -9.2991   15.1637 C   0  0  0  0  0  0  0  0  0  0  0  0
   16.7086   -8.7415   14.2678 C   0  0  0  0  0  0  0  0  0  0  0  0
   16.6279   -9.1541   12.8636 N   0  0  0  0  0  0  0  0  0  0  0  0
   15.6687   -9.8776   12.3749 C   0  0  0  0  0  0  0  0  0  0  0  0
   14.6242  -10.3397   13.2269 N   0  0  0  0  0  0  0  0  0  0  0  0
   13.8911  -10.8739   12.8442 H   0  0  0  0  0  0  0  0  0  0  0  0
   18.0927   -8.9887   14.8017 C   0  0  0  0  0  0  0  0  0  0  0  0
   18.6039   -8.0723   15.7282 C   0  0  0  0  0  0  0  0  0  0  0  0
   19.8835   -8.2404   16.2620 C   0  0  0  0  0  0  0  0  0  0  0  0
   20.6654   -9.3282   15.8701 C   0  0  0  0  0  0  0  0  0  0  0  0
   20.1688  -10.2468   14.9430 C   0  0  0  0  0  0  0  0  0  0  0  0
   18.8889  -10.0866   14.4026 C   0  0  0  0  0  0  0  0  0  0  0  0
   18.3342  -11.2784   13.2360 Cl  0  0  0  0  0  0  0  0  0  0  0  0
   15.6320   -8.9254   16.6016 C   0  0  0  0  0  0  0  0  0  0  0  0
   16.4144   -9.5310   17.3833 O   0  0  0  0  0  0  0  0  0  0  0  0
   14.7412   -7.9239   17.1098 N   0  0  0  0  0  0  0  0  0  0  0  0
   14.1330   -7.4905   16.4683 H   0  0  0  0  0  0  0  0  0  0  0  0
   14.6661   -7.5044   18.4749 C   0  0  0  0  0  0  0  0  0  0  0  0
   15.6507   -7.6690   19.3811 N   0  0  0  0  0  0  0  0  0  0  0  0
   15.3331   -7.1912   20.5836 N   0  0  0  0  0  0  0  0  0  0  0  0
   14.0971   -6.6408   20.6564 C   0  0  0  0  0  0  0  0  0  0  0  0
   13.3369   -6.7420   19.1530 S   0  0  0  0  0  0  0  0  0  0  0  0
   15.6538  -10.2402   10.9904 N   0  0  0  0  0  0  0  0  0  0  0  0
   15.0221  -10.9413   10.7099 H   0  0  0  0  0  0  0  0  0  0  0  0
   16.4884   -9.6598    9.9834 C   0  0  0  0  0  0  0  0  0  0  0  0
   16.3188   -9.9199    8.6608 N   0  0  0  0  0  0  0  0  0  0  0  0
   17.2993   -9.1838    8.1109 C   0  0  0  0  0  0  0  0  0  0  0  0
   17.6155   -9.0567    6.7607 C   0  0  0  0  0  0  0  0  0  0  0  0
   18.6975   -8.2197    6.4269 C   0  0  0  0  0  0  0  0  0  0  0  0
   19.4220   -7.5436    7.4354 C   0  0  0  0  0  0  0  0  0  0  0  0
   19.0747   -7.6954    8.7910 C   0  0  0  0  0  0  0  0  0  0  0  0
   17.9998   -8.5308    9.0809 C   0  0  0  0  0  0  0  0  0  0  0  0
   17.4887   -8.8324   10.2426 O   0  0  0  0  0  0  0  0  0  0  0  0
   13.4587  -10.5405   15.4284 C   0  0  0  0  0  0  0  0  0  0  0  0
   12.8607  -12.4458   16.3636 C   0  0  0  0  0  0  0  0  0  0  0  0
   13.2251  -11.8850   15.1405 O   0  0  0  0  0  0  0  0  0  0  0  0
 36 37  1  0  0  0
 37 35  1  0  0  0
 35  1  1  0  0  0
  1  2  2  0  0  0
  2  3  1  0  0  0
  3  4  1  0  0  0
  4  5  2  0  0  0
  5  6  1  0  0  0
  5 24  1  0  0  0
 24 26  1  0  0  0
 26 27  2  0  0  0
 27 28  1  0  0  0
 28 29  2  0  0  0
 29 30  1  0  0  0
 30 31  2  0  0  0
 31 32  1  0  0  0
 32 33  2  0  0  0
 33 34  1  0  0  0
  3  8  1  0  0  0
  8  9  2  0  0  0
  9 10  1  0  0  0
 10 11  2  0  0  0
 11 12  1  0  0  0
 12 13  2  0  0  0
 13 14  1  0  0  0
  2 15  1  0  0  0
 15 16  2  0  0  0
 15 17  1  0  0  0
 17 19  1  0  0  0
 19 20  2  0  0  0
 20 21  1  0  0  0
 21 22  2  0  0  0
 22 23  1  0  0  0
  6  1  1  0  0  0
 34 26  1  0  0  0
 33 28  1  0  0  0
 13  8  1  0  0  0
 23 19  1  0  0  0
  6  7  1  0  0  0
 24 25  1  0  0  0
 17 18  1  0  0  0
M  END
>  <minimizedAffinity>
2.78804

>  <minimizedRMSD>
1.25355

$$$$
CHEMBL3693597 PubChem-58293271


 26 29  0  0  0  0  0  0  0  0999 V2000
   16.0741   -9.1216   17.7847 N   0  0  0  0  0  0  0  0  0  0  0  0
   16.7594   -9.0162   16.5323 C   0  0  0  0  0  0  0  0  0  0  0  0
   17.0806   -7.8818   16.0836 O   0  0  0  0  0  0  0  0  0  0  0  0
   17.0865  -10.2039   15.7926 N   0  0  0  0  0  0  0  0  0  0  0  0
   16.7705  -11.5286   16.2880 C   0  0  0  0  0  0  0  0  0  0  0  0
   17.4136  -12.5008   15.3191 C   0  0  0  0  0  0  0  0  0  0  0  0
   17.8344  -11.6880   14.1029 C   0  0  0  0  0  0  0  0  0  0  0  0
   17.7746  -10.2206   14.5086 C   0  0  0  0  0  0  0  0  0  0  0  0
   19.1947   -9.6507   14.6633 C   0  0  0  0  0  0  0  0  0  0  0  0
   19.9136   -9.5315   13.3185 C   0  0  0  0  0  0  0  0  0  0  0  0
   19.0825   -8.6939   12.3550 C   0  0  0  0  0  0  0  0  0  0  0  0
   17.7488   -9.2760   12.2354 N   0  0  0  0  0  0  0  0  0  0  0  0
   16.9743   -9.4286   13.4654 C   0  0  0  0  0  0  0  0  0  0  0  0
   15.8619  -10.0188   18.1301 H   0  0  0  0  0  0  0  0  0  0  0  0
   17.1969   -9.7153   10.9783 C   0  0  0  0  0  0  0  0  0  0  0  0
   16.2213  -10.6745   10.9614 N   0  0  0  0  0  0  0  0  0  0  0  0
   15.6706  -11.1258    9.7926 C   0  0  0  0  0  0  0  0  0  0  0  0
   16.0862  -10.6246    8.5938 N   0  0  0  0  0  0  0  0  0  0  0  0
   17.0514   -9.6750    8.5914 C   0  0  0  0  0  0  0  0  0  0  0  0
   17.5640   -9.0892    7.5015 N   0  0  0  0  0  0  0  0  0  0  0  0
   18.4854   -8.2221    7.9885 C   0  0  0  0  0  0  0  0  0  0  0  0
   18.5510   -8.2640    9.3831 C   0  0  0  0  0  0  0  0  0  0  0  0
   17.6142   -9.2098    9.7390 C   0  0  0  0  0  0  0  0  0  0  0  0
   17.3257   -9.2515    6.5601 H   0  0  0  0  0  0  0  0  0  0  0  0
   14.2768   -7.5219   18.1862 C   0  0  0  0  0  0  0  0  0  0  0  0
   15.6766   -7.9626   18.5710 C   0  0  0  0  0  0  0  0  0  0  0  0
 25 26  1  0  0  0
 26  1  1  0  0  0
  1  2  1  0  0  0
  2  3  2  0  0  0
  2  4  1  0  0  0
  4  5  1  0  0  0
  5  6  1  0  0  0
  6  7  1  0  0  0
  7  8  1  0  0  0
  8  9  1  0  0  0
  9 10  1  0  0  0
 10 11  1  0  0  0
 11 12  1  0  0  0
 12 13  1  0  0  0
 12 15  1  0  0  0
 15 16  2  0  0  0
 16 17  1  0  0  0
 17 18  2  0  0  0
 18 19  1  0  0  0
 19 20  1  0  0  0
 20 21  1  0  0  0
 21 22  2  0  0  0
 22 23  1  0  0  0
  8  4  1  0  0  0
 23 15  1  0  0  0
 13  8  1  0  0  0
 23 19  2  0  0  0
  1 14  1  0  0  0
 20 24  1  0  0  0
M  END
>  <minimizedAffinity>
-0.74708

>  <minimizedRMSD>
1.25393

$$$$
CHEMBL1172720 PubChem-46837263


 32 35  0  0  0  0  0  0  0  0999 V2000
   18.7946  -11.9278   13.9487 C   0  0  0  0  0  0  0  0  0  0  0  0
   17.9695  -10.9644   14.7345 C   0  0  0  0  0  0  0  0  0  0  0  0
   17.9849  -11.0517   16.1295 C   0  0  0  0  0  0  0  0  0  0  0  0
   17.2260  -10.1675   16.9000 C   0  0  0  0  0  0  0  0  0  0  0  0
   16.4413   -9.1839   16.2838 C   0  0  0  0  0  0  0  0  0  0  0  0
   16.4266   -9.0974   14.8846 C   0  0  0  0  0  0  0  0  0  0  0  0
   17.1837   -9.9791   14.1066 C   0  0  0  0  0  0  0  0  0  0  0  0
   15.6412   -8.2516   17.0972 C   0  0  0  0  0  0  0  0  0  0  0  0
   14.9278   -7.3803   16.5291 O   0  0  0  0  0  0  0  0  0  0  0  0
   15.6803   -8.3435   18.5298 N   0  0  0  0  0  0  0  0  0  0  0  0
   16.2557   -9.0459   18.9103 H   0  0  0  0  0  0  0  0  0  0  0  0
   14.9698   -7.5202   19.4645 C   0  0  0  0  0  0  0  0  0  0  0  0
   15.5494   -7.2633   20.7110 C   0  0  0  0  0  0  0  0  0  0  0  0
   14.8914   -6.4586   21.6448 C   0  0  0  0  0  0  0  0  0  0  0  0
   13.6443   -5.9089   21.3379 C   0  0  0  0  0  0  0  0  0  0  0  0
   13.0410   -6.1710   20.1002 C   0  0  0  0  0  0  0  0  0  0  0  0
   13.7178   -6.9638   19.1625 C   0  0  0  0  0  0  0  0  0  0  0  0
   11.7264   -5.5381   19.7481 C   0  0  0  0  0  0  0  0  0  0  0  0
   11.0209   -5.2202   20.8959 F   0  0  0  0  0  0  0  0  0  0  0  0
   10.9617   -6.4050   18.9865 F   0  0  0  0  0  0  0  0  0  0  0  0
   11.9551   -4.3829   19.0240 F   0  0  0  0  0  0  0  0  0  0  0  0
   17.1371   -9.8517   12.6727 C   0  0  0  0  0  0  0  0  0  0  0  0
   17.0977   -9.7456   11.4726 C   0  0  0  0  0  0  0  0  0  0  0  0
   17.0500   -9.6215   10.0413 C   0  0  0  0  0  0  0  0  0  0  0  0
   16.1611  -10.2558    9.1842 C   0  0  0  0  0  0  0  0  0  0  0  0
   16.4426   -9.8786    7.9069 N   0  0  0  0  0  0  0  0  0  0  0  0
   17.4859   -9.0340    8.0329 C   0  0  0  0  0  0  0  0  0  0  0  0
   18.1477   -8.3723    7.0057 C   0  0  0  0  0  0  0  0  0  0  0  0
   19.2145   -7.5360    7.3718 C   0  0  0  0  0  0  0  0  0  0  0  0
   19.5694   -7.3982    8.7282 C   0  0  0  0  0  0  0  0  0  0  0  0
   18.8725   -8.0803    9.6815 N   0  0  0  0  0  0  0  0  0  0  0  0
   17.8662   -8.8652    9.3018 N   0  0  0  0  0  0  0  0  0  0  0  0
  1  2  1  0  0  0
  2  3  2  0  0  0
  3  4  1  0  0  0
  4  5  2  0  0  0
  5  8  1  0  0  0
  5  6  1  0  0  0
  8  9  2  0  0  0
  8 10  1  0  0  0
 10 12  1  0  0  0
 12 13  2  0  0  0
 13 14  1  0  0  0
 14 15  2  0  0  0
 15 16  1  0  0  0
 16 18  1  0  0  0
 16 17  2  0  0  0
 18 19  1  0  0  0
 18 20  1  0  0  0
 18 21  1  0  0  0
 17 12  1  0  0  0
  6  7  2  0  0  0
  7 22  1  0  0  0
  7  2  1  0  0  0
 22 23  3  0  0  0
 23 24  1  0  0  0
 24 25  2  0  0  0
 25 26  1  0  0  0
 26 27  2  0  0  0
 27 28  1  0  0  0
 28 29  2  0  0  0
 29 30  1  0  0  0
 30 31  2  0  0  0
 31 32  1  0  0  0
 32 24  1  0  0  0
 32 27  1  0  0  0
 10 11  1  0  0  0
M  END
>  <minimizedAffinity>
-12.67441

>  <minimizedRMSD>
1.25500

$$$$
CHEMBL1471100 3337277 CSC026413071 MCULE-9374808487 MolPort-004-066-694 PubChem-19392360 PubChem-2453475 Z31241079 ZINC000003337277


 31 34  0  0  0  0  0  0  0  0999 V2000
   17.9633   -9.5461   11.4636 C   0  0  0  0  0  0  0  0  0  0  0  0
   18.3309   -8.9842   10.2347 C   0  0  0  0  0  0  0  0  0  0  0  0
   17.3420   -8.8515    9.2385 C   0  0  0  0  0  0  0  0  0  0  0  0
   17.6698   -8.2948    7.9990 C   0  0  0  0  0  0  0  0  0  0  0  0
   18.9780   -7.8698    7.7476 C   0  0  0  0  0  0  0  0  0  0  0  0
   19.9610   -7.9997    8.7339 C   0  0  0  0  0  0  0  0  0  0  0  0
   19.6399   -8.5555    9.9761 C   0  0  0  0  0  0  0  0  0  0  0  0
   16.0723   -9.2622    9.4858 N   0  0  0  0  0  0  0  0  0  0  0  0
   15.7312   -9.8067   10.6860 C   0  0  0  0  0  0  0  0  0  0  0  0
   16.6765   -9.9441   11.6559 N   0  0  0  0  0  0  0  0  0  0  0  0
   14.3442  -10.2384   10.9392 C   0  0  0  0  0  0  0  0  0  0  0  0
   14.0455  -11.0937   12.0085 C   0  0  0  0  0  0  0  0  0  0  0  0
   12.7634  -11.4852   12.2383 N   0  0  0  0  0  0  0  0  0  0  0  0
   11.7384  -11.0657   11.4490 C   0  0  0  0  0  0  0  0  0  0  0  0
   11.9877  -10.2128   10.3724 C   0  0  0  0  0  0  0  0  0  0  0  0
   13.2966   -9.7996   10.1199 C   0  0  0  0  0  0  0  0  0  0  0  0
   18.9280   -9.6965   12.5121 N   0  0  0  0  0  0  0  0  0  0  0  0
   19.7501   -9.1563   12.4730 H   0  0  0  0  0  0  0  0  0  0  0  0
   18.7516  -10.6104   13.6340 C   0  0  0  0  0  0  0  0  0  0  0  0
   16.2027   -8.8435   16.6014 C   0  0  0  0  0  0  0  0  0  0  0  0
   17.5865   -8.6435   16.6590 C   0  0  0  0  0  0  0  0  0  0  0  0
   18.4194   -9.2228   15.6971 C   0  0  0  0  0  0  0  0  0  0  0  0
   17.8700  -10.0031   14.6733 C   0  0  0  0  0  0  0  0  0  0  0  0
   16.4865  -10.2014   14.6144 C   0  0  0  0  0  0  0  0  0  0  0  0
   15.6541   -9.6218   15.5759 C   0  0  0  0  0  0  0  0  0  0  0  0
   16.1040   -7.5182   19.1198 N   0  0  0  0  0  0  0  0  0  0  0  0
   15.1564   -8.1054   17.7997 S   0  0  0  0  0  0  0  0  0  0  0  0
   14.4043   -6.9640   17.1763 O   0  0  0  0  0  0  0  0  0  0  0  0
   14.1824   -9.1256   18.3184 O   0  0  0  0  0  0  0  0  0  0  0  0
   16.7692   -6.8243   18.7786 H   0  0  0  0  0  0  0  0  0  0  0  0
   16.6106   -8.2940   19.5463 H   0  0  0  0  0  0  0  0  0  0  0  0
 26 27  1  0  0  0
 27 20  1  0  0  0
 20 21  2  0  0  0
 21 22  1  0  0  0
 22 23  2  0  0  0
 23 19  1  0  0  0
 19 17  1  0  0  0
 17  1  1  0  0  0
  1  2  1  0  0  0
  2  3  1  0  0  0
  3  4  2  0  0  0
  4  5  1  0  0  0
  5  6  2  0  0  0
  6  7  1  0  0  0
  3  8  1  0  0  0
  8  9  2  0  0  0
  9 11  1  0  0  0
 11 12  2  0  0  0
 12 13  1  0  0  0
 13 14  2  0  0  0
 14 15  1  0  0  0
 15 16  2  0  0  0
  9 10  1  0  0  0
 23 24  1  0  0  0
 24 25  2  0  0  0
 27 28  2  0  0  0
 27 29  2  0  0  0
 25 20  1  0  0  0
 10  1  2  0  0  0
  7  2  2  0  0  0
 16 11  1  0  0  0
 26 30  1  0  0  0
 26 31  1  0  0  0
 17 18  1  0  0  0
M  END
>  <minimizedAffinity>
1.69598

>  <minimizedRMSD>
1.25545

$$$$
CHEMBL2171202


 27 29  0  0  0  0  0  0  0  0999 V2000
   17.4951   -9.2771   11.9544 O   0  0  0  0  0  0  0  0  0  0  0  0
   17.3218   -9.3926   10.5750 C   0  0  0  0  0  0  0  0  0  0  0  0
   16.3554  -10.1988   10.0374 N   0  0  0  0  0  0  0  0  0  0  0  0
   16.1916  -10.3066    8.6795 C   0  0  0  0  0  0  0  0  0  0  0  0
   16.9984   -9.6039    7.8273 N   0  0  0  0  0  0  0  0  0  0  0  0
   17.9534   -8.8073    8.3647 C   0  0  0  0  0  0  0  0  0  0  0  0
   18.8321   -8.0480    7.6999 N   0  0  0  0  0  0  0  0  0  0  0  0
   19.5415   -7.4702    8.7089 C   0  0  0  0  0  0  0  0  0  0  0  0
   19.1357   -7.8422    9.9550 N   0  0  0  0  0  0  0  0  0  0  0  0
   18.1302   -8.6879    9.6953 C   0  0  0  0  0  0  0  0  0  0  0  0
   15.1770  -11.1538    8.1550 N   0  0  0  0  0  0  0  0  0  0  0  0
   18.9387   -7.9354    6.7277 H   0  0  0  0  0  0  0  0  0  0  0  0
   14.5947  -11.6609    8.7657 H   0  0  0  0  0  0  0  0  0  0  0  0
   15.0569  -11.2333    7.1811 H   0  0  0  0  0  0  0  0  0  0  0  0
   16.4040   -9.0293   12.8287 C   0  0  0  0  0  0  0  0  0  0  0  0
   16.5992   -9.1778   16.6056 C   0  0  0  0  0  0  0  0  0  0  0  0
   16.2483   -8.7808   15.3108 C   0  0  0  0  0  0  0  0  0  0  0  0
   16.7561   -9.4698   14.2046 C   0  0  0  0  0  0  0  0  0  0  0  0
   17.6262  -10.5488   14.3928 C   0  0  0  0  0  0  0  0  0  0  0  0
   17.9760  -10.9482   15.6864 C   0  0  0  0  0  0  0  0  0  0  0  0
   17.4611  -10.2647   16.7923 C   0  0  0  0  0  0  0  0  0  0  0  0
   16.0410   -8.4542   17.7839 C   0  0  0  0  0  0  0  0  0  0  0  0
   13.8355   -7.3951   18.4440 C   0  0  0  0  0  0  0  0  0  0  0  0
   14.0912   -7.5277   19.6702 O   0  0  0  0  0  0  0  0  0  0  0  0
   12.5607   -6.7580   18.0239 C   0  0  0  0  0  0  0  0  0  0  0  0
   14.7541   -7.8574   17.4520 N   0  0  0  0  0  0  0  0  0  0  0  0
   14.5067   -7.7688   16.5032 H   0  0  0  0  0  0  0  0  0  0  0  0
 23 24  2  0  0  0
 23 25  1  0  0  0
 23 26  1  0  0  0
 26 22  1  0  0  0
 22 16  1  0  0  0
 16 17  2  0  0  0
 17 18  1  0  0  0
 18 19  2  0  0  0
 19 20  1  0  0  0
 20 21  2  0  0  0
 18 15  1  0  0  0
 15  1  1  0  0  0
  1  2  1  0  0  0
  2  3  2  0  0  0
  3  4  1  0  0  0
  4  5  2  0  0  0
  5  6  1  0  0  0
  6  7  1  0  0  0
  7  8  1  0  0  0
  8  9  2  0  0  0
  9 10  1  0  0  0
  4 11  1  0  0  0
 21 16  1  0  0  0
 10  2  1  0  0  0
 10  6  2  0  0  0
 26 27  1  0  0  0
  7 12  1  0  0  0
 11 13  1  0  0  0
 11 14  1  0  0  0
M  END
>  <minimizedAffinity>
-4.77585

>  <minimizedRMSD>
1.25744

$$$$
CHEMBL3354839


 37 41  0  0  0  0  0  0  0  0999 V2000
   16.7362  -10.0002   17.1031 C   0  0  0  0  0  0  0  0  0  0  0  0
   16.5066   -9.5679   15.7898 C   0  0  0  0  0  0  0  0  0  0  0  0
   17.0586  -10.2509   14.6961 C   0  0  0  0  0  0  0  0  0  0  0  0
   17.8515  -11.3882   14.9325 C   0  0  0  0  0  0  0  0  0  0  0  0
   18.0822  -11.8217   16.2412 C   0  0  0  0  0  0  0  0  0  0  0  0
   17.5273  -11.1307   17.3204 C   0  0  0  0  0  0  0  0  0  0  0  0
   18.4591  -12.1512   13.8053 C   0  0  0  0  0  0  0  0  0  0  0  0
   15.3022   -8.1817   18.2100 C   0  0  0  0  0  0  0  0  0  0  0  0
   14.9332   -7.6794   17.1135 O   0  0  0  0  0  0  0  0  0  0  0  0
   16.1824   -9.3161   18.2352 N   0  0  0  0  0  0  0  0  0  0  0  0
   16.4320   -9.6603   19.1232 H   0  0  0  0  0  0  0  0  0  0  0  0
   14.8254   -7.5991   19.4767 C   0  0  0  0  0  0  0  0  0  0  0  0
   13.9007   -6.5442   19.4694 C   0  0  0  0  0  0  0  0  0  0  0  0
   13.4436   -5.9862   20.6678 C   0  0  0  0  0  0  0  0  0  0  0  0
   13.9189   -6.4914   21.8884 C   0  0  0  0  0  0  0  0  0  0  0  0
   14.8397   -7.5417   21.9047 C   0  0  0  0  0  0  0  0  0  0  0  0
   15.2911   -8.0933   20.7032 C   0  0  0  0  0  0  0  0  0  0  0  0
   12.5224   -4.9365   20.6173 O   0  0  0  0  0  0  0  0  0  0  0  0
   12.2080   -4.1359   21.7485 C   0  0  0  0  0  0  0  0  0  0  0  0
   16.8265   -9.8180   13.3455 N   0  0  0  0  0  0  0  0  0  0  0  0
   17.0451  -10.4686   12.6397 H   0  0  0  0  0  0  0  0  0  0  0  0
   16.3142   -8.5518   12.8992 C   0  0  0  0  0  0  0  0  0  0  0  0
   16.1703   -8.2895   11.5164 C   0  0  0  0  0  0  0  0  0  0  0  0
   15.7005   -7.0267   11.1277 C   0  0  0  0  0  0  0  0  0  0  0  0
   15.3847   -6.0583   12.0775 C   0  0  0  0  0  0  0  0  0  0  0  0
   15.5402   -6.3589   13.4273 C   0  0  0  0  0  0  0  0  0  0  0  0
   15.9971   -7.5814   13.8025 N   0  0  0  0  0  0  0  0  0  0  0  0
   16.4756   -9.3101   10.4774 C   0  0  0  0  0  0  0  0  0  0  0  0
   15.9556  -10.5734   10.5674 N   0  0  0  0  0  0  0  0  0  0  0  0
   16.2081  -11.5307    9.6193 C   0  0  0  0  0  0  0  0  0  0  0  0
   16.9959  -11.2462    8.5406 N   0  0  0  0  0  0  0  0  0  0  0  0
   17.5109   -9.9984    8.4408 C   0  0  0  0  0  0  0  0  0  0  0  0
   18.3101   -9.5411    7.4696 N   0  0  0  0  0  0  0  0  0  0  0  0
   18.5419   -8.2582    7.8595 C   0  0  0  0  0  0  0  0  0  0  0  0
   17.9226   -7.9155    9.0222 N   0  0  0  0  0  0  0  0  0  0  0  0
   17.2748   -9.0396    9.3618 C   0  0  0  0  0  0  0  0  0  0  0  0
   18.6457  -10.0137    6.6737 H   0  0  0  0  0  0  0  0  0  0  0  0
  8  9  2  0  0  0
  8 12  1  0  0  0
 12 13  2  0  0  0
 13 14  1  0  0  0
 14 15  2  0  0  0
 15 16  1  0  0  0
 16 17  2  0  0  0
 14 18  1  0  0  0
 18 19  1  0  0  0
  8 10  1  0  0  0
 10  1  1  0  0  0
  1  2  2  0  0  0
  2  3  1  0  0  0
  3  4  2  0  0  0
  4  5  1  0  0  0
  5  6  2  0  0  0
  4  7  1  0  0  0
  3 20  1  0  0  0
 20 22  1  0  0  0
 22 23  1  0  0  0
 23 24  2  0  0  0
 24 25  1  0  0  0
 25 26  2  0  0  0
 26 27  1  0  0  0
 23 28  1  0  0  0
 28 29  2  0  0  0
 29 30  1  0  0  0
 30 31  2  0  0  0
 31 32  1  0  0  0
 32 33  1  0  0  0
 33 34  1  0  0  0
 34 35  2  0  0  0
 35 36  1  0  0  0
 17 12  1  0  0  0
  6  1  1  0  0  0
 27 22  2  0  0  0
 36 28  1  0  0  0
 36 32  2  0  0  0
 10 11  1  0  0  0
 20 21  1  0  0  0
 33 37  1  0  0  0
M  END
>  <minimizedAffinity>
6.37787

>  <minimizedRMSD>
1.26136

$$$$
CHEMBL597532 13509082 MolPort-027-640-572 PubChem-16760024 ZINC000013509082


 33 35  0  0  0  0  0  0  0  0999 V2000
   17.4980  -10.2598   12.8947 C   0  0  0  0  0  0  0  0  0  0  0  0
   17.8667  -10.4546   11.5540 O   0  0  0  0  0  0  0  0  0  0  0  0
   16.6667  -10.4577   10.8254 C   0  0  0  0  0  0  0  0  0  0  0  0
   15.6648   -9.5720   11.5318 C   0  0  0  0  0  0  0  0  0  0  0  0
   14.4000  -10.1642   11.4898 O   0  0  0  0  0  0  0  0  0  0  0  0
   16.2042   -9.4703   12.9383 C   0  0  0  0  0  0  0  0  0  0  0  0
   15.3393  -10.0438   13.8750 O   0  0  0  0  0  0  0  0  0  0  0  0
   14.4444  -11.0497   11.8832 H   0  0  0  0  0  0  0  0  0  0  0  0
   15.1915  -10.9758   13.6505 H   0  0  0  0  0  0  0  0  0  0  0  0
   16.9042   -9.9801    9.4689 N   0  0  0  0  0  0  0  0  0  0  0  0
   16.2540  -10.3761    8.3458 C   0  0  0  0  0  0  0  0  0  0  0  0
   16.7140   -9.7459    7.2266 N   0  0  0  0  0  0  0  0  0  0  0  0
   17.6833   -8.9419    7.7023 C   0  0  0  0  0  0  0  0  0  0  0  0
   18.5106   -8.0567    7.0260 C   0  0  0  0  0  0  0  0  0  0  0  0
   18.4163   -7.8799    5.6170 N   0  0  0  0  0  0  0  0  0  0  0  0
   19.4232   -7.3511    7.7583 N   0  0  0  0  0  0  0  0  0  0  0  0
   19.5214   -7.5119    9.1182 C   0  0  0  0  0  0  0  0  0  0  0  0
   18.7014   -8.3883    9.7752 N   0  0  0  0  0  0  0  0  0  0  0  0
   17.7977   -9.0807    9.0399 C   0  0  0  0  0  0  0  0  0  0  0  0
   17.7548   -8.3938    5.0996 H   0  0  0  0  0  0  0  0  0  0  0  0
   19.0124   -7.2438    5.1596 H   0  0  0  0  0  0  0  0  0  0  0  0
   18.6079   -9.5155   13.6195 C   0  0  0  0  0  0  0  0  0  0  0  0
   19.2652  -10.5174   14.9849 S   0  0  0  0  0  0  0  0  0  0  0  0
   19.7572   -9.0378   15.9201 C   0  0  0  0  0  0  0  0  0  0  0  0
   18.6915   -8.6917   16.9476 C   0  0  0  0  0  0  0  0  0  0  0  0
   17.2270  -10.5889   17.3559 N   0  0  0  0  0  0  0  0  0  0  0  0
   17.3635   -9.3539   16.6022 C   0  0  0  0  0  0  0  0  0  0  0  0
   18.0093  -11.2069   17.1404 H   0  0  0  0  0  0  0  0  0  0  0  0
   16.3518  -11.0471   17.1020 H   0  0  0  0  0  0  0  0  0  0  0  0
   16.2184   -8.4443   16.9150 C   0  0  0  0  0  0  0  0  0  0  0  0
   15.8222   -8.2367   18.2314 O   0  0  0  0  0  0  0  0  0  0  0  0
   15.6089   -7.8621   15.9802 O   0  0  0  0  0  0  0  0  0  0  0  0
   16.2735   -8.6683   18.9300 H   0  0  0  0  0  0  0  0  0  0  0  0
 27 26  1  0  0  0
 27 25  1  0  0  0
 27 30  1  0  0  0
 25 24  1  0  0  0
 24 23  1  0  0  0
 23 22  1  0  0  0
  1 22  1  0  0  0
  1  2  1  0  0  0
  2  3  1  0  0  0
  3  4  1  0  0  0
  3 10  1  0  0  0
  4  5  1  0  0  0
  4  6  1  0  0  0
  6  7  1  0  0  0
  6  1  1  0  0  0
 10 11  1  0  0  0
 11 12  2  0  0  0
 12 13  1  0  0  0
 13 14  2  0  0  0
 14 15  1  0  0  0
 14 16  1  0  0  0
 16 17  2  0  0  0
 17 18  1  0  0  0
 18 19  2  0  0  0
 19 10  1  0  0  0
 19 13  1  0  0  0
 30 31  1  0  0  0
 30 32  2  0  0  0
 26 28  1  0  0  0
 26 29  1  0  0  0
  5  8  1  0  0  0
  7  9  1  0  0  0
 15 20  1  0  0  0
 15 21  1  0  0  0
 31 33  1  0  0  0
M  END
>  <minimizedAffinity>
-5.72165

>  <minimizedRMSD>
1.26370

$$$$
CHEMBL3823073 PubChem-127053115


 26 28  0  0  0  0  0  0  0  0999 V2000
   17.9732  -10.5187   11.9384 N   0  0  0  0  0  0  0  0  0  0  0  0
   16.8052  -10.1270   11.2029 C   0  0  0  0  0  0  0  0  0  0  0  0
   15.6796  -10.0617   11.7657 O   0  0  0  0  0  0  0  0  0  0  0  0
   18.8194  -10.5502   11.4363 H   0  0  0  0  0  0  0  0  0  0  0  0
   16.9148   -9.7962    9.7746 C   0  0  0  0  0  0  0  0  0  0  0  0
   16.1040  -10.3034    8.8150 N   0  0  0  0  0  0  0  0  0  0  0  0
   16.4634   -9.8080    7.6336 N   0  0  0  0  0  0  0  0  0  0  0  0
   17.5044   -8.9850    7.8455 C   0  0  0  0  0  0  0  0  0  0  0  0
   17.8198   -8.9486    9.1743 C   0  0  0  0  0  0  0  0  0  0  0  0
   18.8647   -8.1700    9.6687 C   0  0  0  0  0  0  0  0  0  0  0  0
   19.5970   -7.4092    8.7385 C   0  0  0  0  0  0  0  0  0  0  0  0
   19.2713   -7.4462    7.3637 C   0  0  0  0  0  0  0  0  0  0  0  0
   18.2087   -8.2447    6.8998 C   0  0  0  0  0  0  0  0  0  0  0  0
   16.0445  -10.0073    6.7652 H   0  0  0  0  0  0  0  0  0  0  0  0
   18.2577  -12.5003   15.1157 C   0  0  0  0  0  0  0  0  0  0  0  0
   18.1531  -11.4790   16.0634 C   0  0  0  0  0  0  0  0  0  0  0  0
   17.9956  -10.1527   15.6481 C   0  0  0  0  0  0  0  0  0  0  0  0
   17.9346   -9.8524   14.2826 C   0  0  0  0  0  0  0  0  0  0  0  0
   18.0386  -10.8691   13.3272 C   0  0  0  0  0  0  0  0  0  0  0  0
   18.2012  -12.1966   13.7526 C   0  0  0  0  0  0  0  0  0  0  0  0
   17.8656   -9.0642   16.6585 C   0  0  0  0  0  0  0  0  0  0  0  0
   16.4299   -8.7508   16.9098 C   0  0  0  0  0  0  0  0  0  0  0  0
   15.5616   -9.0406   16.0465 O   0  0  0  0  0  0  0  0  0  0  0  0
   16.0359   -8.1556   18.1406 N   0  0  0  0  0  0  0  0  0  0  0  0
   16.7143   -7.9284   18.8169 H   0  0  0  0  0  0  0  0  0  0  0  0
   15.0849   -7.9710   18.3159 H   0  0  0  0  0  0  0  0  0  0  0  0
 15 16  2  0  0  0
 16 17  1  0  0  0
 17 18  2  0  0  0
 18 19  1  0  0  0
 19 20  2  0  0  0
 19  1  1  0  0  0
  1  2  1  0  0  0
  2  3  2  0  0  0
  2  5  1  0  0  0
  5  6  2  0  0  0
  6  7  1  0  0  0
  7  8  1  0  0  0
  8  9  2  0  0  0
  9 10  1  0  0  0
 10 11  2  0  0  0
 11 12  1  0  0  0
 12 13  2  0  0  0
 17 21  1  0  0  0
 21 22  1  0  0  0
 22 23  2  0  0  0
 22 24  1  0  0  0
 20 15  1  0  0  0
  9  5  1  0  0  0
 13  8  1  0  0  0
  1  4  1  0  0  0
  7 14  1  0  0  0
 24 25  1  0  0  0
 24 26  1  0  0  0
M  END
>  <minimizedAffinity>
-9.73423

>  <minimizedRMSD>
1.26745

$$$$
CHEMBL2113973 24658660 CSC026553499 MCULE-5014528181 MolPort-009-539-442 PubChem-31981178 Z367550756 ZINC000024658660


 24 26  0  0  0  0  0  0  0  0999 V2000
   17.1160   -9.0380   15.9327 C   0  0  0  0  0  0  0  0  0  0  0  0
   17.0231   -9.5972   14.6532 C   0  0  0  0  0  0  0  0  0  0  0  0
   18.1739  -10.0503   13.9997 C   0  0  0  0  0  0  0  0  0  0  0  0
   19.4214   -9.9342   14.6220 C   0  0  0  0  0  0  0  0  0  0  0  0
   19.5159   -9.3787   15.9015 C   0  0  0  0  0  0  0  0  0  0  0  0
   18.3641   -8.9330   16.5569 C   0  0  0  0  0  0  0  0  0  0  0  0
   16.0535   -8.0630   18.3880 N   0  0  0  0  0  0  0  0  0  0  0  0
   15.6704   -8.4839   16.7565 S   0  0  0  0  0  0  0  0  0  0  0  0
   14.6378   -9.5750   16.7499 O   0  0  0  0  0  0  0  0  0  0  0  0
   15.1239   -7.2703   16.0586 O   0  0  0  0  0  0  0  0  0  0  0  0
   16.4257   -8.8803   18.8715 H   0  0  0  0  0  0  0  0  0  0  0  0
   15.2101   -7.7415   18.8632 H   0  0  0  0  0  0  0  0  0  0  0  0
   18.0759  -10.6189   12.6287 C   0  0  0  0  0  0  0  0  0  0  0  0
   18.3173   -9.5743   11.6468 N   0  0  0  0  0  0  0  0  0  0  0  0
   18.9827   -8.8769   11.8465 H   0  0  0  0  0  0  0  0  0  0  0  0
   17.6195   -9.5280   10.4015 C   0  0  0  0  0  0  0  0  0  0  0  0
   18.1119   -8.7841    9.3369 C   0  0  0  0  0  0  0  0  0  0  0  0
   17.4318   -8.7463    8.1423 C   0  0  0  0  0  0  0  0  0  0  0  0
   18.0372   -7.9613    7.1583 C   0  0  0  0  0  0  0  0  0  0  0  0
   19.2254   -7.3708    7.6038 C   0  0  0  0  0  0  0  0  0  0  0  0
   19.4898   -7.8428    9.2120 S   0  0  0  0  0  0  0  0  0  0  0  0
   16.2725   -9.4336    7.9860 N   0  0  0  0  0  0  0  0  0  0  0  0
   15.7827  -10.1670    9.0284 C   0  0  0  0  0  0  0  0  0  0  0  0
   16.4516  -10.2109   10.2206 N   0  0  0  0  0  0  0  0  0  0  0  0
  7  8  1  0  0  0
  8  1  1  0  0  0
  1  2  2  0  0  0
  2  3  1  0  0  0
  3 13  1  0  0  0
 13 14  1  0  0  0
 14 16  1  0  0  0
 16 17  1  0  0  0
 17 18  2  0  0  0
 18 19  1  0  0  0
 19 20  2  0  0  0
 20 21  1  0  0  0
 18 22  1  0  0  0
 22 23  2  0  0  0
 23 24  1  0  0  0
  3  4  2  0  0  0
  4  5  1  0  0  0
  5  6  2  0  0  0
  8  9  2  0  0  0
  8 10  2  0  0  0
  6  1  1  0  0  0
 24 16  2  0  0  0
 21 17  1  0  0  0
  7 11  1  0  0  0
  7 12  1  0  0  0
 14 15  1  0  0  0
M  END
>  <minimizedAffinity>
-5.89260

>  <minimizedRMSD>
1.26912

$$$$
CHEMBL3689528 PubChem-58293269


 26 29  0  0  0  0  0  0  0  0999 V2000
   16.8496   -8.7707   16.4218 C   0  0  0  0  0  0  0  0  0  0  0  0
   17.3706   -7.7371   15.9203 O   0  0  0  0  0  0  0  0  0  0  0  0
   16.9911  -10.0434   15.7659 N   0  0  0  0  0  0  0  0  0  0  0  0
   16.3653  -11.2499   16.2714 C   0  0  0  0  0  0  0  0  0  0  0  0
   16.5907  -12.3110   15.2135 C   0  0  0  0  0  0  0  0  0  0  0  0
   17.6296  -11.7505   14.2531 C   0  0  0  0  0  0  0  0  0  0  0  0
   17.7243  -10.2580   14.5247 C   0  0  0  0  0  0  0  0  0  0  0  0
   19.2108   -9.8953   14.7069 C   0  0  0  0  0  0  0  0  0  0  0  0
   19.6418   -8.6980   13.8632 C   0  0  0  0  0  0  0  0  0  0  0  0
   19.3192   -8.9551   12.3932 C   0  0  0  0  0  0  0  0  0  0  0  0
   17.9349   -9.4099   12.2117 N   0  0  0  0  0  0  0  0  0  0  0  0
   17.0485   -9.4939   13.3750 C   0  0  0  0  0  0  0  0  0  0  0  0
   17.4016   -9.7179   10.9072 C   0  0  0  0  0  0  0  0  0  0  0  0
   16.4086  -10.6513   10.7807 N   0  0  0  0  0  0  0  0  0  0  0  0
   15.8752  -10.9816    9.5645 C   0  0  0  0  0  0  0  0  0  0  0  0
   16.3271  -10.3819    8.4258 N   0  0  0  0  0  0  0  0  0  0  0  0
   17.3110   -9.4577    8.5302 C   0  0  0  0  0  0  0  0  0  0  0  0
   17.8635   -8.7911    7.5083 N   0  0  0  0  0  0  0  0  0  0  0  0
   18.7946   -7.9962    8.0903 C   0  0  0  0  0  0  0  0  0  0  0  0
   18.8266   -8.1646    9.4763 C   0  0  0  0  0  0  0  0  0  0  0  0
   17.8574   -9.1115    9.7270 C   0  0  0  0  0  0  0  0  0  0  0  0
   17.6432   -8.8623    6.5514 H   0  0  0  0  0  0  0  0  0  0  0  0
   14.7496   -7.9846   17.4719 C   0  0  0  0  0  0  0  0  0  0  0  0
   16.0871   -8.6603   17.7050 C   0  0  0  0  0  0  0  0  0  0  0  0
   16.8260   -7.9329   18.6381 O   0  0  0  0  0  0  0  0  0  0  0  0
   16.9849   -7.0384   18.2983 H   0  0  0  0  0  0  0  0  0  0  0  0
 23 24  1  0  0  0
 24 25  1  0  0  0
 24  1  1  0  0  0
  1  2  2  0  0  0
  1  3  1  0  0  0
  3  4  1  0  0  0
  4  5  1  0  0  0
  5  6  1  0  0  0
  6  7  1  0  0  0
  7  8  1  0  0  0
  8  9  1  0  0  0
  9 10  1  0  0  0
 10 11  1  0  0  0
 11 12  1  0  0  0
 11 13  1  0  0  0
 13 14  2  0  0  0
 14 15  1  0  0  0
 15 16  2  0  0  0
 16 17  1  0  0  0
 17 18  1  0  0  0
 18 19  1  0  0  0
 19 20  2  0  0  0
 20 21  1  0  0  0
  7  3  1  0  0  0
 21 13  1  0  0  0
 12  7  1  0  0  0
 21 17  2  0  0  0
 25 26  1  0  0  0
 18 22  1  0  0  0
M  END
>  <minimizedAffinity>
2.13485

>  <minimizedRMSD>
1.26963

$$$$
CHEMBL2354714 ChemDiv-G357-0034 MCULE-2340538978 MolPort-007-847-018 PubChem-16027370 ZINC000008606004


 34 37  0  0  0  0  0  0  0  0999 V2000
   17.4688  -10.3070   14.6114 C   0  0  0  0  0  0  0  0  0  0  0  0
   17.6147  -10.9101   15.8684 C   0  0  0  0  0  0  0  0  0  0  0  0
   17.1529  -10.2645   17.0191 C   0  0  0  0  0  0  0  0  0  0  0  0
   16.5401   -9.0106   16.9298 C   0  0  0  0  0  0  0  0  0  0  0  0
   16.3953   -8.4063   15.6721 C   0  0  0  0  0  0  0  0  0  0  0  0
   16.8566   -9.0504   14.5211 C   0  0  0  0  0  0  0  0  0  0  0  0
   16.0819   -8.3792   18.1330 N   0  0  0  0  0  0  0  0  0  0  0  0
   14.8836   -7.6092   18.2939 C   0  0  0  0  0  0  0  0  0  0  0  0
   14.0729   -7.4533   17.3428 O   0  0  0  0  0  0  0  0  0  0  0  0
   16.6489   -8.4854   18.9309 H   0  0  0  0  0  0  0  0  0  0  0  0
   14.5711   -7.0178   19.6212 C   0  0  0  0  0  0  0  0  0  0  0  0
   13.1973   -7.2200   19.9208 O   0  0  0  0  0  0  0  0  0  0  0  0
   12.4238   -6.3513   20.7024 C   0  0  0  0  0  0  0  0  0  0  0  0
   11.3988   -5.6421   20.0649 C   0  0  0  0  0  0  0  0  0  0  0  0
   10.5889   -4.7586   20.7823 C   0  0  0  0  0  0  0  0  0  0  0  0
   10.7968   -4.5756   22.1500 C   0  0  0  0  0  0  0  0  0  0  0  0
   11.8154   -5.2755   22.8001 C   0  0  0  0  0  0  0  0  0  0  0  0
   12.6306   -6.1614   22.0883 C   0  0  0  0  0  0  0  0  0  0  0  0
   13.6079   -6.8183   22.7598 F   0  0  0  0  0  0  0  0  0  0  0  0
   17.9528  -10.9810   13.3961 C   0  0  0  0  0  0  0  0  0  0  0  0
   18.1941  -12.2198   13.4134 O   0  0  0  0  0  0  0  0  0  0  0  0
   18.1430  -10.2438   12.2254 O   0  0  0  0  0  0  0  0  0  0  0  0
   17.0708   -9.5805   11.5721 C   0  0  0  0  0  0  0  0  0  0  0  0
   18.0591   -8.8383    7.5407 N   0  0  0  0  0  0  0  0  0  0  0  0
   18.4799   -8.4987    6.3245 N   0  0  0  0  0  0  0  0  0  0  0  0
   19.5067   -7.6162    6.3713 C   0  0  0  0  0  0  0  0  0  0  0  0
   19.9374   -7.2176    7.9632 S   0  0  0  0  0  0  0  0  0  0  0  0
   18.7362   -8.2393    8.5428 C   0  0  0  0  0  0  0  0  0  0  0  0
   18.4367   -8.4714    9.8440 N   0  0  0  0  0  0  0  0  0  0  0  0
   17.4289   -9.3369   10.1501 C   0  0  0  0  0  0  0  0  0  0  0  0
   16.6998   -9.9671    9.1280 C   0  0  0  0  0  0  0  0  0  0  0  0
   17.0404   -9.7012    7.7969 C   0  0  0  0  0  0  0  0  0  0  0  0
   16.4085  -10.2531    6.8575 O   0  0  0  0  0  0  0  0  0  0  0  0
   20.1709   -7.0707    5.1586 C   0  0  0  0  0  0  0  0  0  0  0  0
 24 25  1  0  0  0
 25 26  2  0  0  0
 26 27  1  0  0  0
 27 28  1  0  0  0
 28 29  2  0  0  0
 29 30  1  0  0  0
 30 23  1  0  0  0
 23 22  1  0  0  0
 22 20  1  0  0  0
 20 21  2  0  0  0
 20  1  1  0  0  0
  1  2  2  0  0  0
  2  3  1  0  0  0
  3  4  2  0  0  0
  4  5  1  0  0  0
  5  6  2  0  0  0
  4  7  1  0  0  0
  7  8  1  0  0  0
  8 11  1  0  0  0
 11 12  1  0  0  0
 12 13  1  0  0  0
 13 14  2  0  0  0
 14 15  1  0  0  0
 15 16  2  0  0  0
 16 17  1  0  0  0
 17 18  2  0  0  0
 18 19  1  0  0  0
  8  9  2  0  0  0
 30 31  2  0  0  0
 31 32  1  0  0  0
 32 33  2  0  0  0
 26 34  1  0  0  0
 28 24  1  0  0  0
  6  1  1  0  0  0
 18 13  1  0  0  0
 32 24  1  0  0  0
  7 10  1  0  0  0
M  END
>  <minimizedAffinity>
-8.97558

>  <minimizedRMSD>
1.27211

$$$$
CHEMBL3582390 PubChem-122179525


 30 33  0  0  0  0  0  0  0  0999 V2000
   16.9904   -9.7546   16.4758 C   0  0  0  0  0  0  0  0  0  0  0  0
   17.4653  -11.0042   16.8864 C   0  0  0  0  0  0  0  0  0  0  0  0
   17.9773  -11.9147   15.9622 C   0  0  0  0  0  0  0  0  0  0  0  0
   18.0220  -11.5864   14.6078 C   0  0  0  0  0  0  0  0  0  0  0  0
   18.5236  -12.4850   13.7233 F   0  0  0  0  0  0  0  0  0  0  0  0
   17.5518  -10.3392   14.1736 C   0  0  0  0  0  0  0  0  0  0  0  0
   17.0350   -9.4192   15.1028 C   0  0  0  0  0  0  0  0  0  0  0  0
   16.5890   -8.2203   14.6530 F   0  0  0  0  0  0  0  0  0  0  0  0
   16.4804   -8.8786   17.4921 N   0  0  0  0  0  0  0  0  0  0  0  0
   17.0842   -8.6864   18.2456 H   0  0  0  0  0  0  0  0  0  0  0  0
   14.8589   -7.0321   16.5081 O   0  0  0  0  0  0  0  0  0  0  0  0
   14.9212   -8.1198   17.5438 S   0  0  0  0  0  0  0  0  0  0  0  0
   13.8443   -9.1389   17.2977 O   0  0  0  0  0  0  0  0  0  0  0  0
   14.6820   -7.4127   19.1306 C   0  0  0  0  0  0  0  0  0  0  0  0
   15.6733   -7.5161   20.1095 C   0  0  0  0  0  0  0  0  0  0  0  0
   15.4664   -6.9557   21.3711 C   0  0  0  0  0  0  0  0  0  0  0  0
   14.2627   -6.2986   21.6359 C   0  0  0  0  0  0  0  0  0  0  0  0
   13.3070   -6.2100   20.6716 N   0  0  0  0  0  0  0  0  0  0  0  0
   13.4900   -6.7496   19.4363 C   0  0  0  0  0  0  0  0  0  0  0  0
   17.5996  -10.0022   12.7731 C   0  0  0  0  0  0  0  0  0  0  0  0
   17.6394   -9.7195   11.6017 C   0  0  0  0  0  0  0  0  0  0  0  0
   17.6867   -9.3825   10.2078 C   0  0  0  0  0  0  0  0  0  0  0  0
   16.7236   -9.8919    9.3149 C   0  0  0  0  0  0  0  0  0  0  0  0
   16.7701   -9.5699    7.9887 N   0  0  0  0  0  0  0  0  0  0  0  0
   17.7602   -8.7523    7.5536 C   0  0  0  0  0  0  0  0  0  0  0  0
   17.9854   -8.3092    6.2705 C   0  0  0  0  0  0  0  0  0  0  0  0
   19.1260   -7.5108    6.4294 C   0  0  0  0  0  0  0  0  0  0  0  0
   19.5245   -7.5013    7.7259 N   0  0  0  0  0  0  0  0  0  0  0  0
   18.6782   -8.2629    8.3874 N   0  0  0  0  0  0  0  0  0  0  0  0
   18.6916   -8.5409    9.7124 C   0  0  0  0  0  0  0  0  0  0  0  0
 11 12  2  0  0  0
 12 13  2  0  0  0
 12  9  1  0  0  0
  9  1  1  0  0  0
  1  2  2  0  0  0
  2  3  1  0  0  0
  3  4  2  0  0  0
  4  5  1  0  0  0
  4  6  1  0  0  0
  6 20  1  0  0  0
 20 21  3  0  0  0
 21 22  1  0  0  0
 22 23  1  0  0  0
 23 24  2  0  0  0
 24 25  1  0  0  0
 25 26  2  0  0  0
 26 27  1  0  0  0
 27 28  2  0  0  0
 28 29  1  0  0  0
 29 30  1  0  0  0
  6  7  2  0  0  0
  7  8  1  0  0  0
 12 14  1  0  0  0
 14 15  2  0  0  0
 15 16  1  0  0  0
 16 17  2  0  0  0
 17 18  1  0  0  0
 18 19  2  0  0  0
  7  1  1  0  0  0
 19 14  1  0  0  0
 30 22  2  0  0  0
 29 25  1  0  0  0
  9 10  1  0  0  0
M  END
>  <minimizedAffinity>
-8.73525

>  <minimizedRMSD>
1.27582

$$$$
CHEMBL340696 PubChem-44352137


 39 43  0  0  0  0  0  0  0  0999 V2000
   16.3187   -9.5376   15.9840 C   0  0  0  0  0  0  0  0  0  0  0  0
   17.1169  -10.5760   16.4811 C   0  0  0  0  0  0  0  0  0  0  0  0
   17.5960  -11.5474   15.6042 C   0  0  0  0  0  0  0  0  0  0  0  0
   18.3147  -12.4844   16.0446 O   0  0  0  0  0  0  0  0  0  0  0  0
   17.2689  -11.4638   14.2451 C   0  0  0  0  0  0  0  0  0  0  0  0
   17.7203  -12.4095   13.3149 C   0  0  0  0  0  0  0  0  0  0  0  0
   17.3715  -12.2876   11.9669 C   0  0  0  0  0  0  0  0  0  0  0  0
   16.5718  -11.2247   11.5336 C   0  0  0  0  0  0  0  0  0  0  0  0
   16.1154  -10.2779   12.4651 C   0  0  0  0  0  0  0  0  0  0  0  0
   16.4595  -10.3901   13.8141 C   0  0  0  0  0  0  0  0  0  0  0  0
   16.0240   -9.4851   14.6856 O   0  0  0  0  0  0  0  0  0  0  0  0
   16.0682   -8.5678   18.2924 N   0  0  0  0  0  0  0  0  0  0  0  0
   15.8016   -8.5001   16.8872 C   0  0  0  0  0  0  0  0  0  0  0  0
   15.1167   -7.5512   16.4177 O   0  0  0  0  0  0  0  0  0  0  0  0
   16.5786   -9.3353   18.6382 H   0  0  0  0  0  0  0  0  0  0  0  0
   15.6176   -7.5514   19.2318 C   0  0  0  0  0  0  0  0  0  0  0  0
   16.3979   -6.2636   19.0256 C   0  0  0  0  0  0  0  0  0  0  0  0
   15.1492   -3.3420   21.9156 C   0  0  0  0  0  0  0  0  0  0  0  0
   16.2079   -4.2158   22.2042 C   0  0  0  0  0  0  0  0  0  0  0  0
   16.6178   -5.1637   21.2620 C   0  0  0  0  0  0  0  0  0  0  0  0
   15.9743   -5.2426   20.0226 C   0  0  0  0  0  0  0  0  0  0  0  0
   14.9142   -4.3780   19.7315 C   0  0  0  0  0  0  0  0  0  0  0  0
   14.5047   -3.4303   20.6740 C   0  0  0  0  0  0  0  0  0  0  0  0
   15.2906   -2.2559   24.0212 O   0  0  0  0  0  0  0  0  0  0  0  0
   14.7144   -2.3422   22.9041 C   0  0  0  0  0  0  0  0  0  0  0  0
   13.6619   -1.4818   22.6136 O   0  0  0  0  0  0  0  0  0  0  0  0
   13.2262   -1.5372   21.7859 H   0  0  0  0  0  0  0  0  0  0  0  0
   16.2445  -11.1350   10.1759 O   0  0  0  0  0  0  0  0  0  0  0  0
   15.5414  -10.0325    9.6101 C   0  0  0  0  0  0  0  0  0  0  0  0
   16.4678   -8.8875    9.3778 C   0  0  0  0  0  0  0  0  0  0  0  0
   16.3053   -7.7036   10.1047 C   0  0  0  0  0  0  0  0  0  0  0  0
   17.1824   -6.6388    9.8898 C   0  0  0  0  0  0  0  0  0  0  0  0
   18.2089   -6.7675    8.9543 C   0  0  0  0  0  0  0  0  0  0  0  0
   19.0995   -5.7162    8.7223 C   0  0  0  0  0  0  0  0  0  0  0  0
   20.1217   -5.8657    7.7793 C   0  0  0  0  0  0  0  0  0  0  0  0
   20.2541   -7.0642    7.0689 C   0  0  0  0  0  0  0  0  0  0  0  0
   19.3651   -8.1197    7.2976 C   0  0  0  0  0  0  0  0  0  0  0  0
   18.3412   -7.9773    8.2383 C   0  0  0  0  0  0  0  0  0  0  0  0
   17.4736   -8.9989    8.4669 N   0  0  0  0  0  0  0  0  0  0  0  0
 24 25  2  0  0  0
 25 26  1  0  0  0
 25 18  1  0  0  0
 18 19  2  0  0  0
 19 20  1  0  0  0
 20 21  2  0  0  0
 21 17  1  0  0  0
 21 22  1  0  0  0
 17 16  1  0  0  0
 16 12  1  0  0  0
 12 13  1  0  0  0
 13 14  2  0  0  0
 13  1  1  0  0  0
  1  2  2  0  0  0
  2  3  1  0  0  0
  3  4  2  0  0  0
  3  5  1  0  0  0
  5  6  2  0  0  0
  6  7  1  0  0  0
  7  8  2  0  0  0
  8 28  1  0  0  0
  8  9  1  0  0  0
 28 29  1  0  0  0
 29 30  1  0  0  0
 30 31  2  0  0  0
 31 32  1  0  0  0
 32 33  2  0  0  0
 33 34  1  0  0  0
 34 35  2  0  0  0
 35 36  1  0  0  0
 36 37  2  0  0  0
 37 38  1  0  0  0
 38 39  2  0  0  0
 38 33  1  0  0  0
 39 30  1  0  0  0
  9 10  2  0  0  0
 10 11  1  0  0  0
 10  5  1  0  0  0
 11  1  1  0  0  0
 22 23  2  0  0  0
 23 18  1  0  0  0
 26 27  1  0  0  0
 12 15  1  0  0  0
M  END
>  <minimizedAffinity>
34.93032

>  <minimizedRMSD>
1.28062

$$$$
CHEMBL5202391 PubChem-155927641


 36 40  0  0  0  0  0  0  0  0999 V2000
   14.7820   -7.4893   16.5020 O   0  0  0  0  0  0  0  0  0  0  0  0
   15.5688   -8.2941   17.0710 C   0  0  0  0  0  0  0  0  0  0  0  0
   15.6042   -8.3923   18.5031 N   0  0  0  0  0  0  0  0  0  0  0  0
   16.2385   -9.0418   18.8841 H   0  0  0  0  0  0  0  0  0  0  0  0
   16.4603   -9.1409   16.2588 C   0  0  0  0  0  0  0  0  0  0  0  0
   16.4260   -9.0696   14.8592 C   0  0  0  0  0  0  0  0  0  0  0  0
   17.2694   -9.8706   14.0825 C   0  0  0  0  0  0  0  0  0  0  0  0
   18.1632  -10.7577   14.7124 C   0  0  0  0  0  0  0  0  0  0  0  0
   18.1984  -10.8296   16.1079 C   0  0  0  0  0  0  0  0  0  0  0  0
   17.3525  -10.0268   16.8771 C   0  0  0  0  0  0  0  0  0  0  0  0
   19.0834  -11.6321   13.9281 C   0  0  0  0  0  0  0  0  0  0  0  0
   17.1984   -9.7632   12.6480 C   0  0  0  0  0  0  0  0  0  0  0  0
   17.1390   -9.6743   11.4473 C   0  0  0  0  0  0  0  0  0  0  0  0
   17.0700   -9.5701   10.0154 C   0  0  0  0  0  0  0  0  0  0  0  0
   17.8824   -8.8335    9.2523 N   0  0  0  0  0  0  0  0  0  0  0  0
   18.9024   -8.0536    9.6047 N   0  0  0  0  0  0  0  0  0  0  0  0
   19.5914   -7.3930    8.6307 C   0  0  0  0  0  0  0  0  0  0  0  0
   19.2141   -7.5472    7.2822 C   0  0  0  0  0  0  0  0  0  0  0  0
   18.1333   -8.3776    6.9450 C   0  0  0  0  0  0  0  0  0  0  0  0
   17.4808   -9.0169    7.9920 C   0  0  0  0  0  0  0  0  0  0  0  0
   16.4271   -9.8524    7.8947 N   0  0  0  0  0  0  0  0  0  0  0  0
   16.1616  -10.2077    9.1816 C   0  0  0  0  0  0  0  0  0  0  0  0
   14.8136   -7.6447   19.4372 C   0  0  0  0  0  0  0  0  0  0  0  0
   13.7740   -6.7988   19.0218 C   0  0  0  0  0  0  0  0  0  0  0  0
   13.0259   -6.0844   19.9614 C   0  0  0  0  0  0  0  0  0  0  0  0
   13.3116   -6.2072   21.3255 C   0  0  0  0  0  0  0  0  0  0  0  0
   14.3441   -7.0533   21.7441 C   0  0  0  0  0  0  0  0  0  0  0  0
   15.0917   -7.7669   20.8029 C   0  0  0  0  0  0  0  0  0  0  0  0
   12.5052   -5.4404   22.3382 C   0  0  0  0  0  0  0  0  0  0  0  0
   13.2662   -5.0257   23.5248 N   0  0  0  0  0  0  0  0  0  0  0  0
   14.2493   -3.9960   23.1639 C   0  0  0  0  0  0  0  0  0  0  0  0
   15.4164   -3.9045   24.1673 C   0  0  0  0  0  0  0  0  0  0  0  0
   15.0710   -4.4065   25.5053 N   0  0  0  0  0  0  0  0  0  0  0  0
   14.5222   -5.7726   25.4862 C   0  0  0  0  0  0  0  0  0  0  0  0
   13.9232   -6.1782   24.1357 C   0  0  0  0  0  0  0  0  0  0  0  0
   14.0920   -3.5202   26.1190 C   0  0  0  0  0  0  0  0  0  0  0  0
  1  2  2  0  0  0
  2  3  1  0  0  0
  3 23  1  0  0  0
 23 24  2  0  0  0
 24 25  1  0  0  0
 25 26  2  0  0  0
 26 29  1  0  0  0
 29 30  1  0  0  0
 30 31  1  0  0  0
 31 32  1  0  0  0
 32 33  1  0  0  0
 33 34  1  0  0  0
 34 35  1  0  0  0
 33 36  1  0  0  0
 26 27  1  0  0  0
 27 28  2  0  0  0
  2  5  1  0  0  0
  5  6  2  0  0  0
  6  7  1  0  0  0
  7  8  2  0  0  0
  8  9  1  0  0  0
  9 10  2  0  0  0
  8 11  1  0  0  0
  7 12  1  0  0  0
 12 13  3  0  0  0
 13 14  1  0  0  0
 14 15  1  0  0  0
 15 16  1  0  0  0
 16 17  2  0  0  0
 17 18  1  0  0  0
 18 19  2  0  0  0
 19 20  1  0  0  0
 20 21  2  0  0  0
 21 22  1  0  0  0
 28 23  1  0  0  0
 10  5  1  0  0  0
 22 14  2  0  0  0
 35 30  1  0  0  0
 20 15  1  0  0  0
  3  4  1  0  0  0
M  END
>  <minimizedAffinity>
-12.04022

>  <minimizedRMSD>
1.28113

$$$$
CHEMBL3186591 MCULE-1157309402 PubChem-16439243 ZINC000016755672 ZINC16755672


 27 29  0  0  0  0  0  0  0  0999 V2000
   17.0861   -9.5597   11.9081 S   0  0  0  0  0  0  0  0  0  0  0  0
   18.1851   -8.6974    5.0158 C   0  0  0  0  0  0  0  0  0  0  0  0
   18.7581   -8.3184    6.3416 C   0  0  0  0  0  0  0  0  0  0  0  0
   19.9000   -7.5250    6.4820 C   0  0  0  0  0  0  0  0  0  0  0  0
   20.2513   -7.3050    8.1214 S   0  0  0  0  0  0  0  0  0  0  0  0
   18.9493   -8.2204    8.6506 C   0  0  0  0  0  0  0  0  0  0  0  0
   18.2254   -8.7085    7.5840 C   0  0  0  0  0  0  0  0  0  0  0  0
   17.1001   -9.4970    7.8519 C   0  0  0  0  0  0  0  0  0  0  0  0
   16.4081   -9.9660    6.9061 O   0  0  0  0  0  0  0  0  0  0  0  0
   16.7611   -9.7525    9.1574 N   0  0  0  0  0  0  0  0  0  0  0  0
   17.5126   -9.2411   10.1919 C   0  0  0  0  0  0  0  0  0  0  0  0
   18.6092   -8.4756    9.9328 N   0  0  0  0  0  0  0  0  0  0  0  0
   15.5899  -10.5754    9.4432 C   0  0  0  0  0  0  0  0  0  0  0  0
   20.7036   -6.9480    5.3690 C   0  0  0  0  0  0  0  0  0  0  0  0
   18.4369  -10.7693   12.0939 C   0  0  0  0  0  0  0  0  0  0  0  0
   18.4923  -11.3787   13.4664 C   0  0  0  0  0  0  0  0  0  0  0  0
   19.0345  -12.5048   13.6407 O   0  0  0  0  0  0  0  0  0  0  0  0
   17.9116  -10.6625   14.6194 C   0  0  0  0  0  0  0  0  0  0  0  0
   17.7438  -11.3205   15.8469 C   0  0  0  0  0  0  0  0  0  0  0  0
   17.1945  -10.6479   16.9421 C   0  0  0  0  0  0  0  0  0  0  0  0
   16.8075   -9.3107   16.8209 C   0  0  0  0  0  0  0  0  0  0  0  0
   16.9707   -8.6447   15.5998 C   0  0  0  0  0  0  0  0  0  0  0  0
   17.5203   -9.3194   14.5059 C   0  0  0  0  0  0  0  0  0  0  0  0
   16.5896   -7.3154   15.4677 O   0  0  0  0  0  0  0  0  0  0  0  0
   16.2624   -8.6500   17.9146 O   0  0  0  0  0  0  0  0  0  0  0  0
   16.2207   -6.8590   16.1982 H   0  0  0  0  0  0  0  0  0  0  0  0
   16.1557   -9.1009   18.7290 H   0  0  0  0  0  0  0  0  0  0  0  0
  2  3  1  0  0  0
  3  4  2  0  0  0
  4  5  1  0  0  0
  4 14  1  0  0  0
  5  6  1  0  0  0
  6  7  2  0  0  0
  7  8  1  0  0  0
  7  3  1  0  0  0
  8  9  2  0  0  0
  8 10  1  0  0  0
 10 11  1  0  0  0
 10 13  1  0  0  0
 11 12  2  0  0  0
 11  1  1  0  0  0
 12  6  1  0  0  0
  1 15  1  0  0  0
 15 16  1  0  0  0
 16 17  2  0  0  0
 16 18  1  0  0  0
 18 19  2  0  0  0
 19 20  1  0  0  0
 20 21  2  0  0  0
 21 22  1  0  0  0
 21 25  1  0  0  0
 22 23  2  0  0  0
 22 24  1  0  0  0
 23 18  1  0  0  0
 24 26  1  0  0  0
 25 27  1  0  0  0
M  END
>  <minimizedAffinity>
-6.33233

>  <minimizedRMSD>
1.28271

$$$$
CHEMBL1372160 1062126 MCULE-4560909942 MolPort-002-291-028 PubChem-1252030 ZINC000001062126


 30 33  0  0  0  0  0  0  0  0999 V2000
   18.1193  -12.1434   16.5107 C   0  0  0  0  0  0  0  0  0  0  0  0
   18.0507  -11.1627   15.3909 C   0  0  0  0  0  0  0  0  0  0  0  0
   18.0851  -11.4878   14.0473 C   0  0  0  0  0  0  0  0  0  0  0  0
   17.9809  -10.2438   13.4444 C   0  0  0  0  0  0  0  0  0  0  0  0
   17.8898   -9.2539   14.3544 N   0  0  0  0  0  0  0  0  0  0  0  0
   17.9405   -9.8294   15.5410 N   0  0  0  0  0  0  0  0  0  0  0  0
   17.9663  -10.0409   12.0281 N   0  0  0  0  0  0  0  0  0  0  0  0
   16.7845   -9.9482   11.2240 C   0  0  0  0  0  0  0  0  0  0  0  0
   15.6420  -10.0537   11.7462 O   0  0  0  0  0  0  0  0  0  0  0  0
   18.8346   -9.9588   11.5715 H   0  0  0  0  0  0  0  0  0  0  0  0
   16.9099   -9.7277    9.7772 C   0  0  0  0  0  0  0  0  0  0  0  0
   16.1495  -10.3172    8.7657 C   0  0  0  0  0  0  0  0  0  0  0  0
   16.5774   -9.8512    7.5634 N   0  0  0  0  0  0  0  0  0  0  0  0
   17.5644   -9.0045    7.7974 N   0  0  0  0  0  0  0  0  0  0  0  0
   18.2777   -8.3088    6.8804 C   0  0  0  0  0  0  0  0  0  0  0  0
   19.2877   -7.4574    7.3502 C   0  0  0  0  0  0  0  0  0  0  0  0
   19.5084   -7.3686    8.7392 C   0  0  0  0  0  0  0  0  0  0  0  0
   18.7522   -8.0981    9.6112 N   0  0  0  0  0  0  0  0  0  0  0  0
   17.7876   -8.9080    9.1093 C   0  0  0  0  0  0  0  0  0  0  0  0
   17.8296   -9.1022   16.7971 C   0  0  0  0  0  0  0  0  0  0  0  0
   16.3992   -8.8118   17.0927 C   0  0  0  0  0  0  0  0  0  0  0  0
   15.5064   -9.2627   16.3273 O   0  0  0  0  0  0  0  0  0  0  0  0
   16.0643   -8.0584   18.2650 N   0  0  0  0  0  0  0  0  0  0  0  0
   16.8158   -7.7460   18.8190 H   0  0  0  0  0  0  0  0  0  0  0  0
   14.7471   -7.7130   18.7138 C   0  0  0  0  0  0  0  0  0  0  0  0
   14.4384   -7.8353   20.0706 C   0  0  0  0  0  0  0  0  0  0  0  0
   13.1633   -7.5052   20.5330 C   0  0  0  0  0  0  0  0  0  0  0  0
   12.2052   -7.0525   19.6241 C   0  0  0  0  0  0  0  0  0  0  0  0
   12.5174   -6.9377   18.3054 N   0  0  0  0  0  0  0  0  0  0  0  0
   13.7541   -7.2555   17.8366 C   0  0  0  0  0  0  0  0  0  0  0  0
  1  2  1  0  0  0
  2  3  2  0  0  0
  3  4  1  0  0  0
  4  7  1  0  0  0
  4  5  2  0  0  0
  7  8  1  0  0  0
  8  9  2  0  0  0
  8 11  1  0  0  0
 11 12  1  0  0  0
 12 13  2  0  0  0
 13 14  1  0  0  0
 14 15  1  0  0  0
 15 16  2  0  0  0
 16 17  1  0  0  0
 17 18  2  0  0  0
 18 19  1  0  0  0
 19 11  2  0  0  0
 19 14  1  0  0  0
  5  6  1  0  0  0
  6 20  1  0  0  0
  6  2  1  0  0  0
 20 21  1  0  0  0
 21 22  2  0  0  0
 21 23  1  0  0  0
 23 25  1  0  0  0
 25 26  2  0  0  0
 26 27  1  0  0  0
 27 28  2  0  0  0
 28 29  1  0  0  0
 29 30  2  0  0  0
 30 25  1  0  0  0
  7 10  1  0  0  0
 23 24  1  0  0  0
M  END
>  <minimizedAffinity>
-9.47005

>  <minimizedRMSD>
1.28783

$$$$
CHEMBL2235550 PubChem-25108449


 30 33  0  0  0  0  0  0  0  0999 V2000
   18.4340   -9.5816   15.4663 S   0  0  0  0  0  0  0  0  0  0  0  0
   17.7637   -9.9994   13.8619 C   0  0  0  0  0  0  0  0  0  0  0  0
   18.1723  -11.0477   13.1232 N   0  0  0  0  0  0  0  0  0  0  0  0
   17.4481  -11.0218   12.0151 N   0  0  0  0  0  0  0  0  0  0  0  0
   16.6275   -9.9609   12.1282 C   0  0  0  0  0  0  0  0  0  0  0  0
   16.8175   -9.3240   13.2575 O   0  0  0  0  0  0  0  0  0  0  0  0
   15.6540   -9.5431   11.0815 C   0  0  0  0  0  0  0  0  0  0  0  0
   16.2731   -9.6278    9.7680 N   0  0  0  0  0  0  0  0  0  0  0  0
   15.9172  -10.4830    8.8149 N   0  0  0  0  0  0  0  0  0  0  0  0
   16.7082  -10.3622    7.7484 N   0  0  0  0  0  0  0  0  0  0  0  0
   17.5946   -9.3981    8.0594 C   0  0  0  0  0  0  0  0  0  0  0  0
   18.6457   -8.9003    7.2959 C   0  0  0  0  0  0  0  0  0  0  0  0
   19.4382   -7.8916    7.8797 C   0  0  0  0  0  0  0  0  0  0  0  0
   19.1630   -7.4217    9.1868 C   0  0  0  0  0  0  0  0  0  0  0  0
   18.0901   -7.9520    9.9301 C   0  0  0  0  0  0  0  0  0  0  0  0
   17.3305   -8.9433    9.3138 C   0  0  0  0  0  0  0  0  0  0  0  0
   16.9959   -8.5623   15.9039 C   0  0  0  0  0  0  0  0  0  0  0  0
   16.2223   -9.2195   17.0313 C   0  0  0  0  0  0  0  0  0  0  0  0
   15.4052   -8.2450   19.2083 N   0  0  0  0  0  0  0  0  0  0  0  0
   15.4508   -8.1917   17.7790 C   0  0  0  0  0  0  0  0  0  0  0  0
   14.9036   -7.2460   17.1513 O   0  0  0  0  0  0  0  0  0  0  0  0
   15.9941   -8.8925   19.6590 H   0  0  0  0  0  0  0  0  0  0  0  0
   12.4605   -8.2686   18.8840 C   0  0  0  0  0  0  0  0  0  0  0  0
   13.1593   -7.4000   19.8737 C   0  0  0  0  0  0  0  0  0  0  0  0
   12.3762   -6.5955   20.7066 C   0  0  0  0  0  0  0  0  0  0  0  0
   12.9698   -5.8229   21.7052 C   0  0  0  0  0  0  0  0  0  0  0  0
   14.3522   -5.8629   21.8874 C   0  0  0  0  0  0  0  0  0  0  0  0
   15.1486   -6.6662   21.0673 C   0  0  0  0  0  0  0  0  0  0  0  0
   16.6218   -6.6818   21.2950 C   0  0  0  0  0  0  0  0  0  0  0  0
   14.5644   -7.4240   20.0343 C   0  0  0  0  0  0  0  0  0  0  0  0
 23 24  1  0  0  0
 24 25  2  0  0  0
 25 26  1  0  0  0
 26 27  2  0  0  0
 27 28  1  0  0  0
 28 29  1  0  0  0
 28 30  2  0  0  0
 30 19  1  0  0  0
 30 24  1  0  0  0
 19 20  1  0  0  0
 20 21  2  0  0  0
 20 18  1  0  0  0
 18 17  1  0  0  0
 17  1  1  0  0  0
  1  2  1  0  0  0
  2  3  2  0  0  0
  3  4  1  0  0  0
  4  5  2  0  0  0
  5  7  1  0  0  0
  5  6  1  0  0  0
  7  8  1  0  0  0
  8  9  1  0  0  0
  9 10  2  0  0  0
 10 11  1  0  0  0
 11 12  2  0  0  0
 12 13  1  0  0  0
 13 14  2  0  0  0
 14 15  1  0  0  0
 15 16  2  0  0  0
 16  8  1  0  0  0
 16 11  1  0  0  0
  6  2  1  0  0  0
 19 22  1  0  0  0
M  END
>  <minimizedAffinity>
-7.75636

>  <minimizedRMSD>
1.28888

$$$$
CHEMBL3582390 PubChem-122179525


 30 33  0  0  0  0  0  0  0  0999 V2000
   17.0214   -9.7301   16.4723 C   0  0  0  0  0  0  0  0  0  0  0  0
   17.4677  -10.9914   16.8793 C   0  0  0  0  0  0  0  0  0  0  0  0
   17.9503  -11.9141   15.9514 C   0  0  0  0  0  0  0  0  0  0  0  0
   17.9934  -11.5868   14.5969 C   0  0  0  0  0  0  0  0  0  0  0  0
   18.4661  -12.4973   13.7088 F   0  0  0  0  0  0  0  0  0  0  0  0
   17.5507  -10.3282   14.1661 C   0  0  0  0  0  0  0  0  0  0  0  0
   17.0637   -9.3959   15.0989 C   0  0  0  0  0  0  0  0  0  0  0  0
   16.6416   -8.1873   14.6521 F   0  0  0  0  0  0  0  0  0  0  0  0
   16.5408   -8.8417   17.4924 N   0  0  0  0  0  0  0  0  0  0  0  0
   17.1891   -8.5838   18.1870 H   0  0  0  0  0  0  0  0  0  0  0  0
   13.9304   -9.2053   17.2472 O   0  0  0  0  0  0  0  0  0  0  0  0
   14.9479   -8.1709   17.6406 S   0  0  0  0  0  0  0  0  0  0  0  0
   14.8191   -6.9528   16.7698 O   0  0  0  0  0  0  0  0  0  0  0  0
   14.6761   -7.7074   19.3097 C   0  0  0  0  0  0  0  0  0  0  0  0
   15.7415   -7.2924   20.1125 C   0  0  0  0  0  0  0  0  0  0  0  0
   15.5099   -6.9181   21.4372 C   0  0  0  0  0  0  0  0  0  0  0  0
   14.2076   -6.9632   21.9405 C   0  0  0  0  0  0  0  0  0  0  0  0
   13.1815   -7.3669   21.1434 N   0  0  0  0  0  0  0  0  0  0  0  0
   13.3873   -7.7354   19.8502 C   0  0  0  0  0  0  0  0  0  0  0  0
   17.5960   -9.9925   12.7651 C   0  0  0  0  0  0  0  0  0  0  0  0
   17.6335   -9.7110   11.5933 C   0  0  0  0  0  0  0  0  0  0  0  0
   17.6780   -9.3756   10.1990 C   0  0  0  0  0  0  0  0  0  0  0  0
   16.7108   -9.8829    9.3093 C   0  0  0  0  0  0  0  0  0  0  0  0
   16.7546   -9.5623    7.9827 N   0  0  0  0  0  0  0  0  0  0  0  0
   17.7458   -8.7482    7.5440 C   0  0  0  0  0  0  0  0  0  0  0  0
   17.9688   -8.3069    6.2598 C   0  0  0  0  0  0  0  0  0  0  0  0
   19.1122   -7.5118    6.4147 C   0  0  0  0  0  0  0  0  0  0  0  0
   19.5143   -7.5023    7.7101 N   0  0  0  0  0  0  0  0  0  0  0  0
   18.6677   -8.2608    8.3747 N   0  0  0  0  0  0  0  0  0  0  0  0
   18.6840   -8.5375    9.7001 C   0  0  0  0  0  0  0  0  0  0  0  0
 11 12  2  0  0  0
 12 13  2  0  0  0
 12  9  1  0  0  0
  9  1  1  0  0  0
  1  2  2  0  0  0
  2  3  1  0  0  0
  3  4  2  0  0  0
  4  5  1  0  0  0
  4  6  1  0  0  0
  6 20  1  0  0  0
 20 21  3  0  0  0
 21 22  1  0  0  0
 22 23  1  0  0  0
 23 24  2  0  0  0
 24 25  1  0  0  0
 25 26  2  0  0  0
 26 27  1  0  0  0
 27 28  2  0  0  0
 28 29  1  0  0  0
 29 30  1  0  0  0
  6  7  2  0  0  0
  7  8  1  0  0  0
 12 14  1  0  0  0
 14 15  2  0  0  0
 15 16  1  0  0  0
 16 17  2  0  0  0
 17 18  1  0  0  0
 18 19  2  0  0  0
  7  1  1  0  0  0
 19 14  1  0  0  0
 30 22  2  0  0  0
 29 25  1  0  0  0
  9 10  1  0  0  0
M  END
>  <minimizedAffinity>
-8.74801

>  <minimizedRMSD>
1.28967

$$$$
CHEMBL577469 PubChem-20703633


 27 30  0  0  0  0  0  0  0  0999 V2000
   17.3084   -9.9646   12.5833 C   0  0  0  0  0  0  0  0  0  0  0  0
   16.0092  -10.1208   12.9571 N   0  0  0  0  0  0  0  0  0  0  0  0
   15.0128  -10.1153   12.0352 C   0  0  0  0  0  0  0  0  0  0  0  0
   15.3139   -9.9467   10.6855 C   0  0  0  0  0  0  0  0  0  0  0  0
   16.6523   -9.7852   10.3108 C   0  0  0  0  0  0  0  0  0  0  0  0
   17.6173   -9.7977   11.2709 N   0  0  0  0  0  0  0  0  0  0  0  0
   17.0036   -9.6066    8.9277 N   0  0  0  0  0  0  0  0  0  0  0  0
   16.4453  -10.2381    7.8625 C   0  0  0  0  0  0  0  0  0  0  0  0
   16.9935   -9.8544    6.6787 N   0  0  0  0  0  0  0  0  0  0  0  0
   17.9230   -8.9529    7.0399 C   0  0  0  0  0  0  0  0  0  0  0  0
   18.7829   -8.2422    6.2061 C   0  0  0  0  0  0  0  0  0  0  0  0
   19.6798   -7.3441    6.8138 C   0  0  0  0  0  0  0  0  0  0  0  0
   19.6937   -7.1822    8.2171 C   0  0  0  0  0  0  0  0  0  0  0  0
   18.8107   -7.9164    9.0300 C   0  0  0  0  0  0  0  0  0  0  0  0
   17.9351   -8.7980    8.3940 C   0  0  0  0  0  0  0  0  0  0  0  0
   18.3571   -9.9613   13.5592 N   0  0  0  0  0  0  0  0  0  0  0  0
   19.2545  -10.2390   13.2648 H   0  0  0  0  0  0  0  0  0  0  0  0
   18.8827  -10.5920   15.8630 C   0  0  0  0  0  0  0  0  0  0  0  0
   18.1934   -9.5760   14.9602 C   0  0  0  0  0  0  0  0  0  0  0  0
   16.7129   -9.3701   15.3344 C   0  0  0  0  0  0  0  0  0  0  0  0
   16.3705  -10.2238   16.5720 C   0  0  0  0  0  0  0  0  0  0  0  0
   16.6779   -9.4745   17.7862 N   0  0  0  0  0  0  0  0  0  0  0  0
   15.7674   -8.3308   17.9083 C   0  0  0  0  0  0  0  0  0  0  0  0
   15.3760   -7.7359   16.5481 C   0  0  0  0  0  0  0  0  0  0  0  0
   16.4407   -7.9336   15.5626 N   0  0  0  0  0  0  0  0  0  0  0  0
   15.9217   -7.3855   14.3205 C   0  0  0  0  0  0  0  0  0  0  0  0
   17.6399   -9.1383   17.7422 H   0  0  0  0  0  0  0  0  0  0  0  0
 19 18  1  0  0  0
 19 16  1  0  0  0
 19 20  1  0  0  0
 16  1  1  0  0  0
  1  2  2  0  0  0
  2  3  1  0  0  0
  3  4  2  0  0  0
  4  5  1  0  0  0
  5  7  1  0  0  0
  5  6  2  0  0  0
  7  8  1  0  0  0
  8  9  2  0  0  0
  9 10  1  0  0  0
 10 11  2  0  0  0
 11 12  1  0  0  0
 12 13  2  0  0  0
 13 14  1  0  0  0
 14 15  2  0  0  0
 15  7  1  0  0  0
 15 10  1  0  0  0
  6  1  1  0  0  0
 20 21  1  0  0  0
 21 22  1  0  0  0
 22 23  1  0  0  0
 23 24  1  0  0  0
 24 25  1  0  0  0
 25 26  1  0  0  0
 25 20  1  0  0  0
 16 17  1  0  0  0
 22 27  1  0  0  0
M  END
>  <minimizedAffinity>
-4.26078

>  <minimizedRMSD>
1.29225

$$$$
CHEMBL5087311 PubChem-156898650


 37 41  0  0  0  0  0  0  0  0999 V2000
   13.4314  -10.6329   15.6138 C   0  0  0  0  0  0  0  0  0  0  0  0
   14.5576  -10.1140   14.7820 C   0  0  0  0  0  0  0  0  0  0  0  0
   15.5297   -9.3199   15.2836 C   0  0  0  0  0  0  0  0  0  0  0  0
   16.5872   -8.7400   14.3515 C   0  0  0  0  0  0  0  0  0  0  0  0
   16.5039   -9.2015   12.9627 N   0  0  0  0  0  0  0  0  0  0  0  0
   15.5650   -9.9742   12.5112 C   0  0  0  0  0  0  0  0  0  0  0  0
   14.5509  -10.4476   13.3933 N   0  0  0  0  0  0  0  0  0  0  0  0
   13.8303  -11.0167   13.0379 H   0  0  0  0  0  0  0  0  0  0  0  0
   17.9902   -8.9020   14.8682 C   0  0  0  0  0  0  0  0  0  0  0  0
   18.4404   -7.9824   15.8228 C   0  0  0  0  0  0  0  0  0  0  0  0
   19.7336   -8.0737   16.3427 C   0  0  0  0  0  0  0  0  0  0  0  0
   20.5901   -9.0866   15.9085 C   0  0  0  0  0  0  0  0  0  0  0  0
   20.1546  -10.0070   14.9529 C   0  0  0  0  0  0  0  0  0  0  0  0
   18.8616   -9.9235   14.4263 C   0  0  0  0  0  0  0  0  0  0  0  0
   18.3860  -11.1116   13.2218 Cl  0  0  0  0  0  0  0  0  0  0  0  0
   15.5612   -8.9049   16.7099 C   0  0  0  0  0  0  0  0  0  0  0  0
   16.3747   -9.4633   17.4949 O   0  0  0  0  0  0  0  0  0  0  0  0
   14.6447   -7.9175   17.2032 N   0  0  0  0  0  0  0  0  0  0  0  0
   14.0216   -7.5204   16.5526 H   0  0  0  0  0  0  0  0  0  0  0  0
   14.5544   -7.4574   18.5562 C   0  0  0  0  0  0  0  0  0  0  0  0
   13.4014   -6.7849   18.9700 C   0  0  0  0  0  0  0  0  0  0  0  0
   13.3058   -6.3343   20.2877 C   0  0  0  0  0  0  0  0  0  0  0  0
   14.3576   -6.5581   21.1772 C   0  0  0  0  0  0  0  0  0  0  0  0
   15.4948   -7.2336   20.7302 C   0  0  0  0  0  0  0  0  0  0  0  0
   15.5691   -7.6649   19.4422 N   0  0  0  0  0  0  0  0  0  0  0  0
   15.5444  -10.3810   11.1391 N   0  0  0  0  0  0  0  0  0  0  0  0
   14.9181  -11.0971   10.8857 H   0  0  0  0  0  0  0  0  0  0  0  0
   16.3660   -9.8245   10.1082 C   0  0  0  0  0  0  0  0  0  0  0  0
   16.1252  -10.0443    8.7893 N   0  0  0  0  0  0  0  0  0  0  0  0
   17.1208   -9.3511    8.2117 C   0  0  0  0  0  0  0  0  0  0  0  0
   17.8979   -8.7602    9.1628 C   0  0  0  0  0  0  0  0  0  0  0  0
   17.4214   -9.0598   10.3396 O   0  0  0  0  0  0  0  0  0  0  0  0
   19.0044   -7.9791    8.8427 C   0  0  0  0  0  0  0  0  0  0  0  0
   19.3020   -7.8149    7.4766 C   0  0  0  0  0  0  0  0  0  0  0  0
   18.4971   -8.4270    6.4883 C   0  0  0  0  0  0  0  0  0  0  0  0
   17.3852   -9.2105    6.8521 C   0  0  0  0  0  0  0  0  0  0  0  0
   20.3674   -7.0650    7.1062 F   0  0  0  0  0  0  0  0  0  0  0  0
  1  2  1  0  0  0
  2  3  2  0  0  0
  3  4  1  0  0  0
  4  5  1  0  0  0
  5  6  2  0  0  0
  6  7  1  0  0  0
  6 26  1  0  0  0
 26 28  1  0  0  0
 28 29  2  0  0  0
 29 30  1  0  0  0
 30 31  2  0  0  0
 31 32  1  0  0  0
 31 33  1  0  0  0
 33 34  2  0  0  0
 34 35  1  0  0  0
 35 36  2  0  0  0
 34 37  1  0  0  0
  4  9  1  0  0  0
  9 10  2  0  0  0
 10 11  1  0  0  0
 11 12  2  0  0  0
 12 13  1  0  0  0
 13 14  2  0  0  0
 14 15  1  0  0  0
  3 16  1  0  0  0
 16 17  2  0  0  0
 16 18  1  0  0  0
 18 20  1  0  0  0
 20 21  2  0  0  0
 21 22  1  0  0  0
 22 23  2  0  0  0
 23 24  1  0  0  0
 24 25  2  0  0  0
  7  2  1  0  0  0
 32 28  1  0  0  0
 36 30  1  0  0  0
 14  9  1  0  0  0
 25 20  1  0  0  0
  7  8  1  0  0  0
 26 27  1  0  0  0
 18 19  1  0  0  0
M  END
>  <minimizedAffinity>
-1.38078

>  <minimizedRMSD>
1.29254

$$$$
CHEMBL2235550 PubChem-25108449


 30 33  0  0  0  0  0  0  0  0999 V2000
   17.2898  -11.2939   15.9814 S   0  0  0  0  0  0  0  0  0  0  0  0
   17.4115  -10.7737   14.2747 C   0  0  0  0  0  0  0  0  0  0  0  0
   17.9999  -11.4986   13.3054 N   0  0  0  0  0  0  0  0  0  0  0  0
   17.8885  -10.7869   12.1945 N   0  0  0  0  0  0  0  0  0  0  0  0
   17.2401   -9.6580   12.5358 C   0  0  0  0  0  0  0  0  0  0  0  0
   16.9386   -9.6431   13.8111 O   0  0  0  0  0  0  0  0  0  0  0  0
   16.8781   -8.5805   11.5735 C   0  0  0  0  0  0  0  0  0  0  0  0
   16.8832   -9.1060   10.2171 N   0  0  0  0  0  0  0  0  0  0  0  0
   16.1616  -10.1418    9.8017 N   0  0  0  0  0  0  0  0  0  0  0  0
   16.4248  -10.4229    8.5252 N   0  0  0  0  0  0  0  0  0  0  0  0
   17.3535   -9.5283    8.1389 C   0  0  0  0  0  0  0  0  0  0  0  0
   17.9775   -9.3975    6.9024 C   0  0  0  0  0  0  0  0  0  0  0  0
   18.9359   -8.3719    6.7755 C   0  0  0  0  0  0  0  0  0  0  0  0
   19.2383   -7.5254    7.8695 C   0  0  0  0  0  0  0  0  0  0  0  0
   18.5863   -7.6902    9.1074 C   0  0  0  0  0  0  0  0  0  0  0  0
   17.6439   -8.7125    9.1879 C   0  0  0  0  0  0  0  0  0  0  0  0
   16.0476  -10.0285   16.3735 C   0  0  0  0  0  0  0  0  0  0  0  0
   16.7207   -8.8206   16.9968 C   0  0  0  0  0  0  0  0  0  0  0  0
   15.6929   -7.9967   19.1469 N   0  0  0  0  0  0  0  0  0  0  0  0
   15.7114   -7.9998   17.7161 C   0  0  0  0  0  0  0  0  0  0  0  0
   14.8900   -7.3067   17.0585 O   0  0  0  0  0  0  0  0  0  0  0  0
   16.4565   -8.4066   19.6139 H   0  0  0  0  0  0  0  0  0  0  0  0
   16.3898   -6.6507   21.5934 C   0  0  0  0  0  0  0  0  0  0  0  0
   14.9713   -6.7919   21.1576 C   0  0  0  0  0  0  0  0  0  0  0  0
   13.9662   -6.2462   21.9606 C   0  0  0  0  0  0  0  0  0  0  0  0
   12.6271   -6.3593   21.5864 C   0  0  0  0  0  0  0  0  0  0  0  0
   12.2865   -7.0289   20.4108 C   0  0  0  0  0  0  0  0  0  0  0  0
   13.2802   -7.5752   19.5933 C   0  0  0  0  0  0  0  0  0  0  0  0
   12.8504   -8.3545   18.3970 C   0  0  0  0  0  0  0  0  0  0  0  0
   14.6417   -7.4395   19.9517 C   0  0  0  0  0  0  0  0  0  0  0  0
 23 24  1  0  0  0
 24 25  2  0  0  0
 25 26  1  0  0  0
 26 27  2  0  0  0
 27 28  1  0  0  0
 28 29  1  0  0  0
 28 30  2  0  0  0
 30 19  1  0  0  0
 30 24  1  0  0  0
 19 20  1  0  0  0
 20 21  2  0  0  0
 20 18  1  0  0  0
 18 17  1  0  0  0
 17  1  1  0  0  0
  1  2  1  0  0  0
  2  3  2  0  0  0
  3  4  1  0  0  0
  4  5  2  0  0  0
  5  7  1  0  0  0
  5  6  1  0  0  0
  7  8  1  0  0  0
  8  9  1  0  0  0
  9 10  2  0  0  0
 10 11  1  0  0  0
 11 12  2  0  0  0
 12 13  1  0  0  0
 13 14  2  0  0  0
 14 15  1  0  0  0
 15 16  2  0  0  0
 16  8  1  0  0  0
 16 11  1  0  0  0
  6  2  1  0  0  0
 19 22  1  0  0  0
M  END
>  <minimizedAffinity>
-7.62158

>  <minimizedRMSD>
1.29355

$$$$
CHEMBL1272297 PubChem-52945953


 28 30  0  0  0  0  0  0  0  0999 V2000
   17.6907   -9.1060   11.5455 C   0  0  0  0  0  0  0  0  0  0  0  0
   16.8742   -8.1992   11.2292 O   0  0  0  0  0  0  0  0  0  0  0  0
   17.6542   -9.6952   12.8976 C   0  0  0  0  0  0  0  0  0  0  0  0
   18.3474  -10.8790   13.1817 C   0  0  0  0  0  0  0  0  0  0  0  0
   18.3033  -11.4341   14.4618 C   0  0  0  0  0  0  0  0  0  0  0  0
   17.5681  -10.8146   15.4760 C   0  0  0  0  0  0  0  0  0  0  0  0
   17.5534  -11.5670   17.0642 Cl  0  0  0  0  0  0  0  0  0  0  0  0
   16.8693   -9.6216   15.2039 C   0  0  0  0  0  0  0  0  0  0  0  0
   16.9206   -9.0738   13.9166 C   0  0  0  0  0  0  0  0  0  0  0  0
   15.9275   -8.7941   16.4417 S   0  0  0  0  0  0  0  0  0  0  0  0
   16.8837   -8.6001   17.8673 N   0  0  0  0  0  0  0  0  0  0  0  0
   15.5130   -7.4373   15.9450 O   0  0  0  0  0  0  0  0  0  0  0  0
   14.6960   -9.5940   16.7601 O   0  0  0  0  0  0  0  0  0  0  0  0
   17.7180   -8.0567   17.6458 H   0  0  0  0  0  0  0  0  0  0  0  0
   17.1587   -9.5169   18.2197 H   0  0  0  0  0  0  0  0  0  0  0  0
   18.6735   -9.5828   10.5230 C   0  0  0  0  0  0  0  0  0  0  0  0
   16.9313   -9.9978    8.7341 C   0  0  0  0  0  0  0  0  0  0  0  0
   16.6565   -9.6662    7.4438 N   0  0  0  0  0  0  0  0  0  0  0  0
   17.7071   -8.8966    7.1016 C   0  0  0  0  0  0  0  0  0  0  0  0
   17.9370   -8.2706    5.8792 C   0  0  0  0  0  0  0  0  0  0  0  0
   19.1092   -7.5008    5.7557 C   0  0  0  0  0  0  0  0  0  0  0  0
   20.0065   -7.3769    6.8406 C   0  0  0  0  0  0  0  0  0  0  0  0
   19.7447   -8.0219    8.0634 C   0  0  0  0  0  0  0  0  0  0  0  0
   18.5758   -8.7772    8.1477 C   0  0  0  0  0  0  0  0  0  0  0  0
   18.1005   -9.4777    9.1859 N   0  0  0  0  0  0  0  0  0  0  0  0
   16.0366  -10.8666    9.5601 C   0  0  0  0  0  0  0  0  0  0  0  0
   14.2904  -10.2705   11.2418 C   0  0  0  0  0  0  0  0  0  0  0  0
   14.6828  -10.2098    9.7780 C   0  0  0  0  0  0  0  0  0  0  0  0
 27 28  1  0  0  0
 28 26  1  0  0  0
 26 17  1  0  0  0
 17 18  2  0  0  0
 18 19  1  0  0  0
 19 20  2  0  0  0
 20 21  1  0  0  0
 21 22  2  0  0  0
 22 23  1  0  0  0
 23 24  2  0  0  0
 24 25  1  0  0  0
 24 19  1  0  0  0
 25 16  1  0  0  0
 25 17  1  0  0  0
 16  1  1  0  0  0
  1  2  2  0  0  0
  1  3  1  0  0  0
  3  4  2  0  0  0
  4  5  1  0  0  0
  5  6  2  0  0  0
  6  7  1  0  0  0
  6  8  1  0  0  0
  8 10  1  0  0  0
  8  9  2  0  0  0
 10 11  1  0  0  0
 10 12  2  0  0  0
 10 13  2  0  0  0
  9  3  1  0  0  0
 11 14  1  0  0  0
 11 15  1  0  0  0
M  END
>  <minimizedAffinity>
-3.57717

>  <minimizedRMSD>
1.29369

$$$$
CHEMBL2336025 PubChem-71625037 ZINC000095589824


 33 37  0  0  0  0  0  0  0  0999 V2000
   17.3313   -9.9828   14.0305 C   0  0  0  0  0  0  0  0  0  0  0  0
   17.9306  -11.1074   14.6294 C   0  0  0  0  0  0  0  0  0  0  0  0
   17.7952  -11.3129   16.0054 C   0  0  0  0  0  0  0  0  0  0  0  0
   17.0698  -10.4093   16.7855 C   0  0  0  0  0  0  0  0  0  0  0  0
   16.4701   -9.2876   16.1980 C   0  0  0  0  0  0  0  0  0  0  0  0
   16.6067   -9.0825   14.8179 C   0  0  0  0  0  0  0  0  0  0  0  0
   18.7135  -12.0965   13.8324 C   0  0  0  0  0  0  0  0  0  0  0  0
   15.7048   -8.3351   17.0217 C   0  0  0  0  0  0  0  0  0  0  0  0
   15.0515   -7.4112   16.4645 O   0  0  0  0  0  0  0  0  0  0  0  0
   15.7098   -8.4671   18.4515 N   0  0  0  0  0  0  0  0  0  0  0  0
   16.2401   -9.2086   18.8231 H   0  0  0  0  0  0  0  0  0  0  0  0
   15.0242   -7.6333   19.3956 C   0  0  0  0  0  0  0  0  0  0  0  0
   15.6842   -7.2685   20.5736 C   0  0  0  0  0  0  0  0  0  0  0  0
   15.0558   -6.4541   21.5289 C   0  0  0  0  0  0  0  0  0  0  0  0
   13.7480   -6.0058   21.2888 C   0  0  0  0  0  0  0  0  0  0  0  0
   13.0817   -6.3656   20.1151 C   0  0  0  0  0  0  0  0  0  0  0  0
   13.7174   -7.1762   19.1722 C   0  0  0  0  0  0  0  0  0  0  0  0
   15.7423   -6.0851   22.7356 N   0  0  0  0  0  0  0  0  0  0  0  0
   15.2648   -5.3085   23.7250 C   0  0  0  0  0  0  0  0  0  0  0  0
   16.1687   -5.1625   24.7122 N   0  0  0  0  0  0  0  0  0  0  0  0
   17.2467   -5.8739   24.3221 C   0  0  0  0  0  0  0  0  0  0  0  0
   16.9864   -6.4493   23.0941 C   0  0  0  0  0  0  0  0  0  0  0  0
   17.5386   -9.5201   11.4334 C   0  0  0  0  0  0  0  0  0  0  0  0
   17.4442   -9.7308   12.6169 C   0  0  0  0  0  0  0  0  0  0  0  0
   18.6583   -8.4316    9.5288 C   0  0  0  0  0  0  0  0  0  0  0  0
   17.6510   -9.2699   10.0250 C   0  0  0  0  0  0  0  0  0  0  0  0
   16.7502   -9.8627    9.1184 C   0  0  0  0  0  0  0  0  0  0  0  0
   16.8584   -9.6232    7.7784 N   0  0  0  0  0  0  0  0  0  0  0  0
   17.8482   -8.8054    7.3431 C   0  0  0  0  0  0  0  0  0  0  0  0
   18.7078   -8.2378    8.1897 N   0  0  0  0  0  0  0  0  0  0  0  0
   19.5673   -7.4939    7.5249 N   0  0  0  0  0  0  0  0  0  0  0  0
   19.2382   -7.5962    6.2131 C   0  0  0  0  0  0  0  0  0  0  0  0
   18.1292   -8.4366    6.0475 C   0  0  0  0  0  0  0  0  0  0  0  0
 25 26  2  0  0  0
 26 27  1  0  0  0
 27 28  2  0  0  0
 28 29  1  0  0  0
 29 30  1  0  0  0
 30 31  1  0  0  0
 31 32  2  0  0  0
 32 33  1  0  0  0
 26 23  1  0  0  0
 23 24  3  0  0  0
 24  1  1  0  0  0
  1  2  2  0  0  0
  2  3  1  0  0  0
  3  4  2  0  0  0
  4  5  1  0  0  0
  5  6  2  0  0  0
  5  8  1  0  0  0
  8  9  2  0  0  0
  8 10  1  0  0  0
 10 12  1  0  0  0
 12 13  2  0  0  0
 13 14  1  0  0  0
 14 15  2  0  0  0
 15 16  1  0  0  0
 16 17  2  0  0  0
 14 18  1  0  0  0
 18 19  1  0  0  0
 19 20  2  0  0  0
 20 21  1  0  0  0
 21 22  2  0  0  0
  2  7  1  0  0  0
 30 25  1  0  0  0
  6  1  1  0  0  0
 17 12  1  0  0  0
 22 18  1  0  0  0
 33 29  2  0  0  0
 10 11  1  0  0  0
M  END
>  <minimizedAffinity>
-12.20472

>  <minimizedRMSD>
1.29471

$$$$
CHEMBL1326350


 34 37  0  0  0  0  0  0  0  0999 V2000
   17.2042   -9.3272   14.0078 C   0  0  0  0  0  0  0  0  0  0  0  0
   15.9706  -10.1560   14.3883 C   0  0  0  0  0  0  0  0  0  0  0  0
   15.1688   -9.4756   15.4925 C   0  0  0  0  0  0  0  0  0  0  0  0
   15.9998   -9.3498   16.7778 C   0  0  0  0  0  0  0  0  0  0  0  0
   17.5086   -9.1907   16.5266 C   0  0  0  0  0  0  0  0  0  0  0  0
   17.7894   -8.5221   15.1813 C   0  0  0  0  0  0  0  0  0  0  0  0
   15.4796   -8.2354   17.6237 C   0  0  0  0  0  0  0  0  0  0  0  0
   15.0626   -7.1721   17.0879 O   0  0  0  0  0  0  0  0  0  0  0  0
   15.4628   -8.3868   19.0444 N   0  0  0  0  0  0  0  0  0  0  0  0
   15.8374   -9.2092   19.4349 H   0  0  0  0  0  0  0  0  0  0  0  0
   14.9152   -7.3766   19.9398 C   0  0  0  0  0  0  0  0  0  0  0  0
   13.4941   -7.0884   19.5917 C   0  0  0  0  0  0  0  0  0  0  0  0
   12.6354   -8.1311   19.2269 C   0  0  0  0  0  0  0  0  0  0  0  0
   11.3000   -7.8623   18.8834 C   0  0  0  0  0  0  0  0  0  0  0  0
   10.8374   -6.5422   18.9070 C   0  0  0  0  0  0  0  0  0  0  0  0
   11.6954   -5.4993   19.2687 C   0  0  0  0  0  0  0  0  0  0  0  0
   13.0229   -5.7722   19.6097 C   0  0  0  0  0  0  0  0  0  0  0  0
   10.4179   -8.8822   18.5163 O   0  0  0  0  0  0  0  0  0  0  0  0
   10.5353  -10.2112   19.0055 C   0  0  0  0  0  0  0  0  0  0  0  0
   18.2579  -10.2442   13.4055 C   0  0  0  0  0  0  0  0  0  0  0  0
   18.6526   -9.7736   12.0844 N   0  0  0  0  0  0  0  0  0  0  0  0
   19.5979   -9.5471   11.9284 H   0  0  0  0  0  0  0  0  0  0  0  0
   13.9141  -10.6535   10.2904 S   0  0  0  0  0  0  0  0  0  0  0  0
   15.5616   -9.9925   10.1019 C   0  0  0  0  0  0  0  0  0  0  0  0
   16.4616  -10.1198   11.1119 N   0  0  0  0  0  0  0  0  0  0  0  0
   17.7256   -9.6260   11.0027 C   0  0  0  0  0  0  0  0  0  0  0  0
   18.1086   -8.9740    9.8230 C   0  0  0  0  0  0  0  0  0  0  0  0
   17.1587   -8.8533    8.7873 C   0  0  0  0  0  0  0  0  0  0  0  0
   15.9114   -9.3633    8.9499 N   0  0  0  0  0  0  0  0  0  0  0  0
   17.5031   -8.2086    7.5958 C   0  0  0  0  0  0  0  0  0  0  0  0
   18.7886   -7.6835    7.4312 C   0  0  0  0  0  0  0  0  0  0  0  0
   19.7325   -7.8013    8.4565 C   0  0  0  0  0  0  0  0  0  0  0  0
   19.3950   -8.4449    9.6509 C   0  0  0  0  0  0  0  0  0  0  0  0
   13.7957  -11.2334   11.5149 H   0  0  0  0  0  0  0  0  0  0  0  0
 23 24  1  0  0  0
 24 25  2  0  0  0
 25 26  1  0  0  0
 26 21  1  0  0  0
 21 20  1  0  0  0
 20  1  1  0  0  0
  1  2  1  0  0  0
  2  3  1  0  0  0
  3  4  1  0  0  0
  4  7  1  0  0  0
  7  8  2  0  0  0
  7  9  1  0  0  0
  9 11  1  0  0  0
 11 12  1  0  0  0
 12 13  2  0  0  0
 13 14  1  0  0  0
 14 18  1  0  0  0
 18 19  1  0  0  0
 14 15  2  0  0  0
 15 16  1  0  0  0
 16 17  2  0  0  0
  4  5  1  0  0  0
  5  6  1  0  0  0
 26 27  2  0  0  0
 27 28  1  0  0  0
 28 29  2  0  0  0
 28 30  1  0  0  0
 30 31  2  0  0  0
 31 32  1  0  0  0
 32 33  2  0  0  0
 29 24  1  0  0  0
  6  1  1  0  0  0
 33 27  1  0  0  0
 17 12  1  0  0  0
 23 34  1  0  0  0
 21 22  1  0  0  0
  9 10  1  0  0  0
M  END
>  <minimizedAffinity>
-7.35576

>  <minimizedRMSD>
1.29949

$$$$
CHEMBL2063451 PubChem-70696941


 34 37  0  0  0  0  0  0  0  0999 V2000
   18.5247  -10.5992   13.6204 C   0  0  0  0  0  0  0  0  0  0  0  0
   18.4181  -11.9872   13.7608 C   0  0  0  0  0  0  0  0  0  0  0  0
   18.1566  -12.5545   15.0115 C   0  0  0  0  0  0  0  0  0  0  0  0
   17.9997  -11.7344   16.1318 C   0  0  0  0  0  0  0  0  0  0  0  0
   18.1080  -10.3459   16.0027 C   0  0  0  0  0  0  0  0  0  0  0  0
   18.3642   -9.7811   14.7489 C   0  0  0  0  0  0  0  0  0  0  0  0
   17.8434   -9.4055   11.4541 C   0  0  0  0  0  0  0  0  0  0  0  0
   16.6648   -9.1832   11.8434 O   0  0  0  0  0  0  0  0  0  0  0  0
   18.7843  -10.0556   12.3192 N   0  0  0  0  0  0  0  0  0  0  0  0
   19.7064  -10.1374   11.9841 H   0  0  0  0  0  0  0  0  0  0  0  0
   15.6166  -10.6505    9.4404 N   0  0  0  0  0  0  0  0  0  0  0  0
   16.5591  -10.0488    8.5610 C   0  0  0  0  0  0  0  0  0  0  0  0
   16.4166  -10.0405    7.2175 N   0  0  0  0  0  0  0  0  0  0  0  0
   17.3852   -9.3099    6.7353 O   0  0  0  0  0  0  0  0  0  0  0  0
   18.1317   -8.8433    7.7067 C   0  0  0  0  0  0  0  0  0  0  0  0
   19.2255   -7.9906    7.6027 C   0  0  0  0  0  0  0  0  0  0  0  0
   19.8454   -7.5839    8.7953 C   0  0  0  0  0  0  0  0  0  0  0  0
   19.3701   -8.0388   10.0433 C   0  0  0  0  0  0  0  0  0  0  0  0
   18.2681   -8.9159   10.1293 C   0  0  0  0  0  0  0  0  0  0  0  0
   17.6628   -9.2932    8.9156 C   0  0  0  0  0  0  0  0  0  0  0  0
   14.8644  -11.1700    9.0750 H   0  0  0  0  0  0  0  0  0  0  0  0
   15.7165  -10.5473   10.4144 H   0  0  0  0  0  0  0  0  0  0  0  0
   17.9180   -9.4675   17.1921 C   0  0  0  0  0  0  0  0  0  0  0  0
   16.4979   -9.0269   17.2922 C   0  0  0  0  0  0  0  0  0  0  0  0
   15.6805   -9.3678   16.3964 O   0  0  0  0  0  0  0  0  0  0  0  0
   16.0820   -8.2510   18.4236 N   0  0  0  0  0  0  0  0  0  0  0  0
   16.7784   -8.0195   19.0799 H   0  0  0  0  0  0  0  0  0  0  0  0
   14.7568   -7.7770   18.6984 C   0  0  0  0  0  0  0  0  0  0  0  0
   13.8923   -7.3528   17.6773 C   0  0  0  0  0  0  0  0  0  0  0  0
   12.6058   -6.8995   17.9832 C   0  0  0  0  0  0  0  0  0  0  0  0
   12.1746   -6.8675   19.3120 C   0  0  0  0  0  0  0  0  0  0  0  0
   13.0301   -7.2885   20.3336 C   0  0  0  0  0  0  0  0  0  0  0  0
   12.6127   -7.2582   21.6218 F   0  0  0  0  0  0  0  0  0  0  0  0
   14.3164   -7.7421   20.0262 C   0  0  0  0  0  0  0  0  0  0  0  0
 11 12  1  0  0  0
 12 13  2  0  0  0
 13 14  1  0  0  0
 14 15  1  0  0  0
 15 16  2  0  0  0
 16 17  1  0  0  0
 17 18  2  0  0  0
 18 19  1  0  0  0
 19  7  1  0  0  0
 19 20  2  0  0  0
  7  8  2  0  0  0
  7  9  1  0  0  0
  9  1  1  0  0  0
  1  2  2  0  0  0
  2  3  1  0  0  0
  3  4  2  0  0  0
  4  5  1  0  0  0
  5 23  1  0  0  0
  5  6  2  0  0  0
 23 24  1  0  0  0
 24 25  2  0  0  0
 24 26  1  0  0  0
 26 28  1  0  0  0
 28 29  2  0  0  0
 29 30  1  0  0  0
 30 31  2  0  0  0
 31 32  1  0  0  0
 32 33  1  0  0  0
 32 34  2  0  0  0
 34 28  1  0  0  0
  6  1  1  0  0  0
 20 12  1  0  0  0
 20 15  1  0  0  0
 11 21  1  0  0  0
 11 22  1  0  0  0
  9 10  1  0  0  0
 26 27  1  0  0  0
M  END
>  <minimizedAffinity>
-9.47786

>  <minimizedRMSD>
1.30043

$$$$
CHEMBL3902542 PubChem-68029031


 30 34  0  0  0  0  0  0  0  0999 V2000
   17.9162  -12.9715   15.2458 C   0  0  0  0  0  0  0  0  0  0  0  0
   17.9391  -11.5608   14.8918 N   0  0  0  0  0  0  0  0  0  0  0  0
   17.2187  -10.6115   15.7085 C   0  0  0  0  0  0  0  0  0  0  0  0
   16.2820   -9.7320   15.1457 C   0  0  0  0  0  0  0  0  0  0  0  0
   15.6025   -8.8282   15.9618 C   0  0  0  0  0  0  0  0  0  0  0  0
   15.8538   -8.7980   17.3372 C   0  0  0  0  0  0  0  0  0  0  0  0
   16.7943   -9.6888   17.8657 C   0  0  0  0  0  0  0  0  0  0  0  0
   17.4460  -10.5624   17.0523 N   0  0  0  0  0  0  0  0  0  0  0  0
   15.1439   -7.8487   18.2115 C   0  0  0  0  0  0  0  0  0  0  0  0
   14.3331   -7.0189   17.7157 O   0  0  0  0  0  0  0  0  0  0  0  0
   15.3738   -7.8663   19.6230 N   0  0  0  0  0  0  0  0  0  0  0  0
   16.0075   -8.5219   19.9943 H   0  0  0  0  0  0  0  0  0  0  0  0
   14.7021   -6.9476   20.5269 C   0  0  0  0  0  0  0  0  0  0  0  0
   14.3436   -7.6795   21.8031 C   0  0  0  0  0  0  0  0  0  0  0  0
   15.5474   -6.7628   21.7702 C   0  0  0  0  0  0  0  0  0  0  0  0
   18.7090  -11.1991   13.6998 C   0  0  0  0  0  0  0  0  0  0  0  0
   19.3108   -9.8040   13.8143 C   0  0  0  0  0  0  0  0  0  0  0  0
   19.0718   -9.1306   12.4755 C   0  0  0  0  0  0  0  0  0  0  0  0
   18.1575   -9.9908   11.7459 N   0  0  0  0  0  0  0  0  0  0  0  0
   17.8547  -11.2235   12.4454 C   0  0  0  0  0  0  0  0  0  0  0  0
   17.5919   -9.6822   10.4597 C   0  0  0  0  0  0  0  0  0  0  0  0
   16.3889  -10.2220   10.0966 N   0  0  0  0  0  0  0  0  0  0  0  0
   15.8142   -9.9525    8.8837 C   0  0  0  0  0  0  0  0  0  0  0  0
   16.4348   -9.1261    7.9927 N   0  0  0  0  0  0  0  0  0  0  0  0
   17.6265   -8.5834    8.3382 C   0  0  0  0  0  0  0  0  0  0  0  0
   18.3555   -7.7560    7.5782 N   0  0  0  0  0  0  0  0  0  0  0  0
   19.4471   -7.4808    8.3343 C   0  0  0  0  0  0  0  0  0  0  0  0
   19.4029   -8.1350    9.5680 C   0  0  0  0  0  0  0  0  0  0  0  0
   18.2175   -8.8357    9.5362 C   0  0  0  0  0  0  0  0  0  0  0  0
   18.1464   -7.4232    6.6756 H   0  0  0  0  0  0  0  0  0  0  0  0
  1  2  1  0  0  0
 16  2  1  0  0  0
 16 17  1  0  0  0
 17 18  1  0  0  0
 18 19  1  0  0  0
 19 20  1  0  0  0
 19 21  1  0  0  0
 21 22  2  0  0  0
 22 23  1  0  0  0
 23 24  2  0  0  0
 24 25  1  0  0  0
 25 26  1  0  0  0
 26 27  1  0  0  0
 27 28  2  0  0  0
 28 29  1  0  0  0
  2  3  1  0  0  0
  3  4  2  0  0  0
  4  5  1  0  0  0
  5  6  2  0  0  0
  6  7  1  0  0  0
  7  8  2  0  0  0
  6  9  1  0  0  0
  9 10  2  0  0  0
  9 11  1  0  0  0
 11 13  1  0  0  0
 13 14  1  0  0  0
 14 15  1  0  0  0
 20 16  1  0  0  0
 29 21  1  0  0  0
  8  3  1  0  0  0
 15 13  1  0  0  0
 29 25  2  0  0  0
 26 30  1  0  0  0
 11 12  1  0  0  0
M  END
>  <minimizedAffinity>
-5.54257

>  <minimizedRMSD>
1.30525

$$$$
CHEMBL5070414 PubChem-156898857


 36 40  0  0  0  0  0  0  0  0999 V2000
   16.5933   -8.6741   14.2829 C   0  0  0  0  0  0  0  0  0  0  0  0
   15.5584   -9.3317   15.1882 C   0  0  0  0  0  0  0  0  0  0  0  0
   14.6569  -10.1903   14.6616 C   0  0  0  0  0  0  0  0  0  0  0  0
   14.7078  -10.5192   13.2727 N   0  0  0  0  0  0  0  0  0  0  0  0
   15.7094   -9.9752   12.4174 C   0  0  0  0  0  0  0  0  0  0  0  0
   16.5801   -9.1398   12.8931 N   0  0  0  0  0  0  0  0  0  0  0  0
   13.5503  -10.7897   15.4649 C   0  0  0  0  0  0  0  0  0  0  0  0
   14.0368  -11.1347   12.8984 H   0  0  0  0  0  0  0  0  0  0  0  0
   21.9341   -8.7215   16.5298 C   0  0  0  0  0  0  0  0  0  0  0  0
   20.5694   -8.7251   15.9419 C   0  0  0  0  0  0  0  0  0  0  0  0
   20.2153   -9.6988   15.0057 C   0  0  0  0  0  0  0  0  0  0  0  0
   18.9334   -9.7110   14.4467 C   0  0  0  0  0  0  0  0  0  0  0  0
   17.9906   -8.7322   14.8356 C   0  0  0  0  0  0  0  0  0  0  0  0
   18.3597   -7.7581   15.7708 C   0  0  0  0  0  0  0  0  0  0  0  0
   19.6424   -7.7539   16.3232 C   0  0  0  0  0  0  0  0  0  0  0  0
   18.5615  -10.9620   13.2699 Cl  0  0  0  0  0  0  0  0  0  0  0  0
   15.5268   -8.9218   16.6160 C   0  0  0  0  0  0  0  0  0  0  0  0
   16.2540   -9.5314   17.4454 O   0  0  0  0  0  0  0  0  0  0  0  0
   14.6446   -7.8796   17.0554 N   0  0  0  0  0  0  0  0  0  0  0  0
   14.1006   -7.4380   16.3638 H   0  0  0  0  0  0  0  0  0  0  0  0
   14.4767   -7.4177   18.4009 C   0  0  0  0  0  0  0  0  0  0  0  0
   13.4866   -6.5777   18.7601 N   0  0  0  0  0  0  0  0  0  0  0  0
   13.5021   -6.2730   20.0575 N   0  0  0  0  0  0  0  0  0  0  0  0
   14.5002   -6.8617   20.7585 C   0  0  0  0  0  0  0  0  0  0  0  0
   15.4293   -7.8204   19.7281 S   0  0  0  0  0  0  0  0  0  0  0  0
   15.7538  -10.3812   11.0457 N   0  0  0  0  0  0  0  0  0  0  0  0
   15.1930  -11.1450   10.7783 H   0  0  0  0  0  0  0  0  0  0  0  0
   16.5523   -9.7598   10.0337 C   0  0  0  0  0  0  0  0  0  0  0  0
   16.3670  -10.0043    8.7103 N   0  0  0  0  0  0  0  0  0  0  0  0
   17.3149   -9.2302    8.1553 C   0  0  0  0  0  0  0  0  0  0  0  0
   17.6029   -9.0725    6.8022 C   0  0  0  0  0  0  0  0  0  0  0  0
   18.6530   -8.1977    6.4632 C   0  0  0  0  0  0  0  0  0  0  0  0
   19.3748   -7.5157    7.4697 C   0  0  0  0  0  0  0  0  0  0  0  0
   19.0564   -7.6992    8.8286 C   0  0  0  0  0  0  0  0  0  0  0  0
   18.0126   -8.5714    9.1234 C   0  0  0  0  0  0  0  0  0  0  0  0
   17.5317   -8.9067   10.2888 O   0  0  0  0  0  0  0  0  0  0  0  0
  9 10  1  0  0  0
 10 11  2  0  0  0
 11 12  1  0  0  0
 12 13  2  0  0  0
 13 14  1  0  0  0
 14 15  2  0  0  0
 13  1  1  0  0  0
  1  2  1  0  0  0
  2  3  2  0  0  0
  3  4  1  0  0  0
  4  5  1  0  0  0
  5  6  2  0  0  0
  5 26  1  0  0  0
 26 28  1  0  0  0
 28 29  2  0  0  0
 29 30  1  0  0  0
 30 31  2  0  0  0
 31 32  1  0  0  0
 32 33  2  0  0  0
 33 34  1  0  0  0
 34 35  2  0  0  0
 35 36  1  0  0  0
  3  7  1  0  0  0
  2 17  1  0  0  0
 17 18  2  0  0  0
 17 19  1  0  0  0
 19 21  1  0  0  0
 21 22  2  0  0  0
 22 23  1  0  0  0
 23 24  2  0  0  0
 24 25  1  0  0  0
 12 16  1  0  0  0
 15 10  1  0  0  0
  6  1  1  0  0  0
 36 28  1  0  0  0
 35 30  1  0  0  0
 25 21  1  0  0  0
  4  8  1  0  0  0
 26 27  1  0  0  0
 19 20  1  0  0  0
M  END
>  <minimizedAffinity>
1.79939

>  <minimizedRMSD>
1.30731

$$$$
CHEMBL5088352 PubChem-156898633


 37 41  0  0  0  0  0  0  0  0999 V2000
   13.5639  -10.8075   15.4922 C   0  0  0  0  0  0  0  0  0  0  0  0
   14.6657  -10.1986   14.6894 C   0  0  0  0  0  0  0  0  0  0  0  0
   15.5553   -9.3268   15.2147 C   0  0  0  0  0  0  0  0  0  0  0  0
   16.5849   -8.6611   14.3093 C   0  0  0  0  0  0  0  0  0  0  0  0
   16.5818   -9.1336   12.9217 N   0  0  0  0  0  0  0  0  0  0  0  0
   15.7225   -9.9815   12.4473 C   0  0  0  0  0  0  0  0  0  0  0  0
   14.7248  -10.5334   13.3022 N   0  0  0  0  0  0  0  0  0  0  0  0
   14.0623  -11.1586   12.9287 H   0  0  0  0  0  0  0  0  0  0  0  0
   17.9811   -8.6994   14.8666 C   0  0  0  0  0  0  0  0  0  0  0  0
   18.9379   -9.6656   14.4830 C   0  0  0  0  0  0  0  0  0  0  0  0
   20.2175   -9.6358   15.0458 C   0  0  0  0  0  0  0  0  0  0  0  0
   20.5640   -8.6585   15.9824 C   0  0  0  0  0  0  0  0  0  0  0  0
   19.6141   -7.6973   16.3569 C   0  0  0  0  0  0  0  0  0  0  0  0
   18.3339   -7.7195   15.8006 C   0  0  0  0  0  0  0  0  0  0  0  0
   18.5865  -10.9238   13.3075 Cl  0  0  0  0  0  0  0  0  0  0  0  0
   21.8532   -8.6650   16.5216 O   0  0  0  0  0  0  0  0  0  0  0  0
   22.7585   -7.5816   16.3600 C   0  0  0  0  0  0  0  0  0  0  0  0
   15.5145   -8.9107   16.6403 C   0  0  0  0  0  0  0  0  0  0  0  0
   16.2400   -9.5134   17.4763 O   0  0  0  0  0  0  0  0  0  0  0  0
   14.6255   -7.8704   17.0706 N   0  0  0  0  0  0  0  0  0  0  0  0
   14.0838   -7.4338   16.3740 H   0  0  0  0  0  0  0  0  0  0  0  0
   14.4478   -7.4038   18.4131 C   0  0  0  0  0  0  0  0  0  0  0  0
   13.4638   -6.5515   18.7595 N   0  0  0  0  0  0  0  0  0  0  0  0
   13.4682   -6.2446   20.0564 N   0  0  0  0  0  0  0  0  0  0  0  0
   14.4512   -6.8439   20.7699 C   0  0  0  0  0  0  0  0  0  0  0  0
   15.3804   -7.8154   19.7518 S   0  0  0  0  0  0  0  0  0  0  0  0
   15.7761  -10.3935   11.0778 N   0  0  0  0  0  0  0  0  0  0  0  0
   15.2269  -11.1665   10.8128 H   0  0  0  0  0  0  0  0  0  0  0  0
   16.5683   -9.7659   10.0648 C   0  0  0  0  0  0  0  0  0  0  0  0
   16.3774  -10.0052    8.7411 N   0  0  0  0  0  0  0  0  0  0  0  0
   17.3208   -9.2265    8.1851 C   0  0  0  0  0  0  0  0  0  0  0  0
   17.6022   -9.0623    6.8313 C   0  0  0  0  0  0  0  0  0  0  0  0
   18.6486   -8.1836    6.4912 C   0  0  0  0  0  0  0  0  0  0  0  0
   19.3735   -7.5042    7.4972 C   0  0  0  0  0  0  0  0  0  0  0  0
   19.0618   -7.6942    8.8567 C   0  0  0  0  0  0  0  0  0  0  0  0
   18.0215   -8.5701    9.1528 C   0  0  0  0  0  0  0  0  0  0  0  0
   17.5468   -8.9115   10.3190 O   0  0  0  0  0  0  0  0  0  0  0  0
  1  2  1  0  0  0
  2  3  2  0  0  0
  3  4  1  0  0  0
  4  5  1  0  0  0
  5  6  2  0  0  0
  6  7  1  0  0  0
  6 27  1  0  0  0
 27 29  1  0  0  0
 29 30  2  0  0  0
 30 31  1  0  0  0
 31 32  2  0  0  0
 32 33  1  0  0  0
 33 34  2  0  0  0
 34 35  1  0  0  0
 35 36  2  0  0  0
 36 37  1  0  0  0
  4  9  1  0  0  0
  9 10  2  0  0  0
 10 11  1  0  0  0
 11 12  2  0  0  0
 12 13  1  0  0  0
 13 14  2  0  0  0
 12 16  1  0  0  0
 16 17  1  0  0  0
 10 15  1  0  0  0
  3 18  1  0  0  0
 18 19  2  0  0  0
 18 20  1  0  0  0
 20 22  1  0  0  0
 22 23  2  0  0  0
 23 24  1  0  0  0
 24 25  2  0  0  0
 25 26  1  0  0  0
  7  2  1  0  0  0
 37 29  1  0  0  0
 36 31  1  0  0  0
 14  9  1  0  0  0
 26 22  1  0  0  0
  7  8  1  0  0  0
 27 28  1  0  0  0
 20 21  1  0  0  0
M  END
>  <minimizedAffinity>
1.66413

>  <minimizedRMSD>
1.31071

$$$$
CHEMBL1574459 5351450 ChemDiv-D103-1283 LN00728428 MCULE-9913996455 MolPort-000-521-273 PubChem-4901475 ZINC000005351450 ZINC05351450


 29 31  0  0  0  0  0  0  0  0999 V2000
   17.6528  -11.3793   13.4309 N   0  0  0  0  0  0  0  0  0  0  0  0
   18.2505  -10.2008   12.8807 C   0  0  0  0  0  0  0  0  0  0  0  0
   18.9988   -9.4783   13.5931 O   0  0  0  0  0  0  0  0  0  0  0  0
   17.1106  -11.9514   12.8410 H   0  0  0  0  0  0  0  0  0  0  0  0
   18.0007   -9.8278   11.4815 C   0  0  0  0  0  0  0  0  0  0  0  0
   16.8223  -10.2322   10.8409 C   0  0  0  0  0  0  0  0  0  0  0  0
   16.6070   -9.8651    9.5139 C   0  0  0  0  0  0  0  0  0  0  0  0
   15.5491  -10.2255    8.9315 O   0  0  0  0  0  0  0  0  0  0  0  0
   17.5736   -9.0997    8.8500 C   0  0  0  0  0  0  0  0  0  0  0  0
   17.4138   -8.6999    7.5160 C   0  0  0  0  0  0  0  0  0  0  0  0
   18.4036   -7.9360    6.8909 C   0  0  0  0  0  0  0  0  0  0  0  0
   18.2006   -7.4387    5.2255 Cl  0  0  0  0  0  0  0  0  0  0  0  0
   19.5554   -7.5686    7.5936 C   0  0  0  0  0  0  0  0  0  0  0  0
   19.7228   -7.9632    8.9244 C   0  0  0  0  0  0  0  0  0  0  0  0
   18.7384   -8.7272    9.5579 C   0  0  0  0  0  0  0  0  0  0  0  0
   18.9024   -9.0999   10.8239 O   0  0  0  0  0  0  0  0  0  0  0  0
   17.8113  -11.7695   14.8254 C   0  0  0  0  0  0  0  0  0  0  0  0
   15.8103   -8.9709   17.3907 C   0  0  0  0  0  0  0  0  0  0  0  0
   15.4434   -9.0739   16.0440 C   0  0  0  0  0  0  0  0  0  0  0  0
   16.0912   -9.9889   15.2089 C   0  0  0  0  0  0  0  0  0  0  0  0
   17.1081  -10.8043   15.7184 C   0  0  0  0  0  0  0  0  0  0  0  0
   17.4796  -10.6972   17.0626 C   0  0  0  0  0  0  0  0  0  0  0  0
   16.8318   -9.7820   17.8973 C   0  0  0  0  0  0  0  0  0  0  0  0
   16.1491   -7.1239   19.5312 N   0  0  0  0  0  0  0  0  0  0  0  0
   15.0057   -7.8145   18.4351 S   0  0  0  0  0  0  0  0  0  0  0  0
   13.9332   -8.5080   19.2271 O   0  0  0  0  0  0  0  0  0  0  0  0
   14.3906   -6.7265   17.6016 O   0  0  0  0  0  0  0  0  0  0  0  0
   15.6771   -6.4522   20.1365 H   0  0  0  0  0  0  0  0  0  0  0  0
   16.8822   -6.6497   19.0037 H   0  0  0  0  0  0  0  0  0  0  0  0
 24 25  1  0  0  0
 25 26  2  0  0  0
 25 27  2  0  0  0
 25 18  1  0  0  0
 18 19  2  0  0  0
 19 20  1  0  0  0
 20 21  2  0  0  0
 21 17  1  0  0  0
 21 22  1  0  0  0
 17  1  1  0  0  0
  1  2  1  0  0  0
  2  3  2  0  0  0
  2  5  1  0  0  0
  5  6  2  0  0  0
  6  7  1  0  0  0
  7  8  2  0  0  0
  7  9  1  0  0  0
  9 10  2  0  0  0
 10 11  1  0  0  0
 11 12  1  0  0  0
 11 13  2  0  0  0
 13 14  1  0  0  0
 14 15  2  0  0  0
 15 16  1  0  0  0
 15  9  1  0  0  0
 16  5  1  0  0  0
 22 23  2  0  0  0
 23 18  1  0  0  0
 24 28  1  0  0  0
 24 29  1  0  0  0
  1  4  1  0  0  0
M  END
>  <minimizedAffinity>
-5.15558

>  <minimizedRMSD>
1.31320

$$$$
CHEMBL5082329 PubChem-156898975


 35 39  0  0  0  0  0  0  0  0999 V2000
   13.5146  -10.7384   15.2577 C   0  0  0  0  0  0  0  0  0  0  0  0
   14.6719  -10.1940   14.4872 C   0  0  0  0  0  0  0  0  0  0  0  0
   15.6345   -9.4340   15.0558 C   0  0  0  0  0  0  0  0  0  0  0  0
   16.7276   -8.8244   14.1860 C   0  0  0  0  0  0  0  0  0  0  0  0
   16.6845   -9.2198   12.7751 N   0  0  0  0  0  0  0  0  0  0  0  0
   15.7536   -9.9608   12.2587 C   0  0  0  0  0  0  0  0  0  0  0  0
   14.7074  -10.4638   13.0853 N   0  0  0  0  0  0  0  0  0  0  0  0
   13.9940  -11.0089   12.6814 H   0  0  0  0  0  0  0  0  0  0  0  0
   18.1114   -9.0271   14.7389 C   0  0  0  0  0  0  0  0  0  0  0  0
   18.5874   -8.0851   15.6586 C   0  0  0  0  0  0  0  0  0  0  0  0
   19.8647   -8.2120   16.2089 C   0  0  0  0  0  0  0  0  0  0  0  0
   20.6797   -9.2836   15.8407 C   0  0  0  0  0  0  0  0  0  0  0  0
   20.2185  -10.2273   14.9205 C   0  0  0  0  0  0  0  0  0  0  0  0
   18.9411  -10.1084   14.3637 C   0  0  0  0  0  0  0  0  0  0  0  0
   18.4318  -11.3291   13.2065 Cl  0  0  0  0  0  0  0  0  0  0  0  0
   15.6231   -9.0843   16.4998 C   0  0  0  0  0  0  0  0  0  0  0  0
   16.3047   -9.7739   17.3060 O   0  0  0  0  0  0  0  0  0  0  0  0
   14.8097   -8.0080   16.9846 N   0  0  0  0  0  0  0  0  0  0  0  0
   14.2831   -7.5035   16.3233 H   0  0  0  0  0  0  0  0  0  0  0  0
   14.7037   -7.6099   18.3545 C   0  0  0  0  0  0  0  0  0  0  0  0
   15.6966   -7.7147   19.2606 N   0  0  0  0  0  0  0  0  0  0  0  0
   15.3446   -7.2756   20.4683 N   0  0  0  0  0  0  0  0  0  0  0  0
   14.0725   -6.8159   20.5457 C   0  0  0  0  0  0  0  0  0  0  0  0
   13.3228   -6.9530   19.0398 S   0  0  0  0  0  0  0  0  0  0  0  0
   15.7732  -10.3033   10.8692 N   0  0  0  0  0  0  0  0  0  0  0  0
   15.1708  -11.0217   10.5686 H   0  0  0  0  0  0  0  0  0  0  0  0
   16.6028   -9.6796    9.8841 C   0  0  0  0  0  0  0  0  0  0  0  0
   16.4519   -9.9126    8.5542 N   0  0  0  0  0  0  0  0  0  0  0  0
   17.4194   -9.1406    8.0313 C   0  0  0  0  0  0  0  0  0  0  0  0
   17.7449   -8.9744    6.6876 C   0  0  0  0  0  0  0  0  0  0  0  0
   18.8094   -8.1040    6.3840 C   0  0  0  0  0  0  0  0  0  0  0  0
   19.5080   -7.4347    7.4149 C   0  0  0  0  0  0  0  0  0  0  0  0
   19.1518   -7.6264    8.7632 C   0  0  0  0  0  0  0  0  0  0  0  0
   18.0948   -8.4939    9.0229 C   0  0  0  0  0  0  0  0  0  0  0  0
   17.5805   -8.8349   10.1722 O   0  0  0  0  0  0  0  0  0  0  0  0
  1  2  1  0  0  0
  2  3  2  0  0  0
  3  4  1  0  0  0
  4  5  1  0  0  0
  5  6  2  0  0  0
  6  7  1  0  0  0
  6 25  1  0  0  0
 25 27  1  0  0  0
 27 28  2  0  0  0
 28 29  1  0  0  0
 29 30  2  0  0  0
 30 31  1  0  0  0
 31 32  2  0  0  0
 32 33  1  0  0  0
 33 34  2  0  0  0
 34 35  1  0  0  0
  4  9  1  0  0  0
  9 10  2  0  0  0
 10 11  1  0  0  0
 11 12  2  0  0  0
 12 13  1  0  0  0
 13 14  2  0  0  0
 14 15  1  0  0  0
  3 16  1  0  0  0
 16 17  2  0  0  0
 16 18  1  0  0  0
 18 20  1  0  0  0
 20 21  2  0  0  0
 21 22  1  0  0  0
 22 23  2  0  0  0
 23 24  1  0  0  0
  7  2  1  0  0  0
 35 27  1  0  0  0
 34 29  1  0  0  0
 14  9  1  0  0  0
 24 20  1  0  0  0
  7  8  1  0  0  0
 25 26  1  0  0  0
 18 19  1  0  0  0
M  END
>  <minimizedAffinity>
-1.02427

>  <minimizedRMSD>
1.31446

$$$$
CHEMBL1591957 8606970 ChemDiv-G357-1247 MCULE-8547534861 MolPort-007-847-458 PubChem-16027414 ZINC000008606970 ZINC08606970


 33 37  0  0  0  0  0  0  0  0999 V2000
   17.9421  -10.3583   14.2170 C   0  0  0  0  0  0  0  0  0  0  0  0
   18.7634  -11.2864   14.4566 O   0  0  0  0  0  0  0  0  0  0  0  0
   15.9031   -8.4004   17.4382 C   0  0  0  0  0  0  0  0  0  0  0  0
   15.6296   -8.0522   16.1073 C   0  0  0  0  0  0  0  0  0  0  0  0
   16.2955   -8.6918   15.0582 C   0  0  0  0  0  0  0  0  0  0  0  0
   17.2435   -9.6877   15.3253 C   0  0  0  0  0  0  0  0  0  0  0  0
   17.5167  -10.0355   16.6554 C   0  0  0  0  0  0  0  0  0  0  0  0
   16.8498   -9.3950   17.7037 C   0  0  0  0  0  0  0  0  0  0  0  0
   13.2346   -7.1684   17.4857 O   0  0  0  0  0  0  0  0  0  0  0  0
   13.9335   -7.1722   18.5355 C   0  0  0  0  0  0  0  0  0  0  0  0
   15.2406   -7.7670   18.5412 N   0  0  0  0  0  0  0  0  0  0  0  0
   15.7342   -7.7368   19.3925 H   0  0  0  0  0  0  0  0  0  0  0  0
   13.4044   -6.5609   19.7675 C   0  0  0  0  0  0  0  0  0  0  0  0
   14.1373   -6.6248   20.9618 C   0  0  0  0  0  0  0  0  0  0  0  0
   13.6362   -6.0453   22.1312 C   0  0  0  0  0  0  0  0  0  0  0  0
   12.3983   -5.3972   22.1149 C   0  0  0  0  0  0  0  0  0  0  0  0
   11.6612   -5.3286   20.9297 C   0  0  0  0  0  0  0  0  0  0  0  0
   12.1623   -5.9083   19.7603 C   0  0  0  0  0  0  0  0  0  0  0  0
   17.6915   -9.9626   12.9013 O   0  0  0  0  0  0  0  0  0  0  0  0
   17.8855  -10.8409   11.8025 C   0  0  0  0  0  0  0  0  0  0  0  0
   17.8023  -10.0738   10.5317 C   0  0  0  0  0  0  0  0  0  0  0  0
   16.5520   -9.8531    9.9305 C   0  0  0  0  0  0  0  0  0  0  0  0
   16.4964   -9.1034    8.7504 C   0  0  0  0  0  0  0  0  0  0  0  0
   15.3912   -8.8898    8.1852 O   0  0  0  0  0  0  0  0  0  0  0  0
   17.6524   -8.6117    8.2310 N   0  0  0  0  0  0  0  0  0  0  0  0
   17.7361   -7.8802    7.1223 N   0  0  0  0  0  0  0  0  0  0  0  0
   19.0146   -7.5274    6.8375 C   0  0  0  0  0  0  0  0  0  0  0  0
   20.1059   -8.1081    8.0041 S   0  0  0  0  0  0  0  0  0  0  0  0
   18.8390   -8.8324    8.8346 C   0  0  0  0  0  0  0  0  0  0  0  0
   18.9339   -9.5516    9.9795 N   0  0  0  0  0  0  0  0  0  0  0  0
   19.3915   -6.6598    5.6820 C   0  0  0  0  0  0  0  0  0  0  0  0
   19.9121   -7.5143    4.5409 C   0  0  0  0  0  0  0  0  0  0  0  0
   20.8833   -6.7660    5.4251 C   0  0  0  0  0  0  0  0  0  0  0  0
  9 10  2  0  0  0
 10 11  1  0  0  0
 10 13  1  0  0  0
 11  3  1  0  0  0
  3  4  2  0  0  0
  4  5  1  0  0  0
  5  6  2  0  0  0
  6  7  1  0  0  0
  6  1  1  0  0  0
  7  8  2  0  0  0
  8  3  1  0  0  0
  1  2  2  0  0  0
  1 19  1  0  0  0
 19 20  1  0  0  0
 20 21  1  0  0  0
 21 22  2  0  0  0
 22 23  1  0  0  0
 23 24  2  0  0  0
 23 25  1  0  0  0
 25 26  1  0  0  0
 26 27  2  0  0  0
 27 28  1  0  0  0
 27 31  1  0  0  0
 28 29  1  0  0  0
 29 30  2  0  0  0
 29 25  1  0  0  0
 30 21  1  0  0  0
 31 32  1  0  0  0
 32 33  1  0  0  0
 33 31  1  0  0  0
 13 14  2  0  0  0
 14 15  1  0  0  0
 15 16  2  0  0  0
 16 17  1  0  0  0
 17 18  2  0  0  0
 18 13  1  0  0  0
 11 12  1  0  0  0
M  END
>  <minimizedAffinity>
-5.16593

>  <minimizedRMSD>
1.31457

$$$$
CHEMBL2141820 12534966 CSC026378958 MCULE-2876706197 MolPort-009-505-292 PubChem-25341395 Z30382723 ZINC000012534966 ZINC12534966


 32 34  0  0  0  0  0  0  0  0999 V2000
   16.6013   -9.4068   15.9731 N   0  0  0  0  0  0  0  0  0  0  0  0
   16.4748   -8.6249   14.7723 C   0  0  0  0  0  0  0  0  0  0  0  0
   16.7112   -7.3869   14.7930 O   0  0  0  0  0  0  0  0  0  0  0  0
   17.5817  -11.5995   16.4283 C   0  0  0  0  0  0  0  0  0  0  0  0
   16.3543  -10.8443   15.9514 C   0  0  0  0  0  0  0  0  0  0  0  0
   16.9744   -8.7790   17.2373 C   0  0  0  0  0  0  0  0  0  0  0  0
   15.8260   -8.0077   17.7917 C   0  0  0  0  0  0  0  0  0  0  0  0
   14.9520   -7.5472   17.0111 O   0  0  0  0  0  0  0  0  0  0  0  0
   15.7482   -7.7754   19.2015 N   0  0  0  0  0  0  0  0  0  0  0  0
   16.5625   -7.9392   19.7300 H   0  0  0  0  0  0  0  0  0  0  0  0
   14.5860   -7.3244   19.9110 C   0  0  0  0  0  0  0  0  0  0  0  0
   13.2802   -7.6060   19.4578 C   0  0  0  0  0  0  0  0  0  0  0  0
   13.0674   -8.3497   18.3443 F   0  0  0  0  0  0  0  0  0  0  0  0
   12.1750   -7.1685   20.1943 C   0  0  0  0  0  0  0  0  0  0  0  0
   12.3568   -6.4623   21.3850 C   0  0  0  0  0  0  0  0  0  0  0  0
   13.6471   -6.2035   21.8518 C   0  0  0  0  0  0  0  0  0  0  0  0
   14.7578   -6.6420   21.1253 C   0  0  0  0  0  0  0  0  0  0  0  0
   16.0033   -6.3852   21.5961 F   0  0  0  0  0  0  0  0  0  0  0  0
   16.1078   -9.2638   13.4735 C   0  0  0  0  0  0  0  0  0  0  0  0
   17.3638   -9.5484   12.6710 C   0  0  0  0  0  0  0  0  0  0  0  0
   17.0924  -10.6073   11.6164 C   0  0  0  0  0  0  0  0  0  0  0  0
   15.7092  -10.1153   10.5385 S   0  0  0  0  0  0  0  0  0  0  0  0
   16.7925   -9.4390    9.2862 C   0  0  0  0  0  0  0  0  0  0  0  0
   16.7136   -9.7988    7.9785 N   0  0  0  0  0  0  0  0  0  0  0  0
   17.6843   -9.0619    7.4218 C   0  0  0  0  0  0  0  0  0  0  0  0
   18.0598   -9.0252    6.0815 C   0  0  0  0  0  0  0  0  0  0  0  0
   19.1163   -8.1651    5.7299 C   0  0  0  0  0  0  0  0  0  0  0  0
   19.7590   -7.3789    6.7125 C   0  0  0  0  0  0  0  0  0  0  0  0
   19.3525   -7.4429    8.0581 C   0  0  0  0  0  0  0  0  0  0  0  0
   18.3032   -8.3034    8.3685 C   0  0  0  0  0  0  0  0  0  0  0  0
   17.7541   -8.5227    9.5707 N   0  0  0  0  0  0  0  0  0  0  0  0
   17.9879   -8.1220   10.4390 H   0  0  0  0  0  0  0  0  0  0  0  0
  4  5  1  0  0  0
  5  1  1  0  0  0
  1  6  1  0  0  0
  1  2  1  0  0  0
  6  7  1  0  0  0
  7  8  2  0  0  0
  7  9  1  0  0  0
  9 11  1  0  0  0
 11 12  2  0  0  0
 12 13  1  0  0  0
 12 14  1  0  0  0
 14 15  2  0  0  0
 15 16  1  0  0  0
 16 17  2  0  0  0
 17 18  1  0  0  0
 17 11  1  0  0  0
  2  3  2  0  0  0
  2 19  1  0  0  0
 19 20  1  0  0  0
 20 21  1  0  0  0
 21 22  1  0  0  0
 22 23  1  0  0  0
 23 24  2  0  0  0
 24 25  1  0  0  0
 25 26  2  0  0  0
 26 27  1  0  0  0
 27 28  2  0  0  0
 28 29  1  0  0  0
 29 30  2  0  0  0
 30 31  1  0  0  0
 30 25  1  0  0  0
 31 23  1  0  0  0
  9 10  1  0  0  0
 31 32  1  0  0  0
M  END
>  <minimizedAffinity>
-7.43445

>  <minimizedRMSD>
1.31905

$$$$
CHEMBL3671295 PubChem-91899756


 27 30  0  0  0  0  0  0  0  0999 V2000
   16.5029   -9.2172   14.5737 C   0  0  0  0  0  0  0  0  0  0  0  0
   15.9445   -8.4471   13.5432 C   0  0  0  0  0  0  0  0  0  0  0  0
   16.0426   -8.8582   12.2132 C   0  0  0  0  0  0  0  0  0  0  0  0
   16.7076  -10.0487   11.8881 C   0  0  0  0  0  0  0  0  0  0  0  0
   17.2539  -10.8279   12.9104 C   0  0  0  0  0  0  0  0  0  0  0  0
   17.1594  -10.4257   14.2464 C   0  0  0  0  0  0  0  0  0  0  0  0
   17.8002  -11.2847   15.2844 C   0  0  0  0  0  0  0  0  0  0  0  0
   18.8540   -8.8731   16.3994 C   0  0  0  0  0  0  0  0  0  0  0  0
   17.4595   -8.5605   16.8280 C   0  0  0  0  0  0  0  0  0  0  0  0
   17.2532   -8.1101   18.0941 N   0  0  0  0  0  0  0  0  0  0  0  0
   16.0299   -7.8398   18.5525 N   0  0  0  0  0  0  0  0  0  0  0  0
   14.9319   -8.0065   17.7730 C   0  0  0  0  0  0  0  0  0  0  0  0
   13.7884   -7.7458   18.2276 O   0  0  0  0  0  0  0  0  0  0  0  0
   15.0787   -8.4661   16.4680 C   0  0  0  0  0  0  0  0  0  0  0  0
   16.3546   -8.7543   15.9744 C   0  0  0  0  0  0  0  0  0  0  0  0
   15.9217   -7.5128   19.4747 H   0  0  0  0  0  0  0  0  0  0  0  0
   16.8064  -10.5015   10.5662 O   0  0  0  0  0  0  0  0  0  0  0  0
   17.1417   -9.6996    9.4670 C   0  0  0  0  0  0  0  0  0  0  0  0
   16.3466   -9.7178    8.3564 N   0  0  0  0  0  0  0  0  0  0  0  0
   16.6297   -8.9698    7.2446 C   0  0  0  0  0  0  0  0  0  0  0  0
   17.7741   -8.1560    7.2035 C   0  0  0  0  0  0  0  0  0  0  0  0
   18.5886   -8.1546    8.3311 C   0  0  0  0  0  0  0  0  0  0  0  0
   19.7407   -7.4876    8.4849 N   0  0  0  0  0  0  0  0  0  0  0  0
   20.1812   -7.8377    9.7183 C   0  0  0  0  0  0  0  0  0  0  0  0
   19.3091   -8.7288   10.3451 C   0  0  0  0  0  0  0  0  0  0  0  0
   18.2926   -8.9018    9.4321 C   0  0  0  0  0  0  0  0  0  0  0  0
   20.1721   -6.8778    7.8436 H   0  0  0  0  0  0  0  0  0  0  0  0
  8  9  1  0  0  0
  9 10  2  0  0  0
 10 11  1  0  0  0
 11 12  1  0  0  0
 12 13  2  0  0  0
 12 14  1  0  0  0
 14 15  2  0  0  0
 15  1  1  0  0  0
  1  2  2  0  0  0
  2  3  1  0  0  0
  3  4  2  0  0  0
  4 17  1  0  0  0
 17 18  1  0  0  0
 18 19  2  0  0  0
 19 20  1  0  0  0
 20 21  2  0  0  0
 21 22  1  0  0  0
 22 23  1  0  0  0
 23 24  1  0  0  0
 24 25  2  0  0  0
 25 26  1  0  0  0
  4  5  1  0  0  0
  5  6  2  0  0  0
  6  7  1  0  0  0
 15  9  1  0  0  0
  6  1  1  0  0  0
 26 18  1  0  0  0
 26 22  2  0  0  0
 11 16  1  0  0  0
 23 27  1  0  0  0
M  END
>  <minimizedAffinity>
-5.02882

>  <minimizedRMSD>
1.32082

$$$$
CHEMBL4901898 95375714 MCULE-6559969007 MolPort-028-588-616 PubChem-72898272 ZINC000095375714 ZINC95375714


 24 27  0  0  0  0  0  0  0  0999 V2000
   15.8928   -7.8014   16.0741 O   0  0  0  0  0  0  0  0  0  0  0  0
   16.4034   -8.9515   16.0291 C   0  0  0  0  0  0  0  0  0  0  0  0
   16.6817   -9.6156   17.2655 N   0  0  0  0  0  0  0  0  0  0  0  0
   17.1566  -10.9810   17.3886 C   0  0  0  0  0  0  0  0  0  0  0  0
   18.4596  -11.1290   16.6405 C   0  0  0  0  0  0  0  0  0  0  0  0
   18.1837  -11.6310   15.2372 C   0  0  0  0  0  0  0  0  0  0  0  0
   17.4110  -10.6830   14.3652 C   0  0  0  0  0  0  0  0  0  0  0  0
   16.6699   -9.5522   14.7020 C   0  0  0  0  0  0  0  0  0  0  0  0
   16.1780   -9.0094   13.5720 N   0  0  0  0  0  0  0  0  0  0  0  0
   16.6115   -9.8264   12.5933 C   0  0  0  0  0  0  0  0  0  0  0  0
   17.3676  -10.8507   13.0316 N   0  0  0  0  0  0  0  0  0  0  0  0
   16.5399   -9.1070   18.0965 H   0  0  0  0  0  0  0  0  0  0  0  0
   17.7920  -11.5606   12.4975 H   0  0  0  0  0  0  0  0  0  0  0  0
   16.3288   -9.5860   11.1524 C   0  0  0  0  0  0  0  0  0  0  0  0
   17.5699   -9.0311   10.4703 C   0  0  0  0  0  0  0  0  0  0  0  0
   17.5003   -9.1800    9.0193 N   0  0  0  0  0  0  0  0  0  0  0  0
   16.6452   -9.9488    8.3486 N   0  0  0  0  0  0  0  0  0  0  0  0
   16.8490   -9.8567    7.0344 N   0  0  0  0  0  0  0  0  0  0  0  0
   17.8722   -8.9959    6.8849 C   0  0  0  0  0  0  0  0  0  0  0  0
   18.4760   -8.5550    5.7116 C   0  0  0  0  0  0  0  0  0  0  0  0
   19.5406   -7.6413    5.8449 C   0  0  0  0  0  0  0  0  0  0  0  0
   19.9619   -7.2040    7.1238 C   0  0  0  0  0  0  0  0  0  0  0  0
   19.3252   -7.6733    8.2895 C   0  0  0  0  0  0  0  0  0  0  0  0
   18.2781   -8.5747    8.1131 C   0  0  0  0  0  0  0  0  0  0  0  0
  1  2  2  0  0  0
  2  3  1  0  0  0
  3  4  1  0  0  0
  4  5  1  0  0  0
  5  6  1  0  0  0
  6  7  1  0  0  0
  7  8  2  0  0  0
  8  9  1  0  0  0
  8  2  1  0  0  0
  9 10  2  0  0  0
 10 14  1  0  0  0
 10 11  1  0  0  0
 14 15  1  0  0  0
 15 16  1  0  0  0
 16 17  1  0  0  0
 17 18  2  0  0  0
 18 19  1  0  0  0
 19 20  2  0  0  0
 20 21  1  0  0  0
 21 22  2  0  0  0
 22 23  1  0  0  0
 23 24  2  0  0  0
 24 16  1  0  0  0
 24 19  1  0  0  0
 11  7  1  0  0  0
  3 12  1  0  0  0
 11 13  1  0  0  0
M  END
>  <minimizedAffinity>
-8.03930

>  <minimizedRMSD>
1.32105

$$$$
CHEMBL1584312


 26 29  0  0  0  0  0  0  0  0999 V2000
   16.3445  -10.3695   11.1418 N   0  0  0  0  0  0  0  0  0  0  0  0
   16.6597  -11.2451   11.4629 H   0  0  0  0  0  0  0  0  0  0  0  0
   17.9502   -8.5893    5.9825 C   0  0  0  0  0  0  0  0  0  0  0  0
   17.5836   -9.0284    7.3611 C   0  0  0  0  0  0  0  0  0  0  0  0
   16.4327   -9.7263    7.5438 N   0  0  0  0  0  0  0  0  0  0  0  0
   16.0488  -10.1472    8.7501 N   0  0  0  0  0  0  0  0  0  0  0  0
   16.7884   -9.9009    9.8652 C   0  0  0  0  0  0  0  0  0  0  0  0
   17.9869   -9.1861    9.7455 C   0  0  0  0  0  0  0  0  0  0  0  0
   18.7837   -8.9085   10.8657 C   0  0  0  0  0  0  0  0  0  0  0  0
   19.9756   -8.1938   10.7225 C   0  0  0  0  0  0  0  0  0  0  0  0
   20.3799   -7.7518    9.4605 C   0  0  0  0  0  0  0  0  0  0  0  0
   19.5937   -8.0230    8.3378 C   0  0  0  0  0  0  0  0  0  0  0  0
   18.3944   -8.7401    8.4693 C   0  0  0  0  0  0  0  0  0  0  0  0
   15.4437   -9.5964   11.9814 C   0  0  0  0  0  0  0  0  0  0  0  0
   16.0595   -9.3978   13.3277 C   0  0  0  0  0  0  0  0  0  0  0  0
   15.6861   -8.3219   14.0695 N   0  0  0  0  0  0  0  0  0  0  0  0
   16.2158   -8.0757   15.2692 N   0  0  0  0  0  0  0  0  0  0  0  0
   17.1622   -8.8851   15.8112 C   0  0  0  0  0  0  0  0  0  0  0  0
   17.6844   -8.5880   17.0652 O   0  0  0  0  0  0  0  0  0  0  0  0
   17.5988  -10.0055   15.0974 C   0  0  0  0  0  0  0  0  0  0  0  0
   18.5776  -10.8616   15.6196 C   0  0  0  0  0  0  0  0  0  0  0  0
   19.0012  -11.9738   14.8872 C   0  0  0  0  0  0  0  0  0  0  0  0
   18.4502  -12.2367   13.6303 C   0  0  0  0  0  0  0  0  0  0  0  0
   17.4734  -11.3885   13.1017 C   0  0  0  0  0  0  0  0  0  0  0  0
   17.0401  -10.2688   13.8284 C   0  0  0  0  0  0  0  0  0  0  0  0
   17.3821   -7.8338   17.5319 H   0  0  0  0  0  0  0  0  0  0  0  0
  3  4  1  0  0  0
  4  5  2  0  0  0
  5  6  1  0  0  0
  6  7  2  0  0  0
  7  1  1  0  0  0
  7  8  1  0  0  0
  1 14  1  0  0  0
 14 15  1  0  0  0
 15 16  2  0  0  0
 16 17  1  0  0  0
 17 18  2  0  0  0
 18 19  1  0  0  0
 18 20  1  0  0  0
 20 21  2  0  0  0
 21 22  1  0  0  0
 22 23  2  0  0  0
 23 24  1  0  0  0
 24 25  2  0  0  0
 25 15  1  0  0  0
 25 20  1  0  0  0
  8  9  2  0  0  0
  9 10  1  0  0  0
 10 11  2  0  0  0
 11 12  1  0  0  0
 12 13  2  0  0  0
 13  4  1  0  0  0
 13  8  1  0  0  0
  1  2  1  0  0  0
 19 26  1  0  0  0
M  END
>  <minimizedAffinity>
-6.50160

>  <minimizedRMSD>
1.32629

$$$$
CHEMBL4591742 31948946 CSC027420541 MCULE-1473473088 MolPort-009-181-910 PubChem-39165458 Z354315678 ZINC000031948946


 27 29  0  0  0  0  0  0  0  0999 V2000
   17.6408   -9.6192   15.3221 C   0  0  0  0  0  0  0  0  0  0  0  0
   16.9691   -9.5567   14.0960 C   0  0  0  0  0  0  0  0  0  0  0  0
   17.1560  -10.5616   13.1411 C   0  0  0  0  0  0  0  0  0  0  0  0
   18.0252  -11.6251   13.4078 C   0  0  0  0  0  0  0  0  0  0  0  0
   18.6949  -11.6906   14.6333 C   0  0  0  0  0  0  0  0  0  0  0  0
   18.5014  -10.6895   15.5900 C   0  0  0  0  0  0  0  0  0  0  0  0
   17.3986   -8.3682   16.5300 S   0  0  0  0  0  0  0  0  0  0  0  0
   16.9395   -7.0984   15.8666 O   0  0  0  0  0  0  0  0  0  0  0  0
   18.7001   -8.1020   17.2324 O   0  0  0  0  0  0  0  0  0  0  0  0
   16.2147   -8.8802   17.6872 N   0  0  0  0  0  0  0  0  0  0  0  0
   15.5721   -9.5440   17.2548 H   0  0  0  0  0  0  0  0  0  0  0  0
   14.1066   -7.6943   17.5003 C   0  0  0  0  0  0  0  0  0  0  0  0
   15.4844   -7.7037   18.1314 C   0  0  0  0  0  0  0  0  0  0  0  0
   15.3471   -7.7349   19.6389 C   0  0  0  0  0  0  0  0  0  0  0  0
   16.4657  -10.4749   11.8263 C   0  0  0  0  0  0  0  0  0  0  0  0
   17.1739   -9.5430   10.9631 N   0  0  0  0  0  0  0  0  0  0  0  0
   17.7279   -8.8413   11.3752 H   0  0  0  0  0  0  0  0  0  0  0  0
   17.0938   -9.6099    9.5364 C   0  0  0  0  0  0  0  0  0  0  0  0
   17.9549   -8.8421    8.7409 C   0  0  0  0  0  0  0  0  0  0  0  0
   17.8318   -8.9365    7.3388 C   0  0  0  0  0  0  0  0  0  0  0  0
   18.6730   -8.1857    6.5123 C   0  0  0  0  0  0  0  0  0  0  0  0
   19.6359   -7.3422    7.0755 C   0  0  0  0  0  0  0  0  0  0  0  0
   19.7601   -7.2464    8.4654 C   0  0  0  0  0  0  0  0  0  0  0  0
   18.9217   -7.9938    9.2982 C   0  0  0  0  0  0  0  0  0  0  0  0
   16.8965   -9.7564    6.7950 N   0  0  0  0  0  0  0  0  0  0  0  0
   16.0721  -10.4921    7.5854 C   0  0  0  0  0  0  0  0  0  0  0  0
   16.1733  -10.4158    8.9387 N   0  0  0  0  0  0  0  0  0  0  0  0
 12 13  1  0  0  0
 13 10  1  0  0  0
 10  7  1  0  0  0
  7  1  1  0  0  0
  1  2  2  0  0  0
  2  3  1  0  0  0
  3 15  1  0  0  0
 15 16  1  0  0  0
 16 18  1  0  0  0
 18 19  1  0  0  0
 19 20  1  0  0  0
 20 21  2  0  0  0
 21 22  1  0  0  0
 22 23  2  0  0  0
 23 24  1  0  0  0
 20 25  1  0  0  0
 25 26  2  0  0  0
 26 27  1  0  0  0
  3  4  2  0  0  0
  4  5  1  0  0  0
  5  6  2  0  0  0
  7  8  2  0  0  0
  7  9  2  0  0  0
 13 14  1  0  0  0
  6  1  1  0  0  0
 27 18  2  0  0  0
 24 19  2  0  0  0
 10 11  1  0  0  0
 16 17  1  0  0  0
M  END
>  <minimizedAffinity>
-3.42632

>  <minimizedRMSD>
1.33089

$$$$
CHEMBL1515772 ChemDiv-G357-3492 MCULE-3792526251 MolPort-007-848-007 PubChem-16027671 ZINC000008607842


 32 35  0  0  0  0  0  0  0  0999 V2000
   17.7342  -10.4250   14.2503 C   0  0  0  0  0  0  0  0  0  0  0  0
   18.4322  -11.4405   14.5250 O   0  0  0  0  0  0  0  0  0  0  0  0
   17.0498   -9.6882   15.3248 C   0  0  0  0  0  0  0  0  0  0  0  0
   17.3852   -9.9104   16.6678 C   0  0  0  0  0  0  0  0  0  0  0  0
   16.7312   -9.2080   17.6840 C   0  0  0  0  0  0  0  0  0  0  0  0
   15.7362   -8.2756   17.3732 C   0  0  0  0  0  0  0  0  0  0  0  0
   15.3994   -8.0544   16.0296 C   0  0  0  0  0  0  0  0  0  0  0  0
   16.0523   -8.7559   15.0126 C   0  0  0  0  0  0  0  0  0  0  0  0
   15.0860   -7.5784   18.4442 N   0  0  0  0  0  0  0  0  0  0  0  0
   13.8069   -6.9303   18.3972 C   0  0  0  0  0  0  0  0  0  0  0  0
   13.1329   -6.9051   17.3322 O   0  0  0  0  0  0  0  0  0  0  0  0
   15.5678   -7.5405   19.3019 H   0  0  0  0  0  0  0  0  0  0  0  0
   13.2782   -6.2855   19.6045 C   0  0  0  0  0  0  0  0  0  0  0  0
   12.0072   -5.7502   19.7470 C   0  0  0  0  0  0  0  0  0  0  0  0
   11.7891   -5.2005   21.0189 C   0  0  0  0  0  0  0  0  0  0  0  0
   12.8773   -5.2975   21.8834 C   0  0  0  0  0  0  0  0  0  0  0  0
   14.1109   -6.0745   21.0445 S   0  0  0  0  0  0  0  0  0  0  0  0
   17.6089   -9.9942   12.9279 O   0  0  0  0  0  0  0  0  0  0  0  0
   18.0975  -10.7620   11.8379 C   0  0  0  0  0  0  0  0  0  0  0  0
   17.7105   -8.4938    8.3045 N   0  0  0  0  0  0  0  0  0  0  0  0
   17.7425   -7.7374    7.2100 N   0  0  0  0  0  0  0  0  0  0  0  0
   18.9784   -7.2327    6.9772 C   0  0  0  0  0  0  0  0  0  0  0  0
   20.1032   -7.7314    8.1467 S   0  0  0  0  0  0  0  0  0  0  0  0
   18.8994   -8.5984    8.9348 C   0  0  0  0  0  0  0  0  0  0  0  0
   19.0443   -9.3293   10.0671 N   0  0  0  0  0  0  0  0  0  0  0  0
   17.9626   -9.9819   10.5795 C   0  0  0  0  0  0  0  0  0  0  0  0
   16.7107   -9.8846    9.9495 C   0  0  0  0  0  0  0  0  0  0  0  0
   16.6030   -9.1203    8.7825 C   0  0  0  0  0  0  0  0  0  0  0  0
   15.4959   -9.0172    8.1908 O   0  0  0  0  0  0  0  0  0  0  0  0
   19.3049   -6.3724    5.8045 C   0  0  0  0  0  0  0  0  0  0  0  0
   19.9100   -7.1962    4.6791 C   0  0  0  0  0  0  0  0  0  0  0  0
   21.4055   -7.3563    4.8799 C   0  0  0  0  0  0  0  0  0  0  0  0
 20 21  1  0  0  0
 21 22  2  0  0  0
 22 23  1  0  0  0
 23 24  1  0  0  0
 24 25  2  0  0  0
 25 26  1  0  0  0
 26 19  1  0  0  0
 19 18  1  0  0  0
 18  1  1  0  0  0
  1  2  2  0  0  0
  1  3  1  0  0  0
  3  4  2  0  0  0
  4  5  1  0  0  0
  5  6  2  0  0  0
  6  7  1  0  0  0
  7  8  2  0  0  0
  6  9  1  0  0  0
  9 10  1  0  0  0
 10 11  2  0  0  0
 10 13  1  0  0  0
 13 14  2  0  0  0
 14 15  1  0  0  0
 15 16  2  0  0  0
 16 17  1  0  0  0
 26 27  2  0  0  0
 27 28  1  0  0  0
 28 29  2  0  0  0
 22 30  1  0  0  0
 30 31  1  0  0  0
 31 32  1  0  0  0
 24 20  1  0  0  0
  8  3  1  0  0  0
 17 13  1  0  0  0
 28 20  1  0  0  0
  9 12  1  0  0  0
M  END
>  <minimizedAffinity>
-4.57806

>  <minimizedRMSD>
1.33245

$$$$
CHEMBL2113973 24658660 CSC026553499 MCULE-5014528181 MolPort-009-539-442 PubChem-31981178 Z367550756 ZINC000024658660


 24 26  0  0  0  0  0  0  0  0999 V2000
   17.1122   -9.0471   15.9408 C   0  0  0  0  0  0  0  0  0  0  0  0
   17.0184   -9.6023   14.6596 C   0  0  0  0  0  0  0  0  0  0  0  0
   18.1686  -10.0544   14.0044 C   0  0  0  0  0  0  0  0  0  0  0  0
   19.4170   -9.9364   14.6244 C   0  0  0  0  0  0  0  0  0  0  0  0
   19.5133   -9.3786   15.9027 C   0  0  0  0  0  0  0  0  0  0  0  0
   18.3621   -8.9343   16.5600 C   0  0  0  0  0  0  0  0  0  0  0  0
   16.0513   -8.0571   18.3907 N   0  0  0  0  0  0  0  0  0  0  0  0
   15.6701   -8.4744   16.7579 S   0  0  0  0  0  0  0  0  0  0  0  0
   15.1335   -7.2662   16.0441 O   0  0  0  0  0  0  0  0  0  0  0  0
   14.6285   -9.5577   16.7651 O   0  0  0  0  0  0  0  0  0  0  0  0
   16.7582   -7.3217   18.3975 H   0  0  0  0  0  0  0  0  0  0  0  0
   16.4107   -8.8787   18.8766 H   0  0  0  0  0  0  0  0  0  0  0  0
   18.0690  -10.6223   12.6332 C   0  0  0  0  0  0  0  0  0  0  0  0
   18.3132   -9.5780   11.6515 N   0  0  0  0  0  0  0  0  0  0  0  0
   18.9798   -8.8818   11.8519 H   0  0  0  0  0  0  0  0  0  0  0  0
   17.6167   -9.5303   10.4057 C   0  0  0  0  0  0  0  0  0  0  0  0
   18.1108   -8.7863    9.3419 C   0  0  0  0  0  0  0  0  0  0  0  0
   17.4319   -8.7471    8.1468 C   0  0  0  0  0  0  0  0  0  0  0  0
   18.0391   -7.9623    7.1637 C   0  0  0  0  0  0  0  0  0  0  0  0
   19.2276   -7.3735    7.6105 C   0  0  0  0  0  0  0  0  0  0  0  0
   19.4900   -7.8465    9.2187 S   0  0  0  0  0  0  0  0  0  0  0  0
   16.2719   -9.4328    7.9891 N   0  0  0  0  0  0  0  0  0  0  0  0
   15.7802  -10.1663    9.0306 C   0  0  0  0  0  0  0  0  0  0  0  0
   16.4481  -10.2116   10.2235 N   0  0  0  0  0  0  0  0  0  0  0  0
  7  8  1  0  0  0
  8  1  1  0  0  0
  1  2  2  0  0  0
  2  3  1  0  0  0
  3 13  1  0  0  0
 13 14  1  0  0  0
 14 16  1  0  0  0
 16 17  1  0  0  0
 17 18  2  0  0  0
 18 19  1  0  0  0
 19 20  2  0  0  0
 20 21  1  0  0  0
 18 22  1  0  0  0
 22 23  2  0  0  0
 23 24  1  0  0  0
  3  4  2  0  0  0
  4  5  1  0  0  0
  5  6  2  0  0  0
  8  9  2  0  0  0
  8 10  2  0  0  0
  6  1  1  0  0  0
 24 16  2  0  0  0
 21 17  1  0  0  0
  7 11  1  0  0  0
  7 12  1  0  0  0
 14 15  1  0  0  0
M  END
>  <minimizedAffinity>
-5.88700

>  <minimizedRMSD>
1.33438

$$$$
CHEMBL1437588 8603734 ChemDiv-C679-5375 MCULE-1237684829 MolPort-007-656-084 PubChem-16009492 ZINC000008603734 ZINC08603734


 30 33  0  0  0  0  0  0  0  0999 V2000
   16.7643   -9.3841   14.1560 C   0  0  0  0  0  0  0  0  0  0  0  0
   18.0270   -9.9909   14.2459 C   0  0  0  0  0  0  0  0  0  0  0  0
   18.6545  -10.1274   15.4865 C   0  0  0  0  0  0  0  0  0  0  0  0
   18.0250   -9.6593   16.6428 C   0  0  0  0  0  0  0  0  0  0  0  0
   16.7669   -9.0527   16.5683 C   0  0  0  0  0  0  0  0  0  0  0  0
   16.1425   -8.9188   15.3189 C   0  0  0  0  0  0  0  0  0  0  0  0
   16.1542   -8.5854   17.7780 N   0  0  0  0  0  0  0  0  0  0  0  0
   14.9736   -7.7751   17.8906 C   0  0  0  0  0  0  0  0  0  0  0  0
   14.3594   -7.3981   16.8562 O   0  0  0  0  0  0  0  0  0  0  0  0
   16.5893   -8.8481   18.6211 H   0  0  0  0  0  0  0  0  0  0  0  0
   14.4828   -7.3858   19.2318 C   0  0  0  0  0  0  0  0  0  0  0  0
   13.3811   -6.5199   19.4060 C   0  0  0  0  0  0  0  0  0  0  0  0
   12.7164   -6.0008   18.3436 F   0  0  0  0  0  0  0  0  0  0  0  0
   12.9530   -6.1797   20.6932 C   0  0  0  0  0  0  0  0  0  0  0  0
   13.6095   -6.6922   21.8137 C   0  0  0  0  0  0  0  0  0  0  0  0
   14.6992   -7.5487   21.6515 C   0  0  0  0  0  0  0  0  0  0  0  0
   15.1320   -7.8923   20.3687 C   0  0  0  0  0  0  0  0  0  0  0  0
   16.1092   -9.2319   12.9316 O   0  0  0  0  0  0  0  0  0  0  0  0
   16.0430  -10.2692   11.9620 C   0  0  0  0  0  0  0  0  0  0  0  0
   18.4062   -8.6161    5.9535 C   0  0  0  0  0  0  0  0  0  0  0  0
   18.6770   -8.4071    7.4059 C   0  0  0  0  0  0  0  0  0  0  0  0
   19.7501   -7.6174    7.8294 C   0  0  0  0  0  0  0  0  0  0  0  0
   19.7383   -7.6127    9.5219 S   0  0  0  0  0  0  0  0  0  0  0  0
   18.3927   -8.5988    9.6291 C   0  0  0  0  0  0  0  0  0  0  0  0
   17.8059   -9.0180   10.7767 N   0  0  0  0  0  0  0  0  0  0  0  0
   16.7128   -9.8258   10.7110 C   0  0  0  0  0  0  0  0  0  0  0  0
   16.1909  -10.2064    9.4675 C   0  0  0  0  0  0  0  0  0  0  0  0
   16.8212   -9.7550    8.3031 C   0  0  0  0  0  0  0  0  0  0  0  0
   16.3629  -10.0942    7.1799 O   0  0  0  0  0  0  0  0  0  0  0  0
   17.9233   -8.9515    8.4116 N   0  0  0  0  0  0  0  0  0  0  0  0
 20 21  1  0  0  0
 21 22  2  0  0  0
 22 23  1  0  0  0
 23 24  1  0  0  0
 24 25  2  0  0  0
 25 26  1  0  0  0
 26 19  1  0  0  0
 26 27  2  0  0  0
 19 18  1  0  0  0
 18  1  1  0  0  0
  1  2  2  0  0  0
  2  3  1  0  0  0
  3  4  2  0  0  0
  4  5  1  0  0  0
  5  7  1  0  0  0
  5  6  2  0  0  0
  7  8  1  0  0  0
  8  9  2  0  0  0
  8 11  1  0  0  0
 11 12  2  0  0  0
 12 13  1  0  0  0
 12 14  1  0  0  0
 14 15  2  0  0  0
 15 16  1  0  0  0
 16 17  2  0  0  0
 17 11  1  0  0  0
  6  1  1  0  0  0
 27 28  1  0  0  0
 28 29  2  0  0  0
 28 30  1  0  0  0
 30 21  1  0  0  0
 30 24  1  0  0  0
  7 10  1  0  0  0
M  END
>  <minimizedAffinity>
-8.94728

>  <minimizedRMSD>
1.33786

$$$$
CHEMBL3939312 PubChem-56948862


 39 44  0  0  0  0  0  0  0  0999 V2000
   17.2298  -10.7393   15.3912 C   0  0  0  0  0  0  0  0  0  0  0  0
   17.7079  -10.6838   16.7103 C   0  0  0  0  0  0  0  0  0  0  0  0
   17.2170   -9.7366   17.6108 C   0  0  0  0  0  0  0  0  0  0  0  0
   16.2335   -8.8253   17.2112 C   0  0  0  0  0  0  0  0  0  0  0  0
   15.7413   -8.8823   15.9017 C   0  0  0  0  0  0  0  0  0  0  0  0
   16.2286   -9.8280   14.9949 C   0  0  0  0  0  0  0  0  0  0  0  0
   15.6847   -9.8682   13.7567 F   0  0  0  0  0  0  0  0  0  0  0  0
   15.7178   -7.8232   18.1596 C   0  0  0  0  0  0  0  0  0  0  0  0
   14.6428   -7.2115   17.9102 O   0  0  0  0  0  0  0  0  0  0  0  0
   16.4352   -7.5436   19.3657 N   0  0  0  0  0  0  0  0  0  0  0  0
   17.2614   -8.0455   19.5520 H   0  0  0  0  0  0  0  0  0  0  0  0
   15.9894   -6.5430   20.3305 C   0  0  0  0  0  0  0  0  0  0  0  0
   17.1633   -5.9646   21.1641 C   0  0  0  0  0  0  0  0  0  0  0  0
   18.4077   -6.4297   20.7305 O   0  0  0  0  0  0  0  0  0  0  0  0
   16.9447   -6.3650   22.6297 C   0  0  0  0  0  0  0  0  0  0  0  0
   15.6553   -7.0856   22.6118 C   0  0  0  0  0  0  0  0  0  0  0  0
   14.9956   -7.6262   23.7161 C   0  0  0  0  0  0  0  0  0  0  0  0
   13.7679   -8.2747   23.5132 C   0  0  0  0  0  0  0  0  0  0  0  0
   13.2231   -8.3704   22.2206 C   0  0  0  0  0  0  0  0  0  0  0  0
   13.9047   -7.8202   21.1246 C   0  0  0  0  0  0  0  0  0  0  0  0
   15.1279   -7.1835   21.3489 C   0  0  0  0  0  0  0  0  0  0  0  0
   18.4417   -7.3948   20.8212 H   0  0  0  0  0  0  0  0  0  0  0  0
   17.8222  -13.1167   14.9081 C   0  0  0  0  0  0  0  0  0  0  0  0
   17.7719  -11.7252   14.4853 N   0  0  0  0  0  0  0  0  0  0  0  0
   18.5451  -11.3902   13.2863 C   0  0  0  0  0  0  0  0  0  0  0  0
   19.3439  -10.1000   13.4346 C   0  0  0  0  0  0  0  0  0  0  0  0
   19.1978   -9.3668   12.1141 C   0  0  0  0  0  0  0  0  0  0  0  0
   18.1525  -10.0582   11.3800 N   0  0  0  0  0  0  0  0  0  0  0  0
   17.6684  -11.2440   12.0595 C   0  0  0  0  0  0  0  0  0  0  0  0
   17.6247   -9.6345   10.1106 C   0  0  0  0  0  0  0  0  0  0  0  0
   16.4213  -10.1186    9.6767 N   0  0  0  0  0  0  0  0  0  0  0  0
   15.8815   -9.7392    8.4772 C   0  0  0  0  0  0  0  0  0  0  0  0
   16.5392   -8.8558    7.6714 N   0  0  0  0  0  0  0  0  0  0  0  0
   17.7321   -8.3677    8.0875 C   0  0  0  0  0  0  0  0  0  0  0  0
   18.4947   -7.4961    7.4150 N   0  0  0  0  0  0  0  0  0  0  0  0
   19.5721   -7.3057    8.2162 C   0  0  0  0  0  0  0  0  0  0  0  0
   19.4854   -8.0569    9.3909 C   0  0  0  0  0  0  0  0  0  0  0  0
   18.2885   -8.7287    9.2743 C   0  0  0  0  0  0  0  0  0  0  0  0
   18.3142   -7.0866    6.5381 H   0  0  0  0  0  0  0  0  0  0  0  0
 23 24  1  0  0  0
 25 24  1  0  0  0
 25 26  1  0  0  0
 26 27  1  0  0  0
 27 28  1  0  0  0
 28 29  1  0  0  0
 28 30  1  0  0  0
 30 31  2  0  0  0
 31 32  1  0  0  0
 32 33  2  0  0  0
 33 34  1  0  0  0
 34 35  1  0  0  0
 35 36  1  0  0  0
 36 37  2  0  0  0
 37 38  1  0  0  0
 24  1  1  0  0  0
  1  2  2  0  0  0
  2  3  1  0  0  0
  3  4  2  0  0  0
  4  5  1  0  0  0
  5  6  2  0  0  0
  6  7  1  0  0  0
  4  8  1  0  0  0
  8  9  2  0  0  0
  8 10  1  0  0  0
 10 12  1  0  0  0
 12 13  1  0  0  0
 13 14  1  0  0  0
 13 15  1  0  0  0
 15 16  1  0  0  0
 16 17  2  0  0  0
 17 18  1  0  0  0
 18 19  2  0  0  0
 19 20  1  0  0  0
 20 21  2  0  0  0
 29 25  1  0  0  0
 38 30  1  0  0  0
  6  1  1  0  0  0
 21 12  1  0  0  0
 38 34  2  0  0  0
 21 16  1  0  0  0
 35 39  1  0  0  0
 10 11  1  0  0  0
 14 22  1  0  0  0
M  END
>  <minimizedAffinity>
-3.18617

>  <minimizedRMSD>
1.33970

$$$$
CHEMBL3665178 PubChem-160805093 PubChem-58177345


 33 36  0  0  0  0  0  0  0  0999 V2000
   16.9896   -9.7535   12.4716 N   0  0  0  0  0  0  0  0  0  0  0  0
   17.7122   -9.5672   11.8295 H   0  0  0  0  0  0  0  0  0  0  0  0
   17.2759   -8.2688   15.9231 N   0  0  0  0  0  0  0  0  0  0  0  0
   18.1875   -9.3096   16.4257 C   0  0  0  0  0  0  0  0  0  0  0  0
   19.3158   -9.5914   15.4361 C   0  0  0  0  0  0  0  0  0  0  0  0
   18.7623  -10.1161   14.1078 C   0  0  0  0  0  0  0  0  0  0  0  0
   17.2948   -9.7431   13.8918 C   0  0  0  0  0  0  0  0  0  0  0  0
   16.9980   -8.3607   14.4762 C   0  0  0  0  0  0  0  0  0  0  0  0
   15.7694   -8.4363   16.7699 S   0  0  0  0  0  0  0  0  0  0  0  0
   14.7193   -7.5934   16.1002 O   0  0  0  0  0  0  0  0  0  0  0  0
   15.3301   -9.8741   16.7327 O   0  0  0  0  0  0  0  0  0  0  0  0
   15.9701   -7.9590   18.4389 N   0  0  0  0  0  0  0  0  0  0  0  0
   16.4109   -8.7294   18.9416 H   0  0  0  0  0  0  0  0  0  0  0  0
   14.8201   -8.0827   20.5595 C   0  0  0  0  0  0  0  0  0  0  0  0
   14.7133   -7.6214   19.1217 C   0  0  0  0  0  0  0  0  0  0  0  0
   13.5390   -8.3492   18.4912 C   0  0  0  0  0  0  0  0  0  0  0  0
   14.4525   -6.1231   19.1363 C   0  0  0  0  0  0  0  0  0  0  0  0
   15.6767  -10.0249   11.9725 C   0  0  0  0  0  0  0  0  0  0  0  0
   15.3800   -9.9056   10.5916 C   0  0  0  0  0  0  0  0  0  0  0  0
   14.0687  -10.1888   10.1773 C   0  0  0  0  0  0  0  0  0  0  0  0
   13.0927  -10.5725   11.0937 C   0  0  0  0  0  0  0  0  0  0  0  0
   13.4309  -10.6749   12.4393 C   0  0  0  0  0  0  0  0  0  0  0  0
   14.6981  -10.4027   12.8436 N   0  0  0  0  0  0  0  0  0  0  0  0
   16.3857   -9.4970    9.5699 C   0  0  0  0  0  0  0  0  0  0  0  0
   16.3029   -9.9992    8.2415 C   0  0  0  0  0  0  0  0  0  0  0  0
   17.2218   -9.6269    7.3008 N   0  0  0  0  0  0  0  0  0  0  0  0
   18.2058   -8.7725    7.6673 C   0  0  0  0  0  0  0  0  0  0  0  0
   18.2929   -8.2891    8.9268 C   0  0  0  0  0  0  0  0  0  0  0  0
   17.4021   -8.6342    9.8861 N   0  0  0  0  0  0  0  0  0  0  0  0
   19.3776   -7.4540    9.0073 C   0  0  0  0  0  0  0  0  0  0  0  0
   19.9034   -7.4936    7.7085 C   0  0  0  0  0  0  0  0  0  0  0  0
   19.1846   -8.3025    6.8849 N   0  0  0  0  0  0  0  0  0  0  0  0
   19.3467   -8.4973    5.9336 H   0  0  0  0  0  0  0  0  0  0  0  0
 14 15  1  0  0  0
 15 16  1  0  0  0
 15 17  1  0  0  0
 15 12  1  0  0  0
 12  9  1  0  0  0
  9 10  2  0  0  0
  9 11  2  0  0  0
  9  3  1  0  0  0
  3  4  1  0  0  0
  4  5  1  0  0  0
  5  6  1  0  0  0
  6  7  1  0  0  0
  7  8  1  0  0  0
  7  1  1  0  0  0
  8  3  1  0  0  0
  1 18  1  0  0  0
 18 19  1  0  0  0
 19 20  2  0  0  0
 19 24  1  0  0  0
 20 21  1  0  0  0
 21 22  2  0  0  0
 22 23  1  0  0  0
 23 18  2  0  0  0
 24 25  2  0  0  0
 25 26  1  0  0  0
 26 27  2  0  0  0
 27 28  1  0  0  0
 28 29  2  0  0  0
 28 30  1  0  0  0
 29 24  1  0  0  0
 30 31  2  0  0  0
 31 32  1  0  0  0
 32 27  1  0  0  0
 12 13  1  0  0  0
  1  2  1  0  0  0
 32 33  1  0  0  0
M  END
>  <minimizedAffinity>
-1.24004

>  <minimizedRMSD>
1.34408

$$$$
CHEMBL3902351 PubChem-89743522


 31 34  0  0  0  0  0  0  0  0999 V2000
   17.9488  -13.0894   15.1387 C   0  0  0  0  0  0  0  0  0  0  0  0
   17.9810  -11.6694   14.8194 N   0  0  0  0  0  0  0  0  0  0  0  0
   17.2682  -10.7181   15.6401 C   0  0  0  0  0  0  0  0  0  0  0  0
   17.5517  -10.6020   17.0090 C   0  0  0  0  0  0  0  0  0  0  0  0
   16.8508   -9.6780   17.7841 C   0  0  0  0  0  0  0  0  0  0  0  0
   15.8699   -8.8708   17.1996 C   0  0  0  0  0  0  0  0  0  0  0  0
   15.6130   -9.0133   15.8313 C   0  0  0  0  0  0  0  0  0  0  0  0
   16.3073   -9.9198   15.0934 N   0  0  0  0  0  0  0  0  0  0  0  0
   15.1223   -7.8922   18.0077 C   0  0  0  0  0  0  0  0  0  0  0  0
   14.3373   -7.0791   17.4468 O   0  0  0  0  0  0  0  0  0  0  0  0
   15.2886   -7.8608   19.4292 N   0  0  0  0  0  0  0  0  0  0  0  0
   15.9247   -8.4878   19.8434 H   0  0  0  0  0  0  0  0  0  0  0  0
   14.5565   -6.9406   20.2886 C   0  0  0  0  0  0  0  0  0  0  0  0
   13.0610   -7.1853   20.1780 C   0  0  0  0  0  0  0  0  0  0  0  0
   12.6871   -8.2305   21.0227 O   0  0  0  0  0  0  0  0  0  0  0  0
   13.1604   -9.0377   20.7673 H   0  0  0  0  0  0  0  0  0  0  0  0
   18.7586  -11.2806   13.6426 C   0  0  0  0  0  0  0  0  0  0  0  0
   19.3364   -9.8778   13.7890 C   0  0  0  0  0  0  0  0  0  0  0  0
   19.0693   -9.1684   12.4746 C   0  0  0  0  0  0  0  0  0  0  0  0
   18.1781  -10.0315   11.7208 N   0  0  0  0  0  0  0  0  0  0  0  0
   17.9120  -11.2931   12.3825 C   0  0  0  0  0  0  0  0  0  0  0  0
   17.5997   -9.6993   10.4463 C   0  0  0  0  0  0  0  0  0  0  0  0
   16.3875  -10.2234   10.0902 N   0  0  0  0  0  0  0  0  0  0  0  0
   15.8003   -9.9311    8.8887 C   0  0  0  0  0  0  0  0  0  0  0  0
   16.4172   -9.0970    8.0023 N   0  0  0  0  0  0  0  0  0  0  0  0
   17.6178   -8.5696    8.3408 C   0  0  0  0  0  0  0  0  0  0  0  0
   18.3446   -7.7375    7.5841 N   0  0  0  0  0  0  0  0  0  0  0  0
   19.4477   -7.4828    8.3304 C   0  0  0  0  0  0  0  0  0  0  0  0
   19.4130   -8.1546    9.5549 C   0  0  0  0  0  0  0  0  0  0  0  0
   18.2212   -8.8447    9.5276 C   0  0  0  0  0  0  0  0  0  0  0  0
   18.1273   -7.3897    6.6891 H   0  0  0  0  0  0  0  0  0  0  0  0
  1  2  1  0  0  0
 17  2  1  0  0  0
 17 18  1  0  0  0
 18 19  1  0  0  0
 19 20  1  0  0  0
 20 21  1  0  0  0
 20 22  1  0  0  0
 22 23  2  0  0  0
 23 24  1  0  0  0
 24 25  2  0  0  0
 25 26  1  0  0  0
 26 27  1  0  0  0
 27 28  1  0  0  0
 28 29  2  0  0  0
 29 30  1  0  0  0
  2  3  1  0  0  0
  3  4  2  0  0  0
  4  5  1  0  0  0
  5  6  2  0  0  0
  6  7  1  0  0  0
  7  8  2  0  0  0
  6  9  1  0  0  0
  9 10  2  0  0  0
  9 11  1  0  0  0
 11 13  1  0  0  0
 13 14  1  0  0  0
 14 15  1  0  0  0
 21 17  1  0  0  0
 30 22  1  0  0  0
  8  3  1  0  0  0
 30 26  2  0  0  0
 27 31  1  0  0  0
 11 12  1  0  0  0
 15 16  1  0  0  0
M  END
>  <minimizedAffinity>
-4.88486

>  <minimizedRMSD>
1.34597

$$$$
CHEMBL3902351 PubChem-89743522


 31 34  0  0  0  0  0  0  0  0999 V2000
   17.9206  -13.1068   15.0846 C   0  0  0  0  0  0  0  0  0  0  0  0
   17.9836  -11.6827   14.7896 N   0  0  0  0  0  0  0  0  0  0  0  0
   17.2998  -10.7294   15.6324 C   0  0  0  0  0  0  0  0  0  0  0  0
   17.5989  -10.6417   17.0001 C   0  0  0  0  0  0  0  0  0  0  0  0
   16.9262   -9.7152   17.7968 C   0  0  0  0  0  0  0  0  0  0  0  0
   15.9577   -8.8774   17.2351 C   0  0  0  0  0  0  0  0  0  0  0  0
   15.6846   -8.9919   15.8673 C   0  0  0  0  0  0  0  0  0  0  0  0
   16.3516   -9.9014   15.1081 N   0  0  0  0  0  0  0  0  0  0  0  0
   15.2404   -7.8950   18.0659 C   0  0  0  0  0  0  0  0  0  0  0  0
   14.3139   -7.2008   17.5644 O   0  0  0  0  0  0  0  0  0  0  0  0
   15.5938   -7.7275   19.4413 N   0  0  0  0  0  0  0  0  0  0  0  0
   16.3182   -8.2775   19.8181 H   0  0  0  0  0  0  0  0  0  0  0  0
   14.9162   -6.7700   20.3010 C   0  0  0  0  0  0  0  0  0  0  0  0
   15.5007   -6.8286   21.6992 C   0  0  0  0  0  0  0  0  0  0  0  0
   16.7856   -6.2855   21.7000 O   0  0  0  0  0  0  0  0  0  0  0  0
   17.3517   -6.7934   21.0980 H   0  0  0  0  0  0  0  0  0  0  0  0
   18.7609  -11.2916   13.6132 C   0  0  0  0  0  0  0  0  0  0  0  0
   19.3419   -9.8907   13.7637 C   0  0  0  0  0  0  0  0  0  0  0  0
   19.0757   -9.1766   12.4516 C   0  0  0  0  0  0  0  0  0  0  0  0
   18.1818  -10.0353   11.6958 N   0  0  0  0  0  0  0  0  0  0  0  0
   17.9128  -11.2981   12.3540 C   0  0  0  0  0  0  0  0  0  0  0  0
   17.6034   -9.6978   10.4227 C   0  0  0  0  0  0  0  0  0  0  0  0
   16.3927  -10.2228   10.0631 N   0  0  0  0  0  0  0  0  0  0  0  0
   15.8057   -9.9257    8.8627 C   0  0  0  0  0  0  0  0  0  0  0  0
   16.4212   -9.0855    7.9810 N   0  0  0  0  0  0  0  0  0  0  0  0
   17.6203   -8.5571    8.3231 C   0  0  0  0  0  0  0  0  0  0  0  0
   18.3457   -7.7195    7.5711 N   0  0  0  0  0  0  0  0  0  0  0  0
   19.4477   -7.4660    8.3195 C   0  0  0  0  0  0  0  0  0  0  0  0
   19.4138   -8.1442    9.5405 C   0  0  0  0  0  0  0  0  0  0  0  0
   18.2236   -8.8370    9.5087 C   0  0  0  0  0  0  0  0  0  0  0  0
   18.1283   -7.3675    6.6777 H   0  0  0  0  0  0  0  0  0  0  0  0
  1  2  1  0  0  0
 17  2  1  0  0  0
 17 18  1  0  0  0
 18 19  1  0  0  0
 19 20  1  0  0  0
 20 21  1  0  0  0
 20 22  1  0  0  0
 22 23  2  0  0  0
 23 24  1  0  0  0
 24 25  2  0  0  0
 25 26  1  0  0  0
 26 27  1  0  0  0
 27 28  1  0  0  0
 28 29  2  0  0  0
 29 30  1  0  0  0
  2  3  1  0  0  0
  3  4  2  0  0  0
  4  5  1  0  0  0
  5  6  2  0  0  0
  6  7  1  0  0  0
  7  8  2  0  0  0
  6  9  1  0  0  0
  9 10  2  0  0  0
  9 11  1  0  0  0
 11 13  1  0  0  0
 13 14  1  0  0  0
 14 15  1  0  0  0
 21 17  1  0  0  0
 30 22  1  0  0  0
  8  3  1  0  0  0
 30 26  2  0  0  0
 27 31  1  0  0  0
 11 12  1  0  0  0
 15 16  1  0  0  0
M  END
>  <minimizedAffinity>
-5.07526

>  <minimizedRMSD>
1.34795

$$$$
CHEMBL5000161 69743363 CSC027361411 MCULE-9493941945 MolPort-020-089-614 PubChem-53601978 Z1167393277 ZINC000069743363


 27 30  0  0  0  0  0  0  0  0999 V2000
   16.9206  -10.1230   11.0620 S   0  0  0  0  0  0  0  0  0  0  0  0
   17.5883  -11.2386   10.3066 O   0  0  0  0  0  0  0  0  0  0  0  0
   15.4422  -10.1367   10.7909 O   0  0  0  0  0  0  0  0  0  0  0  0
   18.2763  -11.3975   17.7100 O   0  0  0  0  0  0  0  0  0  0  0  0
   17.6457  -10.6140   16.9529 C   0  0  0  0  0  0  0  0  0  0  0  0
   17.6133  -10.6936   15.4995 C   0  0  0  0  0  0  0  0  0  0  0  0
   16.8218   -9.6650   15.0520 C   0  0  0  0  0  0  0  0  0  0  0  0
   16.5847   -9.4586   13.6950 C   0  0  0  0  0  0  0  0  0  0  0  0
   17.1845  -10.3453   12.7813 C   0  0  0  0  0  0  0  0  0  0  0  0
   17.9990  -11.4030   13.2451 C   0  0  0  0  0  0  0  0  0  0  0  0
   18.2218  -11.5875   14.6210 C   0  0  0  0  0  0  0  0  0  0  0  0
   16.3546   -8.9364   16.2227 C   0  0  0  0  0  0  0  0  0  0  0  0
   15.6043   -7.9261   16.1986 O   0  0  0  0  0  0  0  0  0  0  0  0
   16.8610   -9.5166   17.4278 N   0  0  0  0  0  0  0  0  0  0  0  0
   16.7070   -9.2306   18.3571 H   0  0  0  0  0  0  0  0  0  0  0  0
   17.6063   -8.6029   10.5882 N   0  0  0  0  0  0  0  0  0  0  0  0
   17.5005   -7.8564   11.2213 H   0  0  0  0  0  0  0  0  0  0  0  0
   18.3114   -8.3165    9.3719 C   0  0  0  0  0  0  0  0  0  0  0  0
   17.8772   -8.6993    8.0904 C   0  0  0  0  0  0  0  0  0  0  0  0
   18.5976   -8.3941    6.9680 C   0  0  0  0  0  0  0  0  0  0  0  0
   17.9807   -8.8626    5.8749 N   0  0  0  0  0  0  0  0  0  0  0  0
   16.8708   -9.4663    6.2855 N   0  0  0  0  0  0  0  0  0  0  0  0
   16.7720   -9.3877    7.6351 C   0  0  0  0  0  0  0  0  0  0  0  0
   19.7971   -7.6909    7.0209 C   0  0  0  0  0  0  0  0  0  0  0  0
   20.2596   -7.2934    8.2867 C   0  0  0  0  0  0  0  0  0  0  0  0
   19.5230   -7.6038    9.4494 C   0  0  0  0  0  0  0  0  0  0  0  0
   18.2908   -8.7761    4.9446 H   0  0  0  0  0  0  0  0  0  0  0  0
  4  5  2  0  0  0
  5  6  1  0  0  0
  6  7  2  0  0  0
  7  8  1  0  0  0
  8  9  2  0  0  0
  9  1  1  0  0  0
  1 16  1  0  0  0
 16 18  1  0  0  0
 18 19  1  0  0  0
 19 20  2  0  0  0
 20 21  1  0  0  0
 21 22  1  0  0  0
 22 23  2  0  0  0
 20 24  1  0  0  0
 24 25  2  0  0  0
 25 26  1  0  0  0
  1  2  2  0  0  0
  1  3  2  0  0  0
  9 10  1  0  0  0
 10 11  2  0  0  0
  7 12  1  0  0  0
 12 13  2  0  0  0
 12 14  1  0  0  0
 14  5  1  0  0  0
 11  6  1  0  0  0
 26 18  2  0  0  0
 23 19  1  0  0  0
 16 17  1  0  0  0
 21 27  1  0  0  0
 14 15  1  0  0  0
M  END
>  <minimizedAffinity>
-4.91025

>  <minimizedRMSD>
1.35350

$$$$
CHEMBL3352837


 37 41  0  0  0  0  0  0  0  0999 V2000
   16.0408   -9.0208   17.3635 C   0  0  0  0  0  0  0  0  0  0  0  0
   15.9569   -8.7266   15.9962 C   0  0  0  0  0  0  0  0  0  0  0  0
   16.5858   -9.5392   15.0411 C   0  0  0  0  0  0  0  0  0  0  0  0
   17.3073  -10.6664   15.4732 C   0  0  0  0  0  0  0  0  0  0  0  0
   17.3935  -10.9639   16.8361 C   0  0  0  0  0  0  0  0  0  0  0  0
   16.7642  -10.1461   17.7767 C   0  0  0  0  0  0  0  0  0  0  0  0
   17.9911  -11.5630   14.4982 C   0  0  0  0  0  0  0  0  0  0  0  0
   15.3754   -8.1566   18.3541 C   0  0  0  0  0  0  0  0  0  0  0  0
   14.6009   -7.2406   17.9641 O   0  0  0  0  0  0  0  0  0  0  0  0
   15.6144   -8.3647   19.7547 N   0  0  0  0  0  0  0  0  0  0  0  0
   16.2292   -9.0960   19.9925 H   0  0  0  0  0  0  0  0  0  0  0  0
   15.0523   -7.6198   20.8435 C   0  0  0  0  0  0  0  0  0  0  0  0
   14.4108   -6.3869   20.6481 C   0  0  0  0  0  0  0  0  0  0  0  0
   13.8747   -5.6887   21.7341 C   0  0  0  0  0  0  0  0  0  0  0  0
   13.9760   -6.2187   23.0232 C   0  0  0  0  0  0  0  0  0  0  0  0
   14.6134   -7.4459   23.2252 C   0  0  0  0  0  0  0  0  0  0  0  0
   15.1493   -8.1427   22.1379 C   0  0  0  0  0  0  0  0  0  0  0  0
   13.2204   -4.4284   21.5246 C   0  0  0  0  0  0  0  0  0  0  0  0
   12.6928   -3.4123   21.3555 N   0  0  0  0  0  0  0  0  0  0  0  0
   16.5032   -9.2480   13.6362 N   0  0  0  0  0  0  0  0  0  0  0  0
   16.6474  -10.0088   13.0282 H   0  0  0  0  0  0  0  0  0  0  0  0
   16.2360   -7.9827   13.0099 C   0  0  0  0  0  0  0  0  0  0  0  0
   16.2353   -7.8728   11.5993 C   0  0  0  0  0  0  0  0  0  0  0  0
   16.0054   -6.6101   11.0339 C   0  0  0  0  0  0  0  0  0  0  0  0
   15.7839   -5.4960   11.8397 C   0  0  0  0  0  0  0  0  0  0  0  0
   15.7921   -5.6494   13.2229 C   0  0  0  0  0  0  0  0  0  0  0  0
   16.0169   -6.8720   13.7694 N   0  0  0  0  0  0  0  0  0  0  0  0
   16.4444   -9.0473   10.7100 C   0  0  0  0  0  0  0  0  0  0  0  0
   15.8757  -10.2567   11.0075 N   0  0  0  0  0  0  0  0  0  0  0  0
   16.0393  -11.3529   10.2010 C   0  0  0  0  0  0  0  0  0  0  0  0
   16.7838  -11.2678    9.0593 N   0  0  0  0  0  0  0  0  0  0  0  0
   17.3465  -10.0750    8.7546 C   0  0  0  0  0  0  0  0  0  0  0  0
   18.1152   -9.8040    7.6931 N   0  0  0  0  0  0  0  0  0  0  0  0
   18.4211   -8.4912    7.8794 C   0  0  0  0  0  0  0  0  0  0  0  0
   17.8759   -7.9529    9.0044 N   0  0  0  0  0  0  0  0  0  0  0  0
   17.1980   -8.9820    9.5334 C   0  0  0  0  0  0  0  0  0  0  0  0
   18.3901  -10.4033    6.9619 H   0  0  0  0  0  0  0  0  0  0  0  0
  8  9  2  0  0  0
  8  1  1  0  0  0
  1  2  2  0  0  0
  2  3  1  0  0  0
  3  4  2  0  0  0
  4  5  1  0  0  0
  5  6  2  0  0  0
  4  7  1  0  0  0
  3 20  1  0  0  0
 20 22  1  0  0  0
 22 23  1  0  0  0
 23 24  2  0  0  0
 24 25  1  0  0  0
 25 26  2  0  0  0
 26 27  1  0  0  0
 23 28  1  0  0  0
 28 29  2  0  0  0
 29 30  1  0  0  0
 30 31  2  0  0  0
 31 32  1  0  0  0
 32 33  1  0  0  0
 33 34  1  0  0  0
 34 35  2  0  0  0
 35 36  1  0  0  0
  8 10  1  0  0  0
 10 12  1  0  0  0
 12 13  2  0  0  0
 13 14  1  0  0  0
 14 15  2  0  0  0
 15 16  1  0  0  0
 16 17  2  0  0  0
 14 18  1  0  0  0
 18 19  3  0  0  0
  6  1  1  0  0  0
 27 22  2  0  0  0
 36 28  1  0  0  0
 17 12  1  0  0  0
 36 32  2  0  0  0
 20 21  1  0  0  0
 33 37  1  0  0  0
 10 11  1  0  0  0
M  END
>  <minimizedAffinity>
10.53734

>  <minimizedRMSD>
1.35373

$$$$
CHEMBL5094239 PubChem-72949376


 36 41  0  0  0  0  0  0  0  0999 V2000
   19.2974  -11.3573   14.0762 C   0  0  0  0  0  0  0  0  0  0  0  0
   18.3102  -10.5862   14.8868 C   0  0  0  0  0  0  0  0  0  0  0  0
   17.3077   -9.8026   14.2831 C   0  0  0  0  0  0  0  0  0  0  0  0
   16.4043   -9.0966   15.0840 C   0  0  0  0  0  0  0  0  0  0  0  0
   16.4864   -9.1615   16.4811 C   0  0  0  0  0  0  0  0  0  0  0  0
   17.4866   -9.9425   17.0744 C   0  0  0  0  0  0  0  0  0  0  0  0
   18.3925  -10.6507   16.2809 C   0  0  0  0  0  0  0  0  0  0  0  0
   15.5340   -8.4119   17.3165 C   0  0  0  0  0  0  0  0  0  0  0  0
   14.3975   -7.8537   16.8181 N   0  0  0  0  0  0  0  0  0  0  0  0
   13.8536   -7.2826   17.9014 C   0  0  0  0  0  0  0  0  0  0  0  0
   14.6396   -7.4979   18.9914 C   0  0  0  0  0  0  0  0  0  0  0  0
   15.7192   -8.2145   18.6501 N   0  0  0  0  0  0  0  0  0  0  0  0
   14.3086   -7.0074   20.2516 C   0  0  0  0  0  0  0  0  0  0  0  0
   13.1127   -6.2724   20.3679 C   0  0  0  0  0  0  0  0  0  0  0  0
   12.3011   -6.0440   19.2328 C   0  0  0  0  0  0  0  0  0  0  0  0
   12.6684   -6.5557   17.9745 C   0  0  0  0  0  0  0  0  0  0  0  0
   16.4604   -8.5212   19.2210 H   0  0  0  0  0  0  0  0  0  0  0  0
   12.7188   -5.7010   21.6865 C   0  0  0  0  0  0  0  0  0  0  0  0
   13.8969   -5.2312   22.3977 N   0  0  0  0  0  0  0  0  0  0  0  0
   14.2440   -6.2670   23.3727 C   0  0  0  0  0  0  0  0  0  0  0  0
   15.3172   -5.7783   24.3587 C   0  0  0  0  0  0  0  0  0  0  0  0
   15.7936   -4.4419   24.0021 N   0  0  0  0  0  0  0  0  0  0  0  0
   14.6609   -3.5138   24.0087 C   0  0  0  0  0  0  0  0  0  0  0  0
   13.5137   -4.0148   23.1169 C   0  0  0  0  0  0  0  0  0  0  0  0
   16.6897   -4.0184   25.0621 C   0  0  0  0  0  0  0  0  0  0  0  0
   17.1884   -9.7018   12.8514 C   0  0  0  0  0  0  0  0  0  0  0  0
   17.0906   -9.6193   11.6529 C   0  0  0  0  0  0  0  0  0  0  0  0
   16.9778   -9.5239   10.2231 C   0  0  0  0  0  0  0  0  0  0  0  0
   16.0232  -10.1393    9.4247 C   0  0  0  0  0  0  0  0  0  0  0  0
   16.2577   -9.8026    8.1269 N   0  0  0  0  0  0  0  0  0  0  0  0
   17.3394   -8.9997    8.1828 C   0  0  0  0  0  0  0  0  0  0  0  0
   17.7871   -8.8190    9.4277 N   0  0  0  0  0  0  0  0  0  0  0  0
   18.8427   -8.0698    9.7400 N   0  0  0  0  0  0  0  0  0  0  0  0
   19.5205   -7.4395    8.7385 C   0  0  0  0  0  0  0  0  0  0  0  0
   19.0949   -7.5922    7.4042 C   0  0  0  0  0  0  0  0  0  0  0  0
   17.9779   -8.3903    7.1096 C   0  0  0  0  0  0  0  0  0  0  0  0
  1  2  1  0  0  0
  2  3  2  0  0  0
  3  4  1  0  0  0
  3 26  1  0  0  0
  4  5  2  0  0  0
  5  6  1  0  0  0
  5  8  1  0  0  0
  6  7  2  0  0  0
  7  2  1  0  0  0
  8  9  2  0  0  0
  9 10  1  0  0  0
 10 11  2  0  0  0
 11 12  1  0  0  0
 11 13  1  0  0  0
 12  8  1  0  0  0
 13 14  2  0  0  0
 14 15  1  0  0  0
 14 18  1  0  0  0
 15 16  2  0  0  0
 16 10  1  0  0  0
 18 19  1  0  0  0
 19 20  1  0  0  0
 20 21  1  0  0  0
 21 22  1  0  0  0
 22 23  1  0  0  0
 22 25  1  0  0  0
 23 24  1  0  0  0
 24 19  1  0  0  0
 26 27  3  0  0  0
 27 28  1  0  0  0
 28 29  2  0  0  0
 29 30  1  0  0  0
 30 31  2  0  0  0
 31 32  1  0  0  0
 32 33  1  0  0  0
 32 28  1  0  0  0
 33 34  2  0  0  0
 34 35  1  0  0  0
 35 36  2  0  0  0
 36 31  1  0  0  0
 12 17  1  0  0  0
M  END
>  <minimizedAffinity>
-12.50591

>  <minimizedRMSD>
1.36154

$$$$
CHEMBL3354840


 38 42  0  0  0  0  0  0  0  0999 V2000
   16.7517  -10.1334   17.0522 C   0  0  0  0  0  0  0  0  0  0  0  0
   16.5320   -9.6785   15.7448 C   0  0  0  0  0  0  0  0  0  0  0  0
   17.1016  -10.3360   14.6445 C   0  0  0  0  0  0  0  0  0  0  0  0
   17.9020  -11.4705   14.8681 C   0  0  0  0  0  0  0  0  0  0  0  0
   18.1229  -11.9266   16.1707 C   0  0  0  0  0  0  0  0  0  0  0  0
   17.5505  -11.2609   17.2567 C   0  0  0  0  0  0  0  0  0  0  0  0
   18.5281  -12.2069   13.7332 C   0  0  0  0  0  0  0  0  0  0  0  0
   15.4000   -8.2696   18.1869 C   0  0  0  0  0  0  0  0  0  0  0  0
   15.1499   -7.6702   17.1058 O   0  0  0  0  0  0  0  0  0  0  0  0
   16.1800   -9.4755   18.1909 N   0  0  0  0  0  0  0  0  0  0  0  0
   16.3388   -9.8945   19.0675 H   0  0  0  0  0  0  0  0  0  0  0  0
   14.8872   -7.7274   19.4574 C   0  0  0  0  0  0  0  0  0  0  0  0
   14.0335   -6.6150   19.4610 C   0  0  0  0  0  0  0  0  0  0  0  0
   13.5374   -6.0880   20.6648 C   0  0  0  0  0  0  0  0  0  0  0  0
   13.9111   -6.6955   21.8744 C   0  0  0  0  0  0  0  0  0  0  0  0
   14.7610   -7.8038   21.8800 C   0  0  0  0  0  0  0  0  0  0  0  0
   15.2470   -8.3177   20.6760 C   0  0  0  0  0  0  0  0  0  0  0  0
   12.6612   -4.9453   20.6581 N   0  0  0  0  0  0  0  0  0  0  0  0
   12.2026   -4.3538   19.4102 C   0  0  0  0  0  0  0  0  0  0  0  0
   12.2019   -4.3395   21.8988 C   0  0  0  0  0  0  0  0  0  0  0  0
   16.8798   -9.8797   13.2999 N   0  0  0  0  0  0  0  0  0  0  0  0
   17.1069  -10.5167   12.5844 H   0  0  0  0  0  0  0  0  0  0  0  0
   16.3670   -8.6072   12.8720 C   0  0  0  0  0  0  0  0  0  0  0  0
   16.2051   -8.3320   11.4936 C   0  0  0  0  0  0  0  0  0  0  0  0
   15.7357   -7.0638   11.1227 C   0  0  0  0  0  0  0  0  0  0  0  0
   15.4373   -6.1025   12.0853 C   0  0  0  0  0  0  0  0  0  0  0  0
   15.6101   -6.4158   13.4301 C   0  0  0  0  0  0  0  0  0  0  0  0
   16.0666   -7.6436   13.7881 N   0  0  0  0  0  0  0  0  0  0  0  0
   16.4916   -9.3445   10.4416 C   0  0  0  0  0  0  0  0  0  0  0  0
   16.0170  -10.6235   10.5573 N   0  0  0  0  0  0  0  0  0  0  0  0
   16.2532  -11.5743    9.5986 C   0  0  0  0  0  0  0  0  0  0  0  0
   16.9780  -11.2673    8.4825 N   0  0  0  0  0  0  0  0  0  0  0  0
   17.4478  -10.0040    8.3571 C   0  0  0  0  0  0  0  0  0  0  0  0
   18.1839   -9.5236    7.3478 N   0  0  0  0  0  0  0  0  0  0  0  0
   18.3935   -8.2333    7.7254 C   0  0  0  0  0  0  0  0  0  0  0  0
   17.8212   -7.9079    8.9167 N   0  0  0  0  0  0  0  0  0  0  0  0
   17.2266   -9.0512    9.2881 C   0  0  0  0  0  0  0  0  0  0  0  0
   18.4951   -9.9869    6.5368 H   0  0  0  0  0  0  0  0  0  0  0  0
  8  9  2  0  0  0
  8 12  1  0  0  0
 12 13  2  0  0  0
 13 14  1  0  0  0
 14 15  2  0  0  0
 15 16  1  0  0  0
 16 17  2  0  0  0
 14 18  1  0  0  0
 18 19  1  0  0  0
 18 20  1  0  0  0
  8 10  1  0  0  0
 10  1  1  0  0  0
  1  2  2  0  0  0
  2  3  1  0  0  0
  3  4  2  0  0  0
  4  5  1  0  0  0
  5  6  2  0  0  0
  4  7  1  0  0  0
  3 21  1  0  0  0
 21 23  1  0  0  0
 23 24  1  0  0  0
 24 25  2  0  0  0
 25 26  1  0  0  0
 26 27  2  0  0  0
 27 28  1  0  0  0
 24 29  1  0  0  0
 29 30  2  0  0  0
 30 31  1  0  0  0
 31 32  2  0  0  0
 32 33  1  0  0  0
 33 34  1  0  0  0
 34 35  1  0  0  0
 35 36  2  0  0  0
 36 37  1  0  0  0
 17 12  1  0  0  0
  6  1  1  0  0  0
 28 23  2  0  0  0
 37 29  1  0  0  0
 37 33  2  0  0  0
 10 11  1  0  0  0
 21 22  1  0  0  0
 34 38  1  0  0  0
M  END
>  <minimizedAffinity>
6.28894

>  <minimizedRMSD>
1.36187

$$$$
CHEMBL3729304 PubChem-89579492


 32 36  0  0  0  0  0  0  0  0999 V2000
   17.2408   -9.6655   13.9247 C   0  0  0  0  0  0  0  0  0  0  0  0
   16.1333   -8.9831   13.1202 C   0  0  0  0  0  0  0  0  0  0  0  0
   16.7265   -8.2563   11.9166 C   0  0  0  0  0  0  0  0  0  0  0  0
   17.5672   -9.1720   11.1483 N   0  0  0  0  0  0  0  0  0  0  0  0
   18.6280   -9.8887   11.8495 C   0  0  0  0  0  0  0  0  0  0  0  0
   18.0404  -10.6382   13.0395 C   0  0  0  0  0  0  0  0  0  0  0  0
   17.1494   -9.6097    9.8511 C   0  0  0  0  0  0  0  0  0  0  0  0
   17.7098   -9.1006    8.6608 C   0  0  0  0  0  0  0  0  0  0  0  0
   17.1024   -9.4466    7.4688 C   0  0  0  0  0  0  0  0  0  0  0  0
   16.0540  -10.2990    7.3987 N   0  0  0  0  0  0  0  0  0  0  0  0
   15.5605  -10.8268    8.5508 C   0  0  0  0  0  0  0  0  0  0  0  0
   16.0993  -10.4771    9.7542 N   0  0  0  0  0  0  0  0  0  0  0  0
   17.8539   -8.6880    6.1849 S   0  0  0  0  0  0  0  0  0  0  0  0
   19.0274   -7.9076    7.1184 C   0  0  0  0  0  0  0  0  0  0  0  0
   18.8264   -8.2507    8.4622 C   0  0  0  0  0  0  0  0  0  0  0  0
   19.8024   -7.8433    9.4877 C   0  0  0  0  0  0  0  0  0  0  0  0
   21.0145   -8.5338    9.6322 C   0  0  0  0  0  0  0  0  0  0  0  0
   21.9538   -8.1194   10.5805 C   0  0  0  0  0  0  0  0  0  0  0  0
   21.6936   -7.0029   11.3797 C   0  0  0  0  0  0  0  0  0  0  0  0
   20.4975   -6.2966   11.2258 C   0  0  0  0  0  0  0  0  0  0  0  0
   19.5576   -6.7112   10.2777 C   0  0  0  0  0  0  0  0  0  0  0  0
   16.6846  -10.2845   15.1460 N   0  0  0  0  0  0  0  0  0  0  0  0
   16.9653  -11.7229   15.1906 C   0  0  0  0  0  0  0  0  0  0  0  0
   17.0956   -9.6218   16.4116 C   0  0  0  0  0  0  0  0  0  0  0  0
   17.5687  -10.5816   17.4969 C   0  0  0  0  0  0  0  0  0  0  0  0
   18.9516   -9.9514   17.4399 C   0  0  0  0  0  0  0  0  0  0  0  0
   18.4832   -8.9959   16.3531 C   0  0  0  0  0  0  0  0  0  0  0  0
   16.0802   -8.6197   16.9112 C   0  0  0  0  0  0  0  0  0  0  0  0
   15.4501   -7.8945   16.0934 O   0  0  0  0  0  0  0  0  0  0  0  0
   15.8480   -8.4759   18.3157 N   0  0  0  0  0  0  0  0  0  0  0  0
   14.8897   -7.5204   18.8449 C   0  0  0  0  0  0  0  0  0  0  0  0
   16.3533   -9.0419   18.9430 H   0  0  0  0  0  0  0  0  0  0  0  0
 24 25  1  0  0  0
 25 26  1  0  0  0
 26 27  1  0  0  0
 24 28  1  0  0  0
 28 29  2  0  0  0
 28 30  1  0  0  0
 30 31  1  0  0  0
 24 22  1  0  0  0
 22 23  1  0  0  0
 22  1  1  0  0  0
  1  2  1  0  0  0
  2  3  1  0  0  0
  3  4  1  0  0  0
  4  5  1  0  0  0
  5  6  1  0  0  0
  4  7  1  0  0  0
  7  8  2  0  0  0
  8  9  1  0  0  0
  9 10  2  0  0  0
 10 11  1  0  0  0
 11 12  2  0  0  0
  9 13  1  0  0  0
 13 14  1  0  0  0
 14 15  2  0  0  0
 15 16  1  0  0  0
 16 17  2  0  0  0
 17 18  1  0  0  0
 18 19  2  0  0  0
 19 20  1  0  0  0
 20 21  2  0  0  0
 27 24  1  0  0  0
  6  1  1  0  0  0
 12  7  1  0  0  0
 21 16  1  0  0  0
 15  8  1  0  0  0
 30 32  1  0  0  0
M  END
>  <minimizedAffinity>
11.60927

>  <minimizedRMSD>
1.36251

$$$$
CHEMBL3911346 PubChem-89743511


 35 39  0  0  0  0  0  0  0  0999 V2000
   17.2955  -10.7575   15.6754 C   0  0  0  0  0  0  0  0  0  0  0  0
   16.3981   -9.8152   15.1456 C   0  0  0  0  0  0  0  0  0  0  0  0
   15.7272   -8.9132   15.9723 C   0  0  0  0  0  0  0  0  0  0  0  0
   15.9399   -8.9297   17.3548 C   0  0  0  0  0  0  0  0  0  0  0  0
   16.8381   -9.8567   17.8950 C   0  0  0  0  0  0  0  0  0  0  0  0
   17.5128  -10.7639   17.0724 C   0  0  0  0  0  0  0  0  0  0  0  0
   18.3963  -11.6155   17.6488 F   0  0  0  0  0  0  0  0  0  0  0  0
   15.2326   -7.9792   18.2311 C   0  0  0  0  0  0  0  0  0  0  0  0
   14.5406   -7.0556   17.7223 O   0  0  0  0  0  0  0  0  0  0  0  0
   15.3376   -8.1131   19.6570 N   0  0  0  0  0  0  0  0  0  0  0  0
   15.8929   -8.8549   19.9896 H   0  0  0  0  0  0  0  0  0  0  0  0
   14.7194   -7.2810   20.6478 C   0  0  0  0  0  0  0  0  0  0  0  0
   13.3376   -7.0345   20.6555 C   0  0  0  0  0  0  0  0  0  0  0  0
   12.7706   -6.2175   21.6379 C   0  0  0  0  0  0  0  0  0  0  0  0
   13.5811   -5.6411   22.6194 C   0  0  0  0  0  0  0  0  0  0  0  0
   14.9575   -5.8821   22.6176 C   0  0  0  0  0  0  0  0  0  0  0  0
   15.9737   -5.1607   23.8463 Cl  0  0  0  0  0  0  0  0  0  0  0  0
   15.5233   -6.6995   21.6345 C   0  0  0  0  0  0  0  0  0  0  0  0
   17.9138  -13.1209   15.0196 C   0  0  0  0  0  0  0  0  0  0  0  0
   17.9773  -11.6849   14.7932 N   0  0  0  0  0  0  0  0  0  0  0  0
   18.7488  -11.2607   13.6224 C   0  0  0  0  0  0  0  0  0  0  0  0
   19.2955   -9.8476   13.7857 C   0  0  0  0  0  0  0  0  0  0  0  0
   19.0341   -9.1380   12.4701 C   0  0  0  0  0  0  0  0  0  0  0  0
   18.1694  -10.0142   11.7002 N   0  0  0  0  0  0  0  0  0  0  0  0
   17.9166  -11.2831   12.3532 C   0  0  0  0  0  0  0  0  0  0  0  0
   17.6019   -9.6867   10.4195 C   0  0  0  0  0  0  0  0  0  0  0  0
   16.3959  -10.2172   10.0523 N   0  0  0  0  0  0  0  0  0  0  0  0
   15.8192   -9.9295    8.8447 C   0  0  0  0  0  0  0  0  0  0  0  0
   16.4407   -9.0936    7.9631 N   0  0  0  0  0  0  0  0  0  0  0  0
   17.6353   -8.5599    8.3127 C   0  0  0  0  0  0  0  0  0  0  0  0
   18.3656   -7.7254    7.5619 N   0  0  0  0  0  0  0  0  0  0  0  0
   19.4600   -7.4643    8.3188 C   0  0  0  0  0  0  0  0  0  0  0  0
   19.4164   -8.1345    9.5438 C   0  0  0  0  0  0  0  0  0  0  0  0
   18.2284   -8.8304    9.5058 C   0  0  0  0  0  0  0  0  0  0  0  0
   18.1555   -7.3799    6.6643 H   0  0  0  0  0  0  0  0  0  0  0  0
 19 20  1  0  0  0
 21 20  1  0  0  0
 21 22  1  0  0  0
 22 23  1  0  0  0
 23 24  1  0  0  0
 24 25  1  0  0  0
 24 26  1  0  0  0
 26 27  2  0  0  0
 27 28  1  0  0  0
 28 29  2  0  0  0
 29 30  1  0  0  0
 30 31  1  0  0  0
 31 32  1  0  0  0
 32 33  2  0  0  0
 33 34  1  0  0  0
 20  1  1  0  0  0
  1  2  2  0  0  0
  2  3  1  0  0  0
  3  4  2  0  0  0
  4  5  1  0  0  0
  5  6  2  0  0  0
  6  7  1  0  0  0
  4  8  1  0  0  0
  8  9  2  0  0  0
  8 10  1  0  0  0
 10 12  1  0  0  0
 12 13  2  0  0  0
 13 14  1  0  0  0
 14 15  2  0  0  0
 15 16  1  0  0  0
 16 17  1  0  0  0
 16 18  2  0  0  0
 25 21  1  0  0  0
 34 26  1  0  0  0
  6  1  1  0  0  0
 18 12  1  0  0  0
 34 30  2  0  0  0
 31 35  1  0  0  0
 10 11  1  0  0  0
M  END
>  <minimizedAffinity>
-7.11567

>  <minimizedRMSD>
1.36564

$$$$
CHEMBL4068635 PubChem-137633277


 32 36  0  0  0  0  0  0  0  0999 V2000
   16.9880  -10.1268   12.9624 N   0  0  0  0  0  0  0  0  0  0  0  0
   17.2402  -11.2715   13.5863 N   0  0  0  0  0  0  0  0  0  0  0  0
   17.5987  -10.9800   14.8572 C   0  0  0  0  0  0  0  0  0  0  0  0
   17.5640   -9.6123   15.0446 C   0  0  0  0  0  0  0  0  0  0  0  0
   17.1680   -9.1161   13.8363 C   0  0  0  0  0  0  0  0  0  0  0  0
   16.7906   -7.7533   13.6561 N   0  0  0  0  0  0  0  0  0  0  0  0
   17.0125   -6.8447   14.7431 C   0  0  0  0  0  0  0  0  0  0  0  0
   16.6172   -5.6541   14.6519 O   0  0  0  0  0  0  0  0  0  0  0  0
   17.7836   -7.2866   15.9702 C   0  0  0  0  0  0  0  0  0  0  0  0
   17.6199   -8.7887   16.2989 C   0  0  0  0  0  0  0  0  0  0  0  0
   17.8824  -12.0052   15.8975 C   0  0  0  0  0  0  0  0  0  0  0  0
   16.3899   -7.4454   12.8112 H   0  0  0  0  0  0  0  0  0  0  0  0
   17.7088   -9.1639    8.4222 N   0  0  0  0  0  0  0  0  0  0  0  0
   18.7875   -8.9346    9.2197 C   0  0  0  0  0  0  0  0  0  0  0  0
   18.5670   -9.2039   10.5356 N   0  0  0  0  0  0  0  0  0  0  0  0
   17.2884   -9.6052   10.5503 C   0  0  0  0  0  0  0  0  0  0  0  0
   16.7886   -9.5881    9.2965 C   0  0  0  0  0  0  0  0  0  0  0  0
   15.5335  -10.0064    9.0078 N   0  0  0  0  0  0  0  0  0  0  0  0
   14.7552  -10.4617   10.0347 C   0  0  0  0  0  0  0  0  0  0  0  0
   15.2418  -10.4910   11.3161 N   0  0  0  0  0  0  0  0  0  0  0  0
   16.5044  -10.0577   11.6129 C   0  0  0  0  0  0  0  0  0  0  0  0
   19.1931   -9.1236   11.2912 H   0  0  0  0  0  0  0  0  0  0  0  0
   16.4065   -9.0190   17.1441 C   0  0  0  0  0  0  0  0  0  0  0  0
   15.9271  -10.1800   17.2603 O   0  0  0  0  0  0  0  0  0  0  0  0
   15.8146   -7.9030   17.8206 N   0  0  0  0  0  0  0  0  0  0  0  0
   16.2346   -7.0248   17.6737 H   0  0  0  0  0  0  0  0  0  0  0  0
   14.6742   -7.9324   18.6893 C   0  0  0  0  0  0  0  0  0  0  0  0
   14.8825   -7.9723   20.0725 C   0  0  0  0  0  0  0  0  0  0  0  0
   13.7957   -8.0039   20.9517 C   0  0  0  0  0  0  0  0  0  0  0  0
   12.4911   -7.9961   20.4507 C   0  0  0  0  0  0  0  0  0  0  0  0
   12.2736   -7.9569   19.0710 C   0  0  0  0  0  0  0  0  0  0  0  0
   13.3611   -7.9254   18.1932 C   0  0  0  0  0  0  0  0  0  0  0  0
 13 14  2  0  0  0
 14 15  1  0  0  0
 15 16  1  0  0  0
 16 17  2  0  0  0
 17 18  1  0  0  0
 18 19  2  0  0  0
 19 20  1  0  0  0
 20 21  2  0  0  0
 21  1  1  0  0  0
  1  2  1  0  0  0
  2  3  2  0  0  0
  3  4  1  0  0  0
  4  5  2  0  0  0
  5  6  1  0  0  0
  6  7  1  0  0  0
  7  8  2  0  0  0
  7  9  1  0  0  0
  9 10  1  0  0  0
 10 23  1  0  0  0
 23 24  2  0  0  0
 23 25  1  0  0  0
 25 27  1  0  0  0
 27 28  2  0  0  0
 28 29  1  0  0  0
 29 30  2  0  0  0
 30 31  1  0  0  0
 31 32  2  0  0  0
  3 11  1  0  0  0
 17 13  1  0  0  0
  5  1  1  0  0  0
 32 27  1  0  0  0
 21 16  1  0  0  0
 10  4  1  0  0  0
 15 22  1  0  0  0
  6 12  1  0  0  0
 25 26  1  0  0  0
M  END
>  <minimizedAffinity>
0.36444

>  <minimizedRMSD>
1.36763

$$$$
CHEMBL5083865 PubChem-155801539


 36 40  0  0  0  0  0  0  0  0999 V2000
   13.5116  -10.7407   15.2487 C   0  0  0  0  0  0  0  0  0  0  0  0
   14.6698  -10.1950   14.4804 C   0  0  0  0  0  0  0  0  0  0  0  0
   15.6311   -9.4351   15.0510 C   0  0  0  0  0  0  0  0  0  0  0  0
   16.7251   -8.8240   14.1833 C   0  0  0  0  0  0  0  0  0  0  0  0
   16.6844   -9.2184   12.7721 N   0  0  0  0  0  0  0  0  0  0  0  0
   15.7545   -9.9594   12.2536 C   0  0  0  0  0  0  0  0  0  0  0  0
   14.7073  -10.4635   13.0782 N   0  0  0  0  0  0  0  0  0  0  0  0
   13.9945  -11.0083   12.6727 H   0  0  0  0  0  0  0  0  0  0  0  0
   18.1082   -9.0262   14.7382 C   0  0  0  0  0  0  0  0  0  0  0  0
   18.5822   -8.0842   15.6590 C   0  0  0  0  0  0  0  0  0  0  0  0
   19.8587   -8.2106   16.2113 C   0  0  0  0  0  0  0  0  0  0  0  0
   20.6749   -9.2816   15.8439 C   0  0  0  0  0  0  0  0  0  0  0  0
   20.2157  -10.2252   14.9227 C   0  0  0  0  0  0  0  0  0  0  0  0
   18.9391  -10.1068   14.3639 C   0  0  0  0  0  0  0  0  0  0  0  0
   18.4323  -11.3275   13.2056 Cl  0  0  0  0  0  0  0  0  0  0  0  0
   15.6177   -9.0870   16.4955 C   0  0  0  0  0  0  0  0  0  0  0  0
   16.2995   -9.7763   17.3015 O   0  0  0  0  0  0  0  0  0  0  0  0
   14.8017   -8.0127   16.9805 N   0  0  0  0  0  0  0  0  0  0  0  0
   14.2753   -7.5085   16.3187 H   0  0  0  0  0  0  0  0  0  0  0  0
   14.6922   -7.6158   18.3503 C   0  0  0  0  0  0  0  0  0  0  0  0
   15.6948   -7.7052   19.2523 N   0  0  0  0  0  0  0  0  0  0  0  0
   15.3444   -7.2733   20.4623 N   0  0  0  0  0  0  0  0  0  0  0  0
   14.0659   -6.8416   20.5218 C   0  0  0  0  0  0  0  0  0  0  0  0
   13.2916   -6.9810   19.0325 S   0  0  0  0  0  0  0  0  0  0  0  0
   13.4350   -6.3116   21.7585 C   0  0  0  0  0  0  0  0  0  0  0  0
   15.7764  -10.3008   10.8639 N   0  0  0  0  0  0  0  0  0  0  0  0
   15.1749  -11.0192   10.5619 H   0  0  0  0  0  0  0  0  0  0  0  0
   16.6073   -9.6760    9.8806 C   0  0  0  0  0  0  0  0  0  0  0  0
   16.4574   -9.9066    8.5502 N   0  0  0  0  0  0  0  0  0  0  0  0
   17.4258   -9.1344    8.0293 C   0  0  0  0  0  0  0  0  0  0  0  0
   17.7526   -8.9660    6.6863 C   0  0  0  0  0  0  0  0  0  0  0  0
   18.8179   -8.0958    6.3850 C   0  0  0  0  0  0  0  0  0  0  0  0
   19.5160   -7.4286    7.4177 C   0  0  0  0  0  0  0  0  0  0  0  0
   19.1585   -7.6225    8.7654 C   0  0  0  0  0  0  0  0  0  0  0  0
   18.1008   -8.4897    9.0227 C   0  0  0  0  0  0  0  0  0  0  0  0
   17.5852   -8.8323   10.1711 O   0  0  0  0  0  0  0  0  0  0  0  0
  1  2  1  0  0  0
  2  3  2  0  0  0
  3  4  1  0  0  0
  4  5  1  0  0  0
  5  6  2  0  0  0
  6  7  1  0  0  0
  6 26  1  0  0  0
 26 28  1  0  0  0
 28 29  2  0  0  0
 29 30  1  0  0  0
 30 31  2  0  0  0
 31 32  1  0  0  0
 32 33  2  0  0  0
 33 34  1  0  0  0
 34 35  2  0  0  0
 35 36  1  0  0  0
  4  9  1  0  0  0
  9 10  2  0  0  0
 10 11  1  0  0  0
 11 12  2  0  0  0
 12 13  1  0  0  0
 13 14  2  0  0  0
 14 15  1  0  0  0
  3 16  1  0  0  0
 16 17  2  0  0  0
 16 18  1  0  0  0
 18 20  1  0  0  0
 20 21  2  0  0  0
 21 22  1  0  0  0
 22 23  2  0  0  0
 23 24  1  0  0  0
 23 25  1  0  0  0
  7  2  1  0  0  0
 36 28  1  0  0  0
 35 30  1  0  0  0
 14  9  1  0  0  0
 24 20  1  0  0  0
  7  8  1  0  0  0
 26 27  1  0  0  0
 18 19  1  0  0  0
M  END
>  <minimizedAffinity>
-1.37488

>  <minimizedRMSD>
1.36774

$$$$
CHEMBL4072049 PubChem-121382999


 28 30  0  0  0  0  0  0  0  0999 V2000
   18.8796   -9.9002   12.6132 C   0  0  0  0  0  0  0  0  0  0  0  0
   19.5541   -9.5046   13.6018 O   0  0  0  0  0  0  0  0  0  0  0  0
   17.9882  -11.0109   12.7476 N   0  0  0  0  0  0  0  0  0  0  0  0
   17.5123  -11.3318   11.9477 H   0  0  0  0  0  0  0  0  0  0  0  0
   15.9871   -8.8508    6.7572 C   0  0  0  0  0  0  0  0  0  0  0  0
   16.7647   -8.9697    7.9802 N   0  0  0  0  0  0  0  0  0  0  0  0
   17.9658   -8.3304    8.1180 C   0  0  0  0  0  0  0  0  0  0  0  0
   18.4403   -7.6166    7.1916 O   0  0  0  0  0  0  0  0  0  0  0  0
   18.6332   -8.4863    9.2823 N   0  0  0  0  0  0  0  0  0  0  0  0
   19.8105   -7.9990    9.7188 C   0  0  0  0  0  0  0  0  0  0  0  0
   20.0739   -8.4355   10.9794 N   0  0  0  0  0  0  0  0  0  0  0  0
   19.0188   -9.2163   11.3204 C   0  0  0  0  0  0  0  0  0  0  0  0
   18.1439   -9.2340   10.2626 C   0  0  0  0  0  0  0  0  0  0  0  0
   16.9573   -9.8670   10.1313 N   0  0  0  0  0  0  0  0  0  0  0  0
   16.2862   -9.7210    8.9832 N   0  0  0  0  0  0  0  0  0  0  0  0
   17.7536  -11.6881   14.0155 C   0  0  0  0  0  0  0  0  0  0  0  0
   17.0603  -10.7764   14.9702 C   0  0  0  0  0  0  0  0  0  0  0  0
   17.3889  -10.8064   16.3296 C   0  0  0  0  0  0  0  0  0  0  0  0
   16.7512   -9.9411   17.2233 C   0  0  0  0  0  0  0  0  0  0  0  0
   15.7828   -9.0432   16.7606 C   0  0  0  0  0  0  0  0  0  0  0  0
   15.4593   -9.0090   15.3995 C   0  0  0  0  0  0  0  0  0  0  0  0
   16.0970   -9.8740   14.5054 C   0  0  0  0  0  0  0  0  0  0  0  0
   14.9913   -7.9496   17.8801 S   0  0  0  0  0  0  0  0  0  0  0  0
   14.5462   -6.7154   17.1482 O   0  0  0  0  0  0  0  0  0  0  0  0
   13.7986   -8.6282   18.4930 O   0  0  0  0  0  0  0  0  0  0  0  0
   16.0891   -7.5083   19.1393 N   0  0  0  0  0  0  0  0  0  0  0  0
   16.9033   -7.0464   18.7342 H   0  0  0  0  0  0  0  0  0  0  0  0
   16.3872   -8.3458   19.6395 H   0  0  0  0  0  0  0  0  0  0  0  0
  5  6  1  0  0  0
  6  7  1  0  0  0
  7  8  2  0  0  0
  7  9  1  0  0  0
  9 10  1  0  0  0
 10 11  2  0  0  0
 11 12  1  0  0  0
 12 13  2  0  0  0
 13 14  1  0  0  0
 14 15  2  0  0  0
 12  1  1  0  0  0
  1  2  2  0  0  0
  1  3  1  0  0  0
  3 16  1  0  0  0
 16 17  1  0  0  0
 17 18  2  0  0  0
 18 19  1  0  0  0
 19 20  2  0  0  0
 20 21  1  0  0  0
 21 22  2  0  0  0
 20 23  1  0  0  0
 23 24  2  0  0  0
 23 25  2  0  0  0
 23 26  1  0  0  0
 15  6  1  0  0  0
 13  9  1  0  0  0
 22 17  1  0  0  0
  3  4  1  0  0  0
 26 27  1  0  0  0
 26 28  1  0  0  0
M  END
>  <minimizedAffinity>
1.28799

>  <minimizedRMSD>
1.36832

$$$$
CHEMBL4072049 PubChem-121382999


 28 30  0  0  0  0  0  0  0  0999 V2000
   18.8795   -9.9003   12.6134 C   0  0  0  0  0  0  0  0  0  0  0  0
   19.5540   -9.5046   13.6020 O   0  0  0  0  0  0  0  0  0  0  0  0
   17.9882  -11.0110   12.7476 N   0  0  0  0  0  0  0  0  0  0  0  0
   17.5125  -11.3319   11.9476 H   0  0  0  0  0  0  0  0  0  0  0  0
   15.9873   -8.8509    6.7571 C   0  0  0  0  0  0  0  0  0  0  0  0
   16.7648   -8.9697    7.9802 N   0  0  0  0  0  0  0  0  0  0  0  0
   17.9660   -8.3304    8.1180 C   0  0  0  0  0  0  0  0  0  0  0  0
   18.4404   -7.6166    7.1917 O   0  0  0  0  0  0  0  0  0  0  0  0
   18.6333   -8.4863    9.2824 N   0  0  0  0  0  0  0  0  0  0  0  0
   19.8105   -7.9991    9.7190 C   0  0  0  0  0  0  0  0  0  0  0  0
   20.0739   -8.4355   10.9795 N   0  0  0  0  0  0  0  0  0  0  0  0
   19.0188   -9.2164   11.3204 C   0  0  0  0  0  0  0  0  0  0  0  0
   18.1439   -9.2339   10.2626 C   0  0  0  0  0  0  0  0  0  0  0  0
   16.9574   -9.8670   10.1313 N   0  0  0  0  0  0  0  0  0  0  0  0
   16.2864   -9.7210    8.9832 N   0  0  0  0  0  0  0  0  0  0  0  0
   17.7536  -11.6881   14.0155 C   0  0  0  0  0  0  0  0  0  0  0  0
   17.0602  -10.7764   14.9702 C   0  0  0  0  0  0  0  0  0  0  0  0
   16.0970   -9.8740   14.5054 C   0  0  0  0  0  0  0  0  0  0  0  0
   15.4594   -9.0089   15.3995 C   0  0  0  0  0  0  0  0  0  0  0  0
   15.7828   -9.0432   16.7607 C   0  0  0  0  0  0  0  0  0  0  0  0
   16.7511   -9.9411   17.2232 C   0  0  0  0  0  0  0  0  0  0  0  0
   17.3889  -10.8065   16.3295 C   0  0  0  0  0  0  0  0  0  0  0  0
   14.9913   -7.9495   17.8802 S   0  0  0  0  0  0  0  0  0  0  0  0
   13.7986   -8.6281   18.4930 O   0  0  0  0  0  0  0  0  0  0  0  0
   14.5462   -6.7154   17.1482 O   0  0  0  0  0  0  0  0  0  0  0  0
   16.0891   -7.5083   19.1394 N   0  0  0  0  0  0  0  0  0  0  0  0
   16.3912   -8.3463   19.6362 H   0  0  0  0  0  0  0  0  0  0  0  0
   15.6233   -6.8763   19.7906 H   0  0  0  0  0  0  0  0  0  0  0  0
  5  6  1  0  0  0
  6  7  1  0  0  0
  7  8  2  0  0  0
  7  9  1  0  0  0
  9 10  1  0  0  0
 10 11  2  0  0  0
 11 12  1  0  0  0
 12 13  2  0  0  0
 13 14  1  0  0  0
 14 15  2  0  0  0
 12  1  1  0  0  0
  1  2  2  0  0  0
  1  3  1  0  0  0
  3 16  1  0  0  0
 16 17  1  0  0  0
 17 18  2  0  0  0
 18 19  1  0  0  0
 19 20  2  0  0  0
 20 21  1  0  0  0
 21 22  2  0  0  0
 20 23  1  0  0  0
 23 24  2  0  0  0
 23 25  2  0  0  0
 23 26  1  0  0  0
 15  6  1  0  0  0
 13  9  1  0  0  0
 22 17  1  0  0  0
  3  4  1  0  0  0
 26 27  1  0  0  0
 26 28  1  0  0  0
M  END
>  <minimizedAffinity>
1.28769

>  <minimizedRMSD>
1.36840

$$$$
CHEMBL3911346 PubChem-89743511


 35 39  0  0  0  0  0  0  0  0999 V2000
   17.2608  -10.7238   15.6703 C   0  0  0  0  0  0  0  0  0  0  0  0
   16.3643   -9.7933   15.1182 C   0  0  0  0  0  0  0  0  0  0  0  0
   15.6863   -8.8782   15.9246 C   0  0  0  0  0  0  0  0  0  0  0  0
   15.8908   -8.8692   17.3084 C   0  0  0  0  0  0  0  0  0  0  0  0
   16.7881   -9.7842   17.8705 C   0  0  0  0  0  0  0  0  0  0  0  0
   17.4698  -10.7044   17.0685 C   0  0  0  0  0  0  0  0  0  0  0  0
   18.3517  -11.5433   17.6654 F   0  0  0  0  0  0  0  0  0  0  0  0
   15.1761   -7.9050   18.1632 C   0  0  0  0  0  0  0  0  0  0  0  0
   14.4123   -7.0500   17.6377 O   0  0  0  0  0  0  0  0  0  0  0  0
   15.3549   -7.9480   19.5875 N   0  0  0  0  0  0  0  0  0  0  0  0
   15.9623   -8.6409   19.9341 H   0  0  0  0  0  0  0  0  0  0  0  0
   14.7423   -7.0884   20.5582 C   0  0  0  0  0  0  0  0  0  0  0  0
   15.4720   -6.7327   21.6980 C   0  0  0  0  0  0  0  0  0  0  0  0
   14.9090   -5.8961   22.6668 C   0  0  0  0  0  0  0  0  0  0  0  0
   13.6098   -5.4095   22.5000 C   0  0  0  0  0  0  0  0  0  0  0  0
   12.8742   -5.7595   21.3648 C   0  0  0  0  0  0  0  0  0  0  0  0
   11.2468   -5.1514   21.1538 Cl  0  0  0  0  0  0  0  0  0  0  0  0
   13.4381   -6.5958   20.3973 C   0  0  0  0  0  0  0  0  0  0  0  0
   17.8885  -13.0973   15.0616 C   0  0  0  0  0  0  0  0  0  0  0  0
   17.9497  -11.6655   14.8091 N   0  0  0  0  0  0  0  0  0  0  0  0
   18.7259  -11.2610   13.6344 C   0  0  0  0  0  0  0  0  0  0  0  0
   19.2947   -9.8553   13.7876 C   0  0  0  0  0  0  0  0  0  0  0  0
   19.0418   -9.1503   12.4679 C   0  0  0  0  0  0  0  0  0  0  0  0
   18.1626  -10.0182   11.7051 N   0  0  0  0  0  0  0  0  0  0  0  0
   17.8915  -11.2789   12.3667 C   0  0  0  0  0  0  0  0  0  0  0  0
   17.5982   -9.6905   10.4230 C   0  0  0  0  0  0  0  0  0  0  0  0
   16.3933  -10.2213   10.0527 N   0  0  0  0  0  0  0  0  0  0  0  0
   15.8197   -9.9336    8.8435 C   0  0  0  0  0  0  0  0  0  0  0  0
   16.4432   -9.0975    7.9637 N   0  0  0  0  0  0  0  0  0  0  0  0
   17.6367   -8.5635    8.3164 C   0  0  0  0  0  0  0  0  0  0  0  0
   18.3688   -7.7287    7.5675 N   0  0  0  0  0  0  0  0  0  0  0  0
   19.4611   -7.4674    8.3273 C   0  0  0  0  0  0  0  0  0  0  0  0
   19.4147   -8.1377    9.5522 C   0  0  0  0  0  0  0  0  0  0  0  0
   18.2268   -8.8339    9.5109 C   0  0  0  0  0  0  0  0  0  0  0  0
   18.1610   -7.3832    6.6694 H   0  0  0  0  0  0  0  0  0  0  0  0
 19 20  1  0  0  0
 21 20  1  0  0  0
 21 22  1  0  0  0
 22 23  1  0  0  0
 23 24  1  0  0  0
 24 25  1  0  0  0
 24 26  1  0  0  0
 26 27  2  0  0  0
 27 28  1  0  0  0
 28 29  2  0  0  0
 29 30  1  0  0  0
 30 31  1  0  0  0
 31 32  1  0  0  0
 32 33  2  0  0  0
 33 34  1  0  0  0
 20  1  1  0  0  0
  1  2  2  0  0  0
  2  3  1  0  0  0
  3  4  2  0  0  0
  4  5  1  0  0  0
  5  6  2  0  0  0
  6  7  1  0  0  0
  4  8  1  0  0  0
  8  9  2  0  0  0
  8 10  1  0  0  0
 10 12  1  0  0  0
 12 13  2  0  0  0
 13 14  1  0  0  0
 14 15  2  0  0  0
 15 16  1  0  0  0
 16 17  1  0  0  0
 16 18  2  0  0  0
 25 21  1  0  0  0
 34 26  1  0  0  0
  6  1  1  0  0  0
 18 12  1  0  0  0
 34 30  2  0  0  0
 31 35  1  0  0  0
 10 11  1  0  0  0
M  END
>  <minimizedAffinity>
-7.32843

>  <minimizedRMSD>
1.36946

$$$$
CHEMBL4205679


 38 41  0  0  0  0  0  0  0  0999 V2000
   15.6418  -10.5566    9.8048 C   0  0  0  0  0  0  0  0  0  0  0  0
   16.6694   -9.7309    9.0929 C   0  0  0  0  0  0  0  0  0  0  0  0
   17.5794   -8.9523    9.7368 N   0  0  0  0  0  0  0  0  0  0  0  0
   18.2708   -8.4163    8.7219 C   0  0  0  0  0  0  0  0  0  0  0  0
   17.7839   -8.8637    7.5314 C   0  0  0  0  0  0  0  0  0  0  0  0
   16.7603   -9.7052    7.7380 N   0  0  0  0  0  0  0  0  0  0  0  0
   18.3250   -8.4591    6.3115 C   0  0  0  0  0  0  0  0  0  0  0  0
   19.4111   -7.5568    6.3529 C   0  0  0  0  0  0  0  0  0  0  0  0
   19.9131   -7.0955    7.5897 C   0  0  0  0  0  0  0  0  0  0  0  0
   19.3395   -7.5270    8.8000 C   0  0  0  0  0  0  0  0  0  0  0  0
   17.6998   -8.8166   10.7044 H   0  0  0  0  0  0  0  0  0  0  0  0
   17.7970   -8.9406    5.1102 O   0  0  0  0  0  0  0  0  0  0  0  0
   18.3018   -8.5463    3.8422 C   0  0  0  0  0  0  0  0  0  0  0  0
   16.6522  -10.1145   12.1302 C   0  0  0  0  0  0  0  0  0  0  0  0
   16.7034   -8.8725   11.9298 O   0  0  0  0  0  0  0  0  0  0  0  0
   16.1177  -10.9815   11.1194 N   0  0  0  0  0  0  0  0  0  0  0  0
   16.0676  -11.9421   11.3290 H   0  0  0  0  0  0  0  0  0  0  0  0
   18.2860  -11.8834   15.7160 C   0  0  0  0  0  0  0  0  0  0  0  0
   18.4168  -12.5105   14.4704 C   0  0  0  0  0  0  0  0  0  0  0  0
   17.8675  -11.9233   13.3179 C   0  0  0  0  0  0  0  0  0  0  0  0
   17.1770  -10.6977   13.3827 C   0  0  0  0  0  0  0  0  0  0  0  0
   17.0515  -10.0947   14.6534 C   0  0  0  0  0  0  0  0  0  0  0  0
   17.5995  -10.6735   15.7814 C   0  0  0  0  0  0  0  0  0  0  0  0
   17.3219   -9.8700   17.0128 C   0  0  0  0  0  0  0  0  0  0  0  0
   16.5193   -8.7489   16.5251 N   0  0  0  0  0  0  0  0  0  0  0  0
   16.3609   -8.9055   15.1209 C   0  0  0  0  0  0  0  0  0  0  0  0
   15.6628   -8.1262   14.4230 O   0  0  0  0  0  0  0  0  0  0  0  0
   16.1537   -8.0163   17.0717 H   0  0  0  0  0  0  0  0  0  0  0  0
   14.2858   -9.8591    9.8965 C   0  0  0  0  0  0  0  0  0  0  0  0
   13.4176  -10.1697    8.6868 C   0  0  0  0  0  0  0  0  0  0  0  0
   12.2845  -11.1006    9.0734 C   0  0  0  0  0  0  0  0  0  0  0  0
   11.0977  -10.7633    8.3052 N   0  0  0  0  0  0  0  0  0  0  0  0
   10.6182   -9.9295    8.5150 H   0  0  0  0  0  0  0  0  0  0  0  0
   10.6016  -11.5973    7.2567 C   0  0  0  0  0  0  0  0  0  0  0  0
   10.8524  -12.8656    7.2469 N   0  0  0  0  0  0  0  0  0  0  0  0
   11.4575  -13.2529    7.9199 H   0  0  0  0  0  0  0  0  0  0  0  0
    9.6859  -11.0222    6.2353 C   0  0  0  0  0  0  0  0  0  0  0  0
    8.7145  -12.3173    5.4958 Cl  0  0  0  0  0  0  0  0  0  0  0  0
 18 19  2  0  0  0
 19 20  1  0  0  0
 20 21  2  0  0  0
 21 22  1  0  0  0
 22 23  2  0  0  0
 23 24  1  0  0  0
 24 25  1  0  0  0
 25 26  1  0  0  0
 26 27  2  0  0  0
 21 14  1  0  0  0
 14 15  2  0  0  0
 14 16  1  0  0  0
 16  1  1  0  0  0
  1  2  1  0  0  0
  2  3  1  0  0  0
  3  4  1  0  0  0
  4  5  2  0  0  0
  5  6  1  0  0  0
  5  7  1  0  0  0
  7  8  2  0  0  0
  8  9  1  0  0  0
  9 10  2  0  0  0
  7 12  1  0  0  0
 12 13  1  0  0  0
  1 29  1  0  0  0
 29 30  1  0  0  0
 30 31  1  0  0  0
 31 32  1  0  0  0
 32 34  1  0  0  0
 34 35  2  0  0  0
 34 37  1  0  0  0
 37 38  1  0  0  0
 23 18  1  0  0  0
  6  2  2  0  0  0
 26 22  1  0  0  0
 10  4  1  0  0  0
 25 28  1  0  0  0
 16 17  1  0  0  0
  3 11  1  0  0  0
 32 33  1  0  0  0
 35 36  1  0  0  0
M  END
>  <minimizedAffinity>
6.70086

>  <minimizedRMSD>
1.36994

$$$$
CHEMBL5083865 PubChem-155801539


 36 40  0  0  0  0  0  0  0  0999 V2000
   13.4436  -10.6601   15.2369 C   0  0  0  0  0  0  0  0  0  0  0  0
   14.6185  -10.1343   14.4801 C   0  0  0  0  0  0  0  0  0  0  0  0
   15.5606   -9.3493   15.0486 C   0  0  0  0  0  0  0  0  0  0  0  0
   16.6720   -8.7596   14.1882 C   0  0  0  0  0  0  0  0  0  0  0  0
   16.6734   -9.2072   12.7924 N   0  0  0  0  0  0  0  0  0  0  0  0
   15.7616   -9.9719   12.2761 C   0  0  0  0  0  0  0  0  0  0  0  0
   14.6943  -10.4513   13.0896 N   0  0  0  0  0  0  0  0  0  0  0  0
   13.9944  -11.0129   12.6845 H   0  0  0  0  0  0  0  0  0  0  0  0
   18.0412   -8.9264   14.7875 C   0  0  0  0  0  0  0  0  0  0  0  0
   18.4470   -7.9935   15.7490 C   0  0  0  0  0  0  0  0  0  0  0  0
   19.7068   -8.0892   16.3443 C   0  0  0  0  0  0  0  0  0  0  0  0
   20.5742   -9.1201   15.9798 C   0  0  0  0  0  0  0  0  0  0  0  0
   20.1831  -10.0543   15.0183 C   0  0  0  0  0  0  0  0  0  0  0  0
   18.9238   -9.9663   14.4163 C   0  0  0  0  0  0  0  0  0  0  0  0
   18.5033  -11.1727   13.2094 Cl  0  0  0  0  0  0  0  0  0  0  0  0
   15.5082   -8.9528   16.4795 C   0  0  0  0  0  0  0  0  0  0  0  0
   16.1958   -9.5937   17.3190 O   0  0  0  0  0  0  0  0  0  0  0  0
   14.6494   -7.8872   16.9092 N   0  0  0  0  0  0  0  0  0  0  0  0
   14.1361   -7.4224   16.2093 H   0  0  0  0  0  0  0  0  0  0  0  0
   14.4637   -7.4315   18.2545 C   0  0  0  0  0  0  0  0  0  0  0  0
   13.4510   -6.6093   18.6037 N   0  0  0  0  0  0  0  0  0  0  0  0
   13.4462   -6.3031   19.9001 N   0  0  0  0  0  0  0  0  0  0  0  0
   14.4548   -6.8813   20.5870 C   0  0  0  0  0  0  0  0  0  0  0  0
   15.4245   -7.8254   19.5869 S   0  0  0  0  0  0  0  0  0  0  0  0
   14.6670   -6.6967   22.0461 C   0  0  0  0  0  0  0  0  0  0  0  0
   15.8240  -10.3645   10.9012 N   0  0  0  0  0  0  0  0  0  0  0  0
   15.2717  -11.1296   10.6205 H   0  0  0  0  0  0  0  0  0  0  0  0
   16.6292   -9.7281    9.9040 C   0  0  0  0  0  0  0  0  0  0  0  0
   16.4637   -9.9652    8.5766 N   0  0  0  0  0  0  0  0  0  0  0  0
   17.4106   -9.1777    8.0394 C   0  0  0  0  0  0  0  0  0  0  0  0
   17.7146   -9.0076    6.6912 C   0  0  0  0  0  0  0  0  0  0  0  0
   18.7599   -8.1198    6.3719 C   0  0  0  0  0  0  0  0  0  0  0  0
   19.4614   -7.4374    7.3923 C   0  0  0  0  0  0  0  0  0  0  0  0
   19.1273   -7.6335    8.7456 C   0  0  0  0  0  0  0  0  0  0  0  0
   18.0889   -8.5184    9.0209 C   0  0  0  0  0  0  0  0  0  0  0  0
   17.5964   -8.8666   10.1777 O   0  0  0  0  0  0  0  0  0  0  0  0
  1  2  1  0  0  0
  2  3  2  0  0  0
  3  4  1  0  0  0
  4  5  1  0  0  0
  5  6  2  0  0  0
  6  7  1  0  0  0
  6 26  1  0  0  0
 26 28  1  0  0  0
 28 29  2  0  0  0
 29 30  1  0  0  0
 30 31  2  0  0  0
 31 32  1  0  0  0
 32 33  2  0  0  0
 33 34  1  0  0  0
 34 35  2  0  0  0
 35 36  1  0  0  0
  4  9  1  0  0  0
  9 10  2  0  0  0
 10 11  1  0  0  0
 11 12  2  0  0  0
 12 13  1  0  0  0
 13 14  2  0  0  0
 14 15  1  0  0  0
  3 16  1  0  0  0
 16 17  2  0  0  0
 16 18  1  0  0  0
 18 20  1  0  0  0
 20 21  2  0  0  0
 21 22  1  0  0  0
 22 23  2  0  0  0
 23 24  1  0  0  0
 23 25  1  0  0  0
  7  2  1  0  0  0
 36 28  1  0  0  0
 35 30  1  0  0  0
 14  9  1  0  0  0
 24 20  1  0  0  0
  7  8  1  0  0  0
 26 27  1  0  0  0
 18 19  1  0  0  0
M  END
>  <minimizedAffinity>
-1.28362

>  <minimizedRMSD>
1.37026

$$$$
CHEMBL1376192


 29 32  0  0  0  0  0  0  0  0999 V2000
   16.9304  -10.3411   13.7573 C   0  0  0  0  0  0  0  0  0  0  0  0
   17.5002  -10.3370   12.5777 O   0  0  0  0  0  0  0  0  0  0  0  0
   16.5477   -9.9805   11.7501 C   0  0  0  0  0  0  0  0  0  0  0  0
   15.3883   -9.7633   12.4002 N   0  0  0  0  0  0  0  0  0  0  0  0
   15.6325   -9.9939   13.6808 N   0  0  0  0  0  0  0  0  0  0  0  0
   16.7166   -9.8343   10.3005 C   0  0  0  0  0  0  0  0  0  0  0  0
   15.9527  -10.4628    9.3759 N   0  0  0  0  0  0  0  0  0  0  0  0
   16.3674  -10.1130    8.1607 N   0  0  0  0  0  0  0  0  0  0  0  0
   17.3954   -9.2613    8.3192 C   0  0  0  0  0  0  0  0  0  0  0  0
   17.6461   -9.0601    9.6465 C   0  0  0  0  0  0  0  0  0  0  0  0
   18.6625   -8.2191   10.0942 C   0  0  0  0  0  0  0  0  0  0  0  0
   19.4377   -7.5709    9.1145 C   0  0  0  0  0  0  0  0  0  0  0  0
   19.1801   -7.7777    7.7398 C   0  0  0  0  0  0  0  0  0  0  0  0
   18.1434   -8.6357    7.3253 C   0  0  0  0  0  0  0  0  0  0  0  0
   15.2103  -11.0792    9.5711 H   0  0  0  0  0  0  0  0  0  0  0  0
   17.7688  -10.7553   15.2819 S   0  0  0  0  0  0  0  0  0  0  0  0
   18.1891   -9.0208   15.6398 C   0  0  0  0  0  0  0  0  0  0  0  0
   16.9979   -8.2862   16.1509 C   0  0  0  0  0  0  0  0  0  0  0  0
   16.4659   -7.4018   15.4292 O   0  0  0  0  0  0  0  0  0  0  0  0
   16.4865   -8.5881   17.4561 N   0  0  0  0  0  0  0  0  0  0  0  0
   16.9778   -9.2633   17.9775 H   0  0  0  0  0  0  0  0  0  0  0  0
   15.3332   -8.0079   18.0800 C   0  0  0  0  0  0  0  0  0  0  0  0
   15.3484   -7.8029   19.4641 C   0  0  0  0  0  0  0  0  0  0  0  0
   14.2411   -7.2434   20.1094 C   0  0  0  0  0  0  0  0  0  0  0  0
   13.1091   -6.8863   19.3713 C   0  0  0  0  0  0  0  0  0  0  0  0
   13.0847   -7.0887   17.9889 C   0  0  0  0  0  0  0  0  0  0  0  0
   14.1925   -7.6480   17.3455 C   0  0  0  0  0  0  0  0  0  0  0  0
   14.2668   -7.0365   21.5296 C   0  0  0  0  0  0  0  0  0  0  0  0
   14.2876   -6.8698   22.6746 N   0  0  0  0  0  0  0  0  0  0  0  0
 16  1  1  0  0  0
  1  2  1  0  0  0
  2  3  1  0  0  0
  3  4  2  0  0  0
  4  5  1  0  0  0
  3  6  1  0  0  0
  6  7  1  0  0  0
  7  8  1  0  0  0
  8  9  2  0  0  0
  9 10  1  0  0  0
 10 11  1  0  0  0
 11 12  2  0  0  0
 12 13  1  0  0  0
 13 14  2  0  0  0
 16 17  1  0  0  0
 17 18  1  0  0  0
 18 19  2  0  0  0
 18 20  1  0  0  0
 20 22  1  0  0  0
 22 23  2  0  0  0
 23 24  1  0  0  0
 24 25  2  0  0  0
 25 26  1  0  0  0
 26 27  2  0  0  0
 24 28  1  0  0  0
 28 29  3  0  0  0
  5  1  2  0  0  0
 10  6  2  0  0  0
 27 22  1  0  0  0
 14  9  1  0  0  0
  7 15  1  0  0  0
 20 21  1  0  0  0
M  END
>  <minimizedAffinity>
-9.86115

>  <minimizedRMSD>
1.37122

$$$$
CHEMBL3685273 PubChem-66763495


 41 45  0  0  0  0  0  0  0  0999 V2000
   17.0284  -10.1473   16.5744 C   0  0  0  0  0  0  0  0  0  0  0  0
   17.4311  -11.4085   17.0267 C   0  0  0  0  0  0  0  0  0  0  0  0
   18.1444  -12.2676   16.1857 C   0  0  0  0  0  0  0  0  0  0  0  0
   18.4619  -11.8683   14.8849 C   0  0  0  0  0  0  0  0  0  0  0  0
   18.0690  -10.6075   14.4259 C   0  0  0  0  0  0  0  0  0  0  0  0
   17.3496   -9.7528   15.2665 C   0  0  0  0  0  0  0  0  0  0  0  0
   15.2878   -8.3391   17.1133 C   0  0  0  0  0  0  0  0  0  0  0  0
   14.9440   -8.1847   15.9098 O   0  0  0  0  0  0  0  0  0  0  0  0
   16.2997   -9.2946   17.4677 N   0  0  0  0  0  0  0  0  0  0  0  0
   16.5158   -9.3725   18.4250 H   0  0  0  0  0  0  0  0  0  0  0  0
   13.4195   -5.9855   20.1804 C   0  0  0  0  0  0  0  0  0  0  0  0
   12.8274   -6.1061   18.9132 C   0  0  0  0  0  0  0  0  0  0  0  0
   13.4347   -6.8723   17.9154 C   0  0  0  0  0  0  0  0  0  0  0  0
   14.6465   -7.5305   18.1650 C   0  0  0  0  0  0  0  0  0  0  0  0
   15.2415   -7.4112   19.4277 C   0  0  0  0  0  0  0  0  0  0  0  0
   14.6335   -6.6462   20.4266 C   0  0  0  0  0  0  0  0  0  0  0  0
   12.1658   -4.5370   25.2397 C   0  0  0  0  0  0  0  0  0  0  0  0
   12.0928   -4.3759   23.7995 N   0  0  0  0  0  0  0  0  0  0  0  0
   13.4662   -4.2061   23.3248 C   0  0  0  0  0  0  0  0  0  0  0  0
   13.4716   -4.0491   21.8064 C   0  0  0  0  0  0  0  0  0  0  0  0
   12.7928   -5.1974   21.2092 N   0  0  0  0  0  0  0  0  0  0  0  0
   11.4768   -5.5488   21.7391 C   0  0  0  0  0  0  0  0  0  0  0  0
   11.5599   -5.6281   23.2622 C   0  0  0  0  0  0  0  0  0  0  0  0
   18.3884  -10.1852   13.0358 C   0  0  0  0  0  0  0  0  0  0  0  0
   17.1846  -10.2305   12.2180 N   0  0  0  0  0  0  0  0  0  0  0  0
   16.3637  -10.5468   12.6599 H   0  0  0  0  0  0  0  0  0  0  0  0
   17.0681   -9.8622   10.8331 C   0  0  0  0  0  0  0  0  0  0  0  0
   15.9332  -10.2295   10.1835 N   0  0  0  0  0  0  0  0  0  0  0  0
   15.7246   -9.9284    8.8786 C   0  0  0  0  0  0  0  0  0  0  0  0
   16.6602   -9.2401    8.1808 N   0  0  0  0  0  0  0  0  0  0  0  0
   17.8224   -8.8341    8.7570 C   0  0  0  0  0  0  0  0  0  0  0  0
   18.0593   -9.1399   10.1228 C   0  0  0  0  0  0  0  0  0  0  0  0
   19.2515   -8.7139   10.7200 C   0  0  0  0  0  0  0  0  0  0  0  0
   20.1997   -8.0010    9.9919 C   0  0  0  0  0  0  0  0  0  0  0  0
   19.9679   -7.7024    8.6516 C   0  0  0  0  0  0  0  0  0  0  0  0
   18.7880   -8.1084    8.0119 C   0  0  0  0  0  0  0  0  0  0  0  0
   18.6166   -7.7475    6.5798 C   0  0  0  0  0  0  0  0  0  0  0  0
   18.9577   -6.6028    6.1762 O   0  0  0  0  0  0  0  0  0  0  0  0
   18.0851   -8.6718    5.6350 N   0  0  0  0  0  0  0  0  0  0  0  0
   17.8118   -9.5715    5.9267 H   0  0  0  0  0  0  0  0  0  0  0  0
   17.9911   -8.4109    4.6904 H   0  0  0  0  0  0  0  0  0  0  0  0
 17 18  1  0  0  0
 18 19  1  0  0  0
 19 20  1  0  0  0
 20 21  1  0  0  0
 21 22  1  0  0  0
 21 11  1  0  0  0
 22 23  1  0  0  0
 23 18  1  0  0  0
 11 12  2  0  0  0
 12 13  1  0  0  0
 13 14  2  0  0  0
 14 15  1  0  0  0
 14  7  1  0  0  0
 15 16  2  0  0  0
 16 11  1  0  0  0
  7  8  2  0  0  0
  7  9  1  0  0  0
  9  1  1  0  0  0
  1  2  2  0  0  0
  2  3  1  0  0  0
  3  4  2  0  0  0
  4  5  1  0  0  0
  5  6  2  0  0  0
  5 24  1  0  0  0
  6  1  1  0  0  0
 24 25  1  0  0  0
 25 27  1  0  0  0
 27 28  2  0  0  0
 28 29  1  0  0  0
 29 30  2  0  0  0
 30 31  1  0  0  0
 31 32  2  0  0  0
 32 33  1  0  0  0
 32 27  1  0  0  0
 33 34  2  0  0  0
 34 35  1  0  0  0
 35 36  2  0  0  0
 36 37  1  0  0  0
 36 31  1  0  0  0
 37 38  2  0  0  0
 37 39  1  0  0  0
  9 10  1  0  0  0
 25 26  1  0  0  0
 39 40  1  0  0  0
 39 41  1  0  0  0
M  END
>  <minimizedAffinity>
-9.62393

>  <minimizedRMSD>
1.37736

$$$$
CHEMBL3582387 PubChem-122179522


 31 34  0  0  0  0  0  0  0  0999 V2000
   16.9965   -9.7390   16.4758 C   0  0  0  0  0  0  0  0  0  0  0  0
   17.4908  -10.9805   16.8883 C   0  0  0  0  0  0  0  0  0  0  0  0
   18.0058  -11.8893   15.9642 C   0  0  0  0  0  0  0  0  0  0  0  0
   18.0338  -11.5678   14.6078 C   0  0  0  0  0  0  0  0  0  0  0  0
   18.5392  -12.4642   13.7235 F   0  0  0  0  0  0  0  0  0  0  0  0
   17.5439  -10.3288   14.1716 C   0  0  0  0  0  0  0  0  0  0  0  0
   17.0245   -9.4103   15.1008 C   0  0  0  0  0  0  0  0  0  0  0  0
   16.5609   -8.2187   14.6491 F   0  0  0  0  0  0  0  0  0  0  0  0
   16.4854   -8.8637   17.4924 N   0  0  0  0  0  0  0  0  0  0  0  0
   17.0915   -8.6654   18.2423 H   0  0  0  0  0  0  0  0  0  0  0  0
   14.8481   -7.0279   16.5146 O   0  0  0  0  0  0  0  0  0  0  0  0
   14.9213   -8.1156   17.5498 S   0  0  0  0  0  0  0  0  0  0  0  0
   13.8508   -9.1421   17.3071 O   0  0  0  0  0  0  0  0  0  0  0  0
   14.6829   -7.4105   19.1376 C   0  0  0  0  0  0  0  0  0  0  0  0
   15.6768   -7.5107   20.1143 C   0  0  0  0  0  0  0  0  0  0  0  0
   15.4707   -6.9513   21.3765 C   0  0  0  0  0  0  0  0  0  0  0  0
   14.2653   -6.2984   21.6441 C   0  0  0  0  0  0  0  0  0  0  0  0
   13.3071   -6.2131   20.6819 N   0  0  0  0  0  0  0  0  0  0  0  0
   13.4894   -6.7519   19.4461 C   0  0  0  0  0  0  0  0  0  0  0  0
   17.5748   -9.9986   12.7690 C   0  0  0  0  0  0  0  0  0  0  0  0
   17.6005   -9.7216   11.5959 C   0  0  0  0  0  0  0  0  0  0  0  0
   17.6314   -9.3913   10.1997 C   0  0  0  0  0  0  0  0  0  0  0  0
   16.6751   -9.9497    9.3187 C   0  0  0  0  0  0  0  0  0  0  0  0
   16.6936   -9.6422    7.9858 N   0  0  0  0  0  0  0  0  0  0  0  0
   17.6464   -8.7922    7.5298 C   0  0  0  0  0  0  0  0  0  0  0  0
   17.8161   -8.3814    6.2675 N   0  0  0  0  0  0  0  0  0  0  0  0
   18.8634   -7.5598    6.2783 N   0  0  0  0  0  0  0  0  0  0  0  0
   19.3621   -7.4444    7.5375 C   0  0  0  0  0  0  0  0  0  0  0  0
   18.5798   -8.2371    8.3441 C   0  0  0  0  0  0  0  0  0  0  0  0
   18.6123   -8.5109    9.7059 C   0  0  0  0  0  0  0  0  0  0  0  0
   17.2740   -8.6361    5.4861 H   0  0  0  0  0  0  0  0  0  0  0  0
 11 12  2  0  0  0
 12 13  2  0  0  0
 12  9  1  0  0  0
  9  1  1  0  0  0
  1  2  2  0  0  0
  2  3  1  0  0  0
  3  4  2  0  0  0
  4  5  1  0  0  0
  4  6  1  0  0  0
  6 20  1  0  0  0
 20 21  3  0  0  0
 21 22  1  0  0  0
 22 23  2  0  0  0
 23 24  1  0  0  0
 24 25  2  0  0  0
 25 26  1  0  0  0
 26 27  1  0  0  0
 27 28  2  0  0  0
 28 29  1  0  0  0
 29 30  2  0  0  0
  6  7  2  0  0  0
  7  8  1  0  0  0
 12 14  1  0  0  0
 14 15  2  0  0  0
 15 16  1  0  0  0
 16 17  2  0  0  0
 17 18  1  0  0  0
 18 19  2  0  0  0
  7  1  1  0  0  0
 19 14  1  0  0  0
 30 22  1  0  0  0
 29 25  1  0  0  0
  9 10  1  0  0  0
 26 31  1  0  0  0
M  END
>  <minimizedAffinity>
-9.43069

>  <minimizedRMSD>
1.37784

$$$$
CHEMBL1314331 ChemDiv-C679-5968 MCULE-8923947922 MolPort-007-656-192 PubChem-16009631 ZINC000008654527


 34 38  0  0  0  0  0  0  0  0999 V2000
   16.9582   -9.4384   14.2667 C   0  0  0  0  0  0  0  0  0  0  0  0
   17.9690  -10.3962   14.4449 C   0  0  0  0  0  0  0  0  0  0  0  0
   18.3658  -10.7681   15.7315 C   0  0  0  0  0  0  0  0  0  0  0  0
   17.7560  -10.1863   16.8462 C   0  0  0  0  0  0  0  0  0  0  0  0
   16.7470   -9.2314   16.6836 C   0  0  0  0  0  0  0  0  0  0  0  0
   16.3539   -8.8618   15.3882 C   0  0  0  0  0  0  0  0  0  0  0  0
   16.1480   -8.6556   17.8523 N   0  0  0  0  0  0  0  0  0  0  0  0
   14.9954   -7.7999   17.8973 C   0  0  0  0  0  0  0  0  0  0  0  0
   14.3842   -7.4903   16.8385 O   0  0  0  0  0  0  0  0  0  0  0  0
   16.5715   -8.8694   18.7149 H   0  0  0  0  0  0  0  0  0  0  0  0
   14.5211   -7.2815   19.1926 C   0  0  0  0  0  0  0  0  0  0  0  0
   15.2748   -7.4866   20.3567 C   0  0  0  0  0  0  0  0  0  0  0  0
   14.8269   -6.9947   21.5859 C   0  0  0  0  0  0  0  0  0  0  0  0
   13.6210   -6.2919   21.6685 C   0  0  0  0  0  0  0  0  0  0  0  0
   12.8640   -6.0843   20.5045 C   0  0  0  0  0  0  0  0  0  0  0  0
   13.3119   -6.5762   19.2757 C   0  0  0  0  0  0  0  0  0  0  0  0
   13.2002   -5.8133   22.9123 O   0  0  0  0  0  0  0  0  0  0  0  0
   11.9051   -5.2693   23.1276 C   0  0  0  0  0  0  0  0  0  0  0  0
   16.5386   -9.0429   12.9941 O   0  0  0  0  0  0  0  0  0  0  0  0
   16.0523   -9.9627   12.0256 C   0  0  0  0  0  0  0  0  0  0  0  0
   17.7853   -9.0762    8.2734 N   0  0  0  0  0  0  0  0  0  0  0  0
   18.4819   -8.6432    7.1799 C   0  0  0  0  0  0  0  0  0  0  0  0
   18.2135   -9.0740    5.7640 C   0  0  0  0  0  0  0  0  0  0  0  0
   18.7866   -8.0609    4.7697 C   0  0  0  0  0  0  0  0  0  0  0  0
   20.2567   -7.7777    5.0882 C   0  0  0  0  0  0  0  0  0  0  0  0
   20.4173   -7.1257    6.4673 C   0  0  0  0  0  0  0  0  0  0  0  0
   19.5336   -7.7790    7.4859 C   0  0  0  0  0  0  0  0  0  0  0  0
   19.5761   -7.5084    9.1510 S   0  0  0  0  0  0  0  0  0  0  0  0
   18.2704   -8.5347    9.4179 C   0  0  0  0  0  0  0  0  0  0  0  0
   17.7279   -8.8156   10.6278 N   0  0  0  0  0  0  0  0  0  0  0  0
   16.6720   -9.6707   10.7061 C   0  0  0  0  0  0  0  0  0  0  0  0
   16.1386  -10.2421    9.5431 C   0  0  0  0  0  0  0  0  0  0  0  0
   16.7188   -9.9309    8.3092 C   0  0  0  0  0  0  0  0  0  0  0  0
   16.2481  -10.4389    7.2568 O   0  0  0  0  0  0  0  0  0  0  0  0
 21 22  1  0  0  0
 22 23  1  0  0  0
 23 24  1  0  0  0
 24 25  1  0  0  0
 25 26  1  0  0  0
 26 27  1  0  0  0
 27 28  1  0  0  0
 28 29  1  0  0  0
 29 30  2  0  0  0
 30 31  1  0  0  0
 31 20  1  0  0  0
 20 19  1  0  0  0
 19  1  1  0  0  0
  1  2  2  0  0  0
  2  3  1  0  0  0
  3  4  2  0  0  0
  4  5  1  0  0  0
  5  6  2  0  0  0
  5  7  1  0  0  0
  7  8  1  0  0  0
  8  9  2  0  0  0
  8 11  1  0  0  0
 11 12  2  0  0  0
 12 13  1  0  0  0
 13 14  2  0  0  0
 14 15  1  0  0  0
 15 16  2  0  0  0
 14 17  1  0  0  0
 17 18  1  0  0  0
 31 32  2  0  0  0
 32 33  1  0  0  0
 33 34  2  0  0  0
 29 21  1  0  0  0
  6  1  1  0  0  0
 16 11  1  0  0  0
 33 21  1  0  0  0
 27 22  2  0  0  0
  7 10  1  0  0  0
M  END
>  <minimizedAffinity>
-8.69507

>  <minimizedRMSD>
1.38011

$$$$
CHEMBL3764081 PubChem-127038890


 29 32  0  0  0  0  0  0  0  0999 V2000
   17.3887   -8.4964   12.0500 N   0  0  0  0  0  0  0  0  0  0  0  0
   16.4972   -8.3803   13.1606 C   0  0  0  0  0  0  0  0  0  0  0  0
   15.4800   -7.6407   13.0635 O   0  0  0  0  0  0  0  0  0  0  0  0
   18.1609   -9.1027   12.1234 H   0  0  0  0  0  0  0  0  0  0  0  0
   16.7330   -9.1222   14.4253 C   0  0  0  0  0  0  0  0  0  0  0  0
   16.3161   -8.5397   15.5835 N   0  0  0  0  0  0  0  0  0  0  0  0
   16.4822   -9.1352   16.7914 C   0  0  0  0  0  0  0  0  0  0  0  0
   17.0813  -10.3482   16.8759 N   0  0  0  0  0  0  0  0  0  0  0  0
   17.5265  -10.9873   15.7643 C   0  0  0  0  0  0  0  0  0  0  0  0
   17.3657  -10.3874   14.4927 C   0  0  0  0  0  0  0  0  0  0  0  0
   17.8461  -11.0629   13.3597 C   0  0  0  0  0  0  0  0  0  0  0  0
   18.4665  -12.3080   13.4809 C   0  0  0  0  0  0  0  0  0  0  0  0
   18.6166  -12.8945   14.7385 C   0  0  0  0  0  0  0  0  0  0  0  0
   18.1489  -12.2385   15.8793 C   0  0  0  0  0  0  0  0  0  0  0  0
   18.3051  -12.8205   17.0944 F   0  0  0  0  0  0  0  0  0  0  0  0
   16.0266   -8.4853   17.9714 N   0  0  0  0  0  0  0  0  0  0  0  0
   15.5914   -7.6043   17.9114 H   0  0  0  0  0  0  0  0  0  0  0  0
   16.1465   -8.9164   18.8483 H   0  0  0  0  0  0  0  0  0  0  0  0
   17.1977   -7.7527   10.8156 C   0  0  0  0  0  0  0  0  0  0  0  0
   17.0012  -10.5786    7.6091 C   0  0  0  0  0  0  0  0  0  0  0  0
   16.3347  -10.7767    8.7772 N   0  0  0  0  0  0  0  0  0  0  0  0
   16.3905   -9.8759    9.7948 C   0  0  0  0  0  0  0  0  0  0  0  0
   17.1393   -8.7026    9.6640 C   0  0  0  0  0  0  0  0  0  0  0  0
   17.8449   -8.4737    8.4683 C   0  0  0  0  0  0  0  0  0  0  0  0
   17.7694   -9.4284    7.4287 C   0  0  0  0  0  0  0  0  0  0  0  0
   18.4613   -9.2231    6.2321 C   0  0  0  0  0  0  0  0  0  0  0  0
   19.2323   -8.0701    6.0604 C   0  0  0  0  0  0  0  0  0  0  0  0
   19.3133   -7.1209    7.0835 C   0  0  0  0  0  0  0  0  0  0  0  0
   18.6230   -7.3204    8.2827 C   0  0  0  0  0  0  0  0  0  0  0  0
 20 21  2  0  0  0
 21 22  1  0  0  0
 22 23  2  0  0  0
 23 19  1  0  0  0
 19  1  1  0  0  0
  1  2  1  0  0  0
  2  3  2  0  0  0
  2  5  1  0  0  0
  5  6  2  0  0  0
  6  7  1  0  0  0
  7  8  2  0  0  0
  8  9  1  0  0  0
  9 10  2  0  0  0
 10 11  1  0  0  0
 11 12  2  0  0  0
 12 13  1  0  0  0
 13 14  2  0  0  0
 14 15  1  0  0  0
  7 16  1  0  0  0
 23 24  1  0  0  0
 24 25  2  0  0  0
 25 26  1  0  0  0
 26 27  2  0  0  0
 27 28  1  0  0  0
 28 29  2  0  0  0
 25 20  1  0  0  0
 10  5  1  0  0  0
 29 24  1  0  0  0
 14  9  1  0  0  0
  1  4  1  0  0  0
 16 17  1  0  0  0
 16 18  1  0  0  0
M  END
>  <minimizedAffinity>
-2.76527

>  <minimizedRMSD>
1.38516

$$$$
CHEMBL5003574 96151539 MCULE-8390264413 MolPort-029-898-450 PubChem-72895893 ZINC000096151539


 26 29  0  0  0  0  0  0  0  0999 V2000
   16.9106  -10.0468   12.1247 N   0  0  0  0  0  0  0  0  0  0  0  0
   18.0466  -10.7029   12.7647 C   0  0  0  0  0  0  0  0  0  0  0  0
   18.8124   -9.6883   13.6143 C   0  0  0  0  0  0  0  0  0  0  0  0
   17.8779   -8.9488   14.5853 C   0  0  0  0  0  0  0  0  0  0  0  0
   16.6825   -8.3350   13.8449 C   0  0  0  0  0  0  0  0  0  0  0  0
   15.9549   -9.3843   13.0066 C   0  0  0  0  0  0  0  0  0  0  0  0
   16.8497   -9.8250   10.7027 C   0  0  0  0  0  0  0  0  0  0  0  0
   15.8547  -10.4063    9.9690 N   0  0  0  0  0  0  0  0  0  0  0  0
   15.7562  -10.2285    8.6181 C   0  0  0  0  0  0  0  0  0  0  0  0
   16.6658   -9.4608    7.9542 N   0  0  0  0  0  0  0  0  0  0  0  0
   17.6736   -8.8739    8.6448 C   0  0  0  0  0  0  0  0  0  0  0  0
   18.6751   -8.0883    8.0674 C   0  0  0  0  0  0  0  0  0  0  0  0
   19.6056   -7.6293    9.0036 C   0  0  0  0  0  0  0  0  0  0  0  0
   19.1530   -8.2196   10.5247 S   0  0  0  0  0  0  0  0  0  0  0  0
   17.7839   -9.0415   10.0097 C   0  0  0  0  0  0  0  0  0  0  0  0
   17.4353   -9.7942   15.7532 C   0  0  0  0  0  0  0  0  0  0  0  0
   17.9982  -10.9716   16.0886 N   0  0  0  0  0  0  0  0  0  0  0  0
   17.3259  -11.3756   17.1882 C   0  0  0  0  0  0  0  0  0  0  0  0
   16.3643  -10.4331   17.5098 C   0  0  0  0  0  0  0  0  0  0  0  0
   16.4444   -9.4524   16.5966 N   0  0  0  0  0  0  0  0  0  0  0  0
   15.6492   -8.2322   16.5877 C   0  0  0  0  0  0  0  0  0  0  0  0
   15.1155   -7.9549   17.9512 C   0  0  0  0  0  0  0  0  0  0  0  0
   16.0061   -7.6276   19.0110 N   0  0  0  0  0  0  0  0  0  0  0  0
   13.8746   -7.9756   18.1574 O   0  0  0  0  0  0  0  0  0  0  0  0
   16.9773   -7.6111   18.8506 H   0  0  0  0  0  0  0  0  0  0  0  0
   15.6512   -7.4176   19.9050 H   0  0  0  0  0  0  0  0  0  0  0  0
  7  8  2  0  0  0
  8  9  1  0  0  0
  9 10  2  0  0  0
 10 11  1  0  0  0
 11 12  1  0  0  0
 12 13  2  0  0  0
 13 14  1  0  0  0
 14 15  1  0  0  0
  7  1  1  0  0  0
  1  2  1  0  0  0
  2  3  1  0  0  0
  3  4  1  0  0  0
  4  5  1  0  0  0
  5  6  1  0  0  0
  4 16  1  0  0  0
 16 17  2  0  0  0
 17 18  1  0  0  0
 18 19  2  0  0  0
 19 20  1  0  0  0
 20 21  1  0  0  0
 21 22  1  0  0  0
 22 23  1  0  0  0
 22 24  2  0  0  0
 15  7  1  0  0  0
  6  1  1  0  0  0
 20 16  1  0  0  0
 15 11  2  0  0  0
 23 25  1  0  0  0
 23 26  1  0  0  0
M  END
>  <minimizedAffinity>
-4.63023

>  <minimizedRMSD>
1.38610

$$$$
CHEMBL3923164 PubChem-71280333


 30 33  0  0  0  0  0  0  0  0999 V2000
   18.7245  -12.0796   13.7501 C   0  0  0  0  0  0  0  0  0  0  0  0
   17.8903  -11.1036   14.5074 C   0  0  0  0  0  0  0  0  0  0  0  0
   17.3109   -9.9725   13.8907 C   0  0  0  0  0  0  0  0  0  0  0  0
   16.6385   -9.0325   14.6787 C   0  0  0  0  0  0  0  0  0  0  0  0
   16.4951   -9.2200   16.0601 C   0  0  0  0  0  0  0  0  0  0  0  0
   17.0493  -10.3589   16.6563 C   0  0  0  0  0  0  0  0  0  0  0  0
   17.7483  -11.2897   15.8854 C   0  0  0  0  0  0  0  0  0  0  0  0
   15.7705   -8.2298   16.8760 C   0  0  0  0  0  0  0  0  0  0  0  0
   15.0515   -7.3615   16.3127 O   0  0  0  0  0  0  0  0  0  0  0  0
   15.8888   -8.2616   18.3069 N   0  0  0  0  0  0  0  0  0  0  0  0
   16.4665   -8.9660   18.6802 H   0  0  0  0  0  0  0  0  0  0  0  0
   15.2496   -7.3675   19.2756 C   0  0  0  0  0  0  0  0  0  0  0  0
   13.8476   -6.9577   18.8523 C   0  0  0  0  0  0  0  0  0  0  0  0
   13.2984   -7.6324   20.0938 C   0  0  0  0  0  0  0  0  0  0  0  0
   14.6845   -8.1154   20.4731 C   0  0  0  0  0  0  0  0  0  0  0  0
   12.7888   -6.7257   21.0045 F   0  0  0  0  0  0  0  0  0  0  0  0
   12.4227   -8.6632   19.8097 F   0  0  0  0  0  0  0  0  0  0  0  0
   17.4351   -9.7137   12.4864 N   0  0  0  0  0  0  0  0  0  0  0  0
   16.3783   -9.8458   11.5291 C   0  0  0  0  0  0  0  0  0  0  0  0
   15.1847   -9.9700   11.9162 O   0  0  0  0  0  0  0  0  0  0  0  0
   18.3150   -9.4227   12.1543 H   0  0  0  0  0  0  0  0  0  0  0  0
   16.6705   -9.7922   10.0856 C   0  0  0  0  0  0  0  0  0  0  0  0
   16.0317  -10.5378    9.1030 C   0  0  0  0  0  0  0  0  0  0  0  0
   16.5678  -10.2252    7.8967 N   0  0  0  0  0  0  0  0  0  0  0  0
   17.5104   -9.3058    8.1800 C   0  0  0  0  0  0  0  0  0  0  0  0
   17.5977   -9.0233    9.4891 N   0  0  0  0  0  0  0  0  0  0  0  0
   18.4799   -8.1274   10.0031 C   0  0  0  0  0  0  0  0  0  0  0  0
   19.3412   -7.4653    9.1172 C   0  0  0  0  0  0  0  0  0  0  0  0
   19.2666   -7.7457    7.7400 C   0  0  0  0  0  0  0  0  0  0  0  0
   18.3396   -8.6801    7.2518 C   0  0  0  0  0  0  0  0  0  0  0  0
  1  2  1  0  0  0
  2  3  2  0  0  0
  3  4  1  0  0  0
  3 18  1  0  0  0
  4  5  2  0  0  0
  5  6  1  0  0  0
  5  8  1  0  0  0
  6  7  2  0  0  0
  7  2  1  0  0  0
  8  9  2  0  0  0
  8 10  1  0  0  0
 10 12  1  0  0  0
 12 13  1  0  0  0
 13 14  1  0  0  0
 14 15  1  0  0  0
 14 16  1  0  0  0
 14 17  1  0  0  0
 15 12  1  0  0  0
 18 19  1  0  0  0
 19 20  2  0  0  0
 19 22  1  0  0  0
 22 23  2  0  0  0
 23 24  1  0  0  0
 24 25  2  0  0  0
 25 26  1  0  0  0
 26 27  1  0  0  0
 26 22  1  0  0  0
 27 28  2  0  0  0
 28 29  1  0  0  0
 29 30  2  0  0  0
 30 25  1  0  0  0
 10 11  1  0  0  0
 18 21  1  0  0  0
M  END
>  <minimizedAffinity>
-11.40746

>  <minimizedRMSD>
1.38709

$$$$
CHEMBL37565


 34 38  0  0  0  0  0  0  0  0999 V2000
   16.0635   -7.6424   11.7327 C   0  0  0  0  0  0  0  0  0  0  0  0
   15.3593   -6.6372   12.4022 C   0  0  0  0  0  0  0  0  0  0  0  0
   15.0292   -6.7921   13.7516 C   0  0  0  0  0  0  0  0  0  0  0  0
   15.3974   -7.9526   14.4399 C   0  0  0  0  0  0  0  0  0  0  0  0
   16.1075   -8.9591   13.7646 C   0  0  0  0  0  0  0  0  0  0  0  0
   16.4375   -8.8042   12.4160 C   0  0  0  0  0  0  0  0  0  0  0  0
   16.3918   -7.4836   10.2866 C   0  0  0  0  0  0  0  0  0  0  0  0
   16.9405   -8.7238    9.7502 N   0  0  0  0  0  0  0  0  0  0  0  0
   18.2276   -9.0742    9.6560 C   0  0  0  0  0  0  0  0  0  0  0  0
   18.3219  -10.3319    9.1502 C   0  0  0  0  0  0  0  0  0  0  0  0
   17.0936  -10.8312    8.9074 N   0  0  0  0  0  0  0  0  0  0  0  0
   16.2730   -9.8128    9.2879 C   0  0  0  0  0  0  0  0  0  0  0  0
   19.5627  -10.9359    8.9631 C   0  0  0  0  0  0  0  0  0  0  0  0
   20.7027  -10.1917    9.3174 C   0  0  0  0  0  0  0  0  0  0  0  0
   20.5548   -8.8861    9.8413 C   0  0  0  0  0  0  0  0  0  0  0  0
   19.3123   -8.3386   10.0071 N   0  0  0  0  0  0  0  0  0  0  0  0
   19.6914  -12.3137    8.4149 C   0  0  0  0  0  0  0  0  0  0  0  0
   14.7823   -9.9158    9.2375 C   0  0  0  0  0  0  0  0  0  0  0  0
   14.1990  -10.0452   10.6354 C   0  0  0  0  0  0  0  0  0  0  0  0
   14.7639  -11.2643   11.3400 C   0  0  0  0  0  0  0  0  0  0  0  0
   15.0476   -8.0797   15.7886 O   0  0  0  0  0  0  0  0  0  0  0  0
   16.0000   -8.0489   16.8499 C   0  0  0  0  0  0  0  0  0  0  0  0
   15.3024   -7.9510   18.1669 C   0  0  0  0  0  0  0  0  0  0  0  0
   13.9673   -7.8986   18.3234 N   0  0  0  0  0  0  0  0  0  0  0  0
   13.7875   -7.8681   19.6336 N   0  0  0  0  0  0  0  0  0  0  0  0
   14.9595   -7.9083   20.2479 N   0  0  0  0  0  0  0  0  0  0  0  0
   15.9326   -7.9660   19.3535 N   0  0  0  0  0  0  0  0  0  0  0  0
   13.2784   -7.8858   17.6202 H   0  0  0  0  0  0  0  0  0  0  0  0
   16.8923   -9.2526   16.8098 C   0  0  0  0  0  0  0  0  0  0  0  0
   18.2427   -9.0936   16.4794 C   0  0  0  0  0  0  0  0  0  0  0  0
   19.0923  -10.2034   16.4418 C   0  0  0  0  0  0  0  0  0  0  0  0
   18.5946  -11.4758   16.7375 C   0  0  0  0  0  0  0  0  0  0  0  0
   17.2472  -11.6393   17.0724 C   0  0  0  0  0  0  0  0  0  0  0  0
   16.3970  -10.5304   17.1102 C   0  0  0  0  0  0  0  0  0  0  0  0
  8  9  1  0  0  0
  9 10  2  0  0  0
 10 11  1  0  0  0
 11 12  2  0  0  0
 12 18  1  0  0  0
 18 19  1  0  0  0
 19 20  1  0  0  0
 10 13  1  0  0  0
 13 14  2  0  0  0
 14 15  1  0  0  0
 15 16  2  0  0  0
 13 17  1  0  0  0
  8  7  1  0  0  0
  7  1  1  0  0  0
  1  2  2  0  0  0
  2  3  1  0  0  0
  3  4  2  0  0  0
  4 21  1  0  0  0
 21 22  1  0  0  0
 22 23  1  0  0  0
 23 24  1  0  0  0
 24 25  1  0  0  0
 25 26  2  0  0  0
 26 27  1  0  0  0
 22 29  1  0  0  0
 29 30  2  0  0  0
 30 31  1  0  0  0
 31 32  2  0  0  0
 32 33  1  0  0  0
 33 34  2  0  0  0
  4  5  1  0  0  0
  5  6  2  0  0  0
 12  8  1  0  0  0
  6  1  1  0  0  0
 16  9  1  0  0  0
 27 23  2  0  0  0
 34 29  1  0  0  0
 24 28  1  0  0  0
M  END
>  <minimizedAffinity>
17.91894

>  <minimizedRMSD>
1.38735

$$$$
CHEMBL3665178 PubChem-160805093 PubChem-58177345


 33 36  0  0  0  0  0  0  0  0999 V2000
   17.1211   -9.5196   12.5116 N   0  0  0  0  0  0  0  0  0  0  0  0
   17.8079   -9.3416   11.8290 H   0  0  0  0  0  0  0  0  0  0  0  0
   16.7373   -8.8279   16.1699 N   0  0  0  0  0  0  0  0  0  0  0  0
   17.1809  -10.1307   16.6672 C   0  0  0  0  0  0  0  0  0  0  0  0
   18.4349  -10.5734   15.9183 C   0  0  0  0  0  0  0  0  0  0  0  0
   18.1257  -10.6897   14.4296 C   0  0  0  0  0  0  0  0  0  0  0  0
   17.5142   -9.3879   13.9114 C   0  0  0  0  0  0  0  0  0  0  0  0
   16.3208   -8.9752   14.7752 C   0  0  0  0  0  0  0  0  0  0  0  0
   15.3411   -8.3642   17.0897 S   0  0  0  0  0  0  0  0  0  0  0  0
   14.3514   -9.4966   17.1103 O   0  0  0  0  0  0  0  0  0  0  0  0
   14.6926   -7.1685   16.4486 O   0  0  0  0  0  0  0  0  0  0  0  0
   15.8076   -8.0033   18.7346 N   0  0  0  0  0  0  0  0  0  0  0  0
   16.2113   -8.8453   19.1451 H   0  0  0  0  0  0  0  0  0  0  0  0
   13.3691   -8.0827   19.0726 C   0  0  0  0  0  0  0  0  0  0  0  0
   14.6977   -7.5596   19.5895 C   0  0  0  0  0  0  0  0  0  0  0  0
   14.6465   -6.0455   19.7236 C   0  0  0  0  0  0  0  0  0  0  0  0
   14.9100   -8.1355   20.9731 C   0  0  0  0  0  0  0  0  0  0  0  0
   15.8122   -9.8882   12.0520 C   0  0  0  0  0  0  0  0  0  0  0  0
   15.4916   -9.8683   10.6711 C   0  0  0  0  0  0  0  0  0  0  0  0
   14.1916  -10.2426   10.2950 C   0  0  0  0  0  0  0  0  0  0  0  0
   13.2484  -10.6202   11.2473 C   0  0  0  0  0  0  0  0  0  0  0  0
   13.6083  -10.6240   12.5909 C   0  0  0  0  0  0  0  0  0  0  0  0
   14.8645  -10.2631   12.9581 N   0  0  0  0  0  0  0  0  0  0  0  0
   16.4607   -9.4716    9.6100 C   0  0  0  0  0  0  0  0  0  0  0  0
   16.3339   -9.9930    8.2924 C   0  0  0  0  0  0  0  0  0  0  0  0
   17.2189   -9.6321    7.3154 N   0  0  0  0  0  0  0  0  0  0  0  0
   18.2124   -8.7702    7.6357 C   0  0  0  0  0  0  0  0  0  0  0  0
   18.3414   -8.2689    8.8844 C   0  0  0  0  0  0  0  0  0  0  0  0
   17.4852   -8.6022    9.8788 N   0  0  0  0  0  0  0  0  0  0  0  0
   19.4260   -7.4303    8.9156 C   0  0  0  0  0  0  0  0  0  0  0  0
   19.9069   -7.4872    7.6002 C   0  0  0  0  0  0  0  0  0  0  0  0
   19.1625   -8.3096    6.8135 N   0  0  0  0  0  0  0  0  0  0  0  0
   19.2924   -8.5178    5.8600 H   0  0  0  0  0  0  0  0  0  0  0  0
 14 15  1  0  0  0
 15 16  1  0  0  0
 15 17  1  0  0  0
 15 12  1  0  0  0
 12  9  1  0  0  0
  9 10  2  0  0  0
  9 11  2  0  0  0
  9  3  1  0  0  0
  3  4  1  0  0  0
  4  5  1  0  0  0
  5  6  1  0  0  0
  6  7  1  0  0  0
  7  8  1  0  0  0
  7  1  1  0  0  0
  8  3  1  0  0  0
  1 18  1  0  0  0
 18 19  1  0  0  0
 19 20  2  0  0  0
 19 24  1  0  0  0
 20 21  1  0  0  0
 21 22  2  0  0  0
 22 23  1  0  0  0
 23 18  2  0  0  0
 24 25  2  0  0  0
 25 26  1  0  0  0
 26 27  2  0  0  0
 27 28  1  0  0  0
 28 29  2  0  0  0
 28 30  1  0  0  0
 29 24  1  0  0  0
 30 31  2  0  0  0
 31 32  1  0  0  0
 32 27  1  0  0  0
 12 13  1  0  0  0
  1  2  1  0  0  0
 32 33  1  0  0  0
M  END
>  <minimizedAffinity>
-1.21499

>  <minimizedRMSD>
1.38948

$$$$
CHEMBL4989902 23250379 PubChem-30956704 ZINC000023250379


 30 34  0  0  0  0  0  0  0  0999 V2000
   17.0283  -10.9133   13.7656 C   0  0  0  0  0  0  0  0  0  0  0  0
   17.3393  -12.1378   14.6084 C   0  0  0  0  0  0  0  0  0  0  0  0
   18.8576  -12.2597   14.6481 C   0  0  0  0  0  0  0  0  0  0  0  0
   19.3901  -11.3886   13.5252 C   0  0  0  0  0  0  0  0  0  0  0  0
   18.2682  -10.5845   13.0842 N   0  0  0  0  0  0  0  0  0  0  0  0
   18.3726   -9.6293   12.0191 C   0  0  0  0  0  0  0  0  0  0  0  0
   19.4974   -9.3665   11.5156 O   0  0  0  0  0  0  0  0  0  0  0  0
   15.7508   -8.3239   16.4715 C   0  0  0  0  0  0  0  0  0  0  0  0
   16.1756   -7.6058   15.3590 C   0  0  0  0  0  0  0  0  0  0  0  0
   16.6504   -8.4270   14.3271 C   0  0  0  0  0  0  0  0  0  0  0  0
   16.5878   -9.7815   14.6418 C   0  0  0  0  0  0  0  0  0  0  0  0
   15.9607   -9.9683   16.1872 S   0  0  0  0  0  0  0  0  0  0  0  0
   15.9757   -7.7440   18.9007 N   0  0  0  0  0  0  0  0  0  0  0  0
   15.2066   -7.7392   17.7023 C   0  0  0  0  0  0  0  0  0  0  0  0
   14.0559   -7.2284   17.7055 O   0  0  0  0  0  0  0  0  0  0  0  0
   15.6065   -7.3506   19.7242 H   0  0  0  0  0  0  0  0  0  0  0  0
   16.8767   -8.1408   18.9057 H   0  0  0  0  0  0  0  0  0  0  0  0
   17.1561   -8.9477   11.4785 C   0  0  0  0  0  0  0  0  0  0  0  0
   17.0464   -9.1745   10.0420 N   0  0  0  0  0  0  0  0  0  0  0  0
   17.8246   -8.6670    9.0766 C   0  0  0  0  0  0  0  0  0  0  0  0
   18.8806   -7.7633    9.1887 C   0  0  0  0  0  0  0  0  0  0  0  0
   19.5444   -7.3995    8.0027 C   0  0  0  0  0  0  0  0  0  0  0  0
   19.1448   -7.9413    6.7601 C   0  0  0  0  0  0  0  0  0  0  0  0
   18.0774   -8.8562    6.6869 C   0  0  0  0  0  0  0  0  0  0  0  0
   17.4397   -9.1937    7.8779 C   0  0  0  0  0  0  0  0  0  0  0  0
   16.4164  -10.0524    8.0449 N   0  0  0  0  0  0  0  0  0  0  0  0
   16.1980  -10.0098    9.3879 C   0  0  0  0  0  0  0  0  0  0  0  0
   15.1662  -10.8522   10.0733 C   0  0  0  0  0  0  0  0  0  0  0  0
   13.8186  -10.1527   10.0623 C   0  0  0  0  0  0  0  0  0  0  0  0
   14.6673  -10.1322   11.3125 C   0  0  0  0  0  0  0  0  0  0  0  0
 13 14  1  0  0  0
 14 15  2  0  0  0
 14  8  1  0  0  0
  8  9  2  0  0  0
  9 10  1  0  0  0
 10 11  2  0  0  0
  1 11  1  0  0  0
  1  2  1  0  0  0
  2  3  1  0  0  0
  3  4  1  0  0  0
  4  5  1  0  0  0
  5  6  1  0  0  0
  6  7  2  0  0  0
  6 18  1  0  0  0
 18 19  1  0  0  0
 19 20  1  0  0  0
 20 21  2  0  0  0
 21 22  1  0  0  0
 22 23  2  0  0  0
 23 24  1  0  0  0
 24 25  2  0  0  0
 25 26  1  0  0  0
 26 27  2  0  0  0
 27 28  1  0  0  0
 28 29  1  0  0  0
 29 30  1  0  0  0
 11 12  1  0  0  0
 12  8  1  0  0  0
  5  1  1  0  0  0
 27 19  1  0  0  0
 30 28  1  0  0  0
 25 20  1  0  0  0
 13 16  1  0  0  0
 13 17  1  0  0  0
M  END
>  <minimizedAffinity>
-4.69647

>  <minimizedRMSD>
1.39032

$$$$
CHEMBL5080347 PubChem-72949733


 34 39  0  0  0  0  0  0  0  0999 V2000
   18.9967  -11.9835   13.7785 C   0  0  0  0  0  0  0  0  0  0  0  0
   18.1495  -11.1161   14.6484 C   0  0  0  0  0  0  0  0  0  0  0  0
   17.2894  -10.1410   14.1078 C   0  0  0  0  0  0  0  0  0  0  0  0
   16.5140   -9.3510   14.9624 C   0  0  0  0  0  0  0  0  0  0  0  0
   16.5844   -9.5203   16.3513 C   0  0  0  0  0  0  0  0  0  0  0  0
   17.4421  -10.4921   16.8818 C   0  0  0  0  0  0  0  0  0  0  0  0
   18.2198  -11.2850   16.0343 C   0  0  0  0  0  0  0  0  0  0  0  0
   15.7647   -8.6845   17.2440 C   0  0  0  0  0  0  0  0  0  0  0  0
   14.6074   -8.0921   16.8423 N   0  0  0  0  0  0  0  0  0  0  0  0
   14.2101   -7.4488   17.9486 C   0  0  0  0  0  0  0  0  0  0  0  0
   15.0980   -7.6554   18.9575 C   0  0  0  0  0  0  0  0  0  0  0  0
   16.1009   -8.4396   18.5395 N   0  0  0  0  0  0  0  0  0  0  0  0
   14.9252   -7.0991   20.2214 C   0  0  0  0  0  0  0  0  0  0  0  0
   13.7819   -6.2974   20.4389 C   0  0  0  0  0  0  0  0  0  0  0  0
   12.8621   -6.0889   19.3787 C   0  0  0  0  0  0  0  0  0  0  0  0
   13.0706   -6.6681   18.1138 C   0  0  0  0  0  0  0  0  0  0  0  0
   16.8844   -8.7585   19.0433 H   0  0  0  0  0  0  0  0  0  0  0  0
   13.5527   -5.6977   21.7238 N   0  0  0  0  0  0  0  0  0  0  0  0
   12.3615   -5.5349   22.3290 C   0  0  0  0  0  0  0  0  0  0  0  0
   12.6250   -4.9205   23.5318 C   0  0  0  0  0  0  0  0  0  0  0  0
   13.9448   -4.7015   23.6823 N   0  0  0  0  0  0  0  0  0  0  0  0
   14.4908   -5.1916   22.5510 C   0  0  0  0  0  0  0  0  0  0  0  0
   11.6034   -4.5415   24.5428 C   0  0  0  0  0  0  0  0  0  0  0  0
   17.1848   -9.9312   12.6867 C   0  0  0  0  0  0  0  0  0  0  0  0
   17.0978   -9.7562   11.4972 C   0  0  0  0  0  0  0  0  0  0  0  0
   16.9954   -9.5492   10.0785 C   0  0  0  0  0  0  0  0  0  0  0  0
   16.0232  -10.0674    9.2340 C   0  0  0  0  0  0  0  0  0  0  0  0
   16.2754   -9.6421    7.9658 N   0  0  0  0  0  0  0  0  0  0  0  0
   17.3852   -8.8856    8.0843 C   0  0  0  0  0  0  0  0  0  0  0  0
   17.8337   -8.8160    9.3402 N   0  0  0  0  0  0  0  0  0  0  0  0
   18.9132   -8.1303    9.7105 N   0  0  0  0  0  0  0  0  0  0  0  0
   19.6175   -7.4503    8.7610 C   0  0  0  0  0  0  0  0  0  0  0  0
   19.1928   -7.4862    7.4181 C   0  0  0  0  0  0  0  0  0  0  0  0
   18.0495   -8.2193    7.0616 C   0  0  0  0  0  0  0  0  0  0  0  0
  1  2  1  0  0  0
  2  3  2  0  0  0
  3  4  1  0  0  0
  3 24  1  0  0  0
  4  5  2  0  0  0
  5  6  1  0  0  0
  5  8  1  0  0  0
  6  7  2  0  0  0
  7  2  1  0  0  0
  8  9  2  0  0  0
  9 10  1  0  0  0
 10 11  2  0  0  0
 11 12  1  0  0  0
 11 13  1  0  0  0
 12  8  1  0  0  0
 13 14  2  0  0  0
 14 15  1  0  0  0
 14 18  1  0  0  0
 15 16  2  0  0  0
 16 10  1  0  0  0
 18 19  1  0  0  0
 19 20  2  0  0  0
 20 21  1  0  0  0
 20 23  1  0  0  0
 21 22  2  0  0  0
 22 18  1  0  0  0
 24 25  3  0  0  0
 25 26  1  0  0  0
 26 27  2  0  0  0
 27 28  1  0  0  0
 28 29  2  0  0  0
 29 30  1  0  0  0
 30 31  1  0  0  0
 30 26  1  0  0  0
 31 32  2  0  0  0
 32 33  1  0  0  0
 33 34  2  0  0  0
 34 29  1  0  0  0
 12 17  1  0  0  0
M  END
>  <minimizedAffinity>
-12.38590

>  <minimizedRMSD>
1.39050

$$$$
CHEMBL3582386 PubChem-122179521


 31 34  0  0  0  0  0  0  0  0999 V2000
   16.9913   -9.7326   16.4831 C   0  0  0  0  0  0  0  0  0  0  0  0
   17.4862  -10.9731   16.8974 C   0  0  0  0  0  0  0  0  0  0  0  0
   18.0022  -11.8828   15.9746 C   0  0  0  0  0  0  0  0  0  0  0  0
   18.0304  -11.5629   14.6177 C   0  0  0  0  0  0  0  0  0  0  0  0
   18.5360  -12.4605   13.7346 F   0  0  0  0  0  0  0  0  0  0  0  0
   17.5399  -10.3248   14.1797 C   0  0  0  0  0  0  0  0  0  0  0  0
   17.0193   -9.4056   15.1076 C   0  0  0  0  0  0  0  0  0  0  0  0
   16.5540   -8.2154   14.6542 F   0  0  0  0  0  0  0  0  0  0  0  0
   16.4783   -8.8568   17.4982 N   0  0  0  0  0  0  0  0  0  0  0  0
   17.0834   -8.6572   18.2487 H   0  0  0  0  0  0  0  0  0  0  0  0
   14.8412   -7.0169   16.5238 O   0  0  0  0  0  0  0  0  0  0  0  0
   14.9138   -8.1103   17.5529 S   0  0  0  0  0  0  0  0  0  0  0  0
   13.8394   -9.1302   17.2999 O   0  0  0  0  0  0  0  0  0  0  0  0
   14.6744   -7.4145   19.1433 C   0  0  0  0  0  0  0  0  0  0  0  0
   15.6783   -7.5221   20.1100 C   0  0  0  0  0  0  0  0  0  0  0  0
   15.4713   -6.9660   21.3735 C   0  0  0  0  0  0  0  0  0  0  0  0
   14.2707   -6.3130   21.6576 C   0  0  0  0  0  0  0  0  0  0  0  0
   13.2905   -6.2271   20.6663 C   0  0  0  0  0  0  0  0  0  0  0  0
   13.5101   -6.7751   19.4407 N   0  0  0  0  0  0  0  0  0  0  0  0
   17.5709   -9.9963   12.7769 C   0  0  0  0  0  0  0  0  0  0  0  0
   17.5967   -9.7206   11.6034 C   0  0  0  0  0  0  0  0  0  0  0  0
   17.6273   -9.3919   10.2069 C   0  0  0  0  0  0  0  0  0  0  0  0
   16.6721   -9.9525    9.3263 C   0  0  0  0  0  0  0  0  0  0  0  0
   16.6908   -9.6467    7.9930 N   0  0  0  0  0  0  0  0  0  0  0  0
   17.6429   -8.7966    7.5361 C   0  0  0  0  0  0  0  0  0  0  0  0
   17.8126   -8.3872    6.2732 N   0  0  0  0  0  0  0  0  0  0  0  0
   18.8591   -7.5646    6.2833 N   0  0  0  0  0  0  0  0  0  0  0  0
   19.3571   -7.4470    7.5426 C   0  0  0  0  0  0  0  0  0  0  0  0
   18.5754   -8.2394    8.3501 C   0  0  0  0  0  0  0  0  0  0  0  0
   18.6077   -8.5112    9.7121 C   0  0  0  0  0  0  0  0  0  0  0  0
   17.2710   -8.6435    5.4921 H   0  0  0  0  0  0  0  0  0  0  0  0
 11 12  2  0  0  0
 12 13  2  0  0  0
 12  9  1  0  0  0
  9  1  1  0  0  0
  1  2  2  0  0  0
  2  3  1  0  0  0
  3  4  2  0  0  0
  4  5  1  0  0  0
  4  6  1  0  0  0
  6 20  1  0  0  0
 20 21  3  0  0  0
 21 22  1  0  0  0
 22 23  2  0  0  0
 23 24  1  0  0  0
 24 25  2  0  0  0
 25 26  1  0  0  0
 26 27  1  0  0  0
 27 28  2  0  0  0
 28 29  1  0  0  0
 29 30  2  0  0  0
  6  7  2  0  0  0
  7  8  1  0  0  0
 12 14  1  0  0  0
 14 15  2  0  0  0
 15 16  1  0  0  0
 16 17  2  0  0  0
 17 18  1  0  0  0
 18 19  2  0  0  0
  7  1  1  0  0  0
 19 14  1  0  0  0
 30 22  1  0  0  0
 29 25  1  0  0  0
  9 10  1  0  0  0
 26 31  1  0  0  0
M  END
>  <minimizedAffinity>
-9.46864

>  <minimizedRMSD>
1.39067

$$$$
CHEMBL5069792 PubChem-156898826


 39 43  0  0  0  0  0  0  0  0999 V2000
   16.6894   -8.7763   14.2522 C   0  0  0  0  0  0  0  0  0  0  0  0
   16.6569   -9.2006   12.8495 N   0  0  0  0  0  0  0  0  0  0  0  0
   15.7382   -9.9648   12.3451 C   0  0  0  0  0  0  0  0  0  0  0  0
   14.6970  -10.4668   13.1785 N   0  0  0  0  0  0  0  0  0  0  0  0
   14.6548  -10.1720   14.5752 C   0  0  0  0  0  0  0  0  0  0  0  0
   15.6048   -9.3877   15.1314 C   0  0  0  0  0  0  0  0  0  0  0  0
   13.5042  -10.7193   15.3538 C   0  0  0  0  0  0  0  0  0  0  0  0
   13.9918  -11.0287   12.7830 H   0  0  0  0  0  0  0  0  0  0  0  0
   18.4901  -11.1921   13.2241 Cl  0  0  0  0  0  0  0  0  0  0  0  0
   18.9458   -9.9848   14.4171 C   0  0  0  0  0  0  0  0  0  0  0  0
   18.0750   -8.9439   14.8123 C   0  0  0  0  0  0  0  0  0  0  0  0
   18.5091   -8.0101   15.7608 C   0  0  0  0  0  0  0  0  0  0  0  0
   19.7853   -8.1061   16.3197 C   0  0  0  0  0  0  0  0  0  0  0  0
   20.6412   -9.1380   15.9315 C   0  0  0  0  0  0  0  0  0  0  0  0
   20.2218  -10.0729   14.9828 C   0  0  0  0  0  0  0  0  0  0  0  0
   15.5859   -9.0134   16.5691 C   0  0  0  0  0  0  0  0  0  0  0  0
   16.3002   -9.6609   17.3813 O   0  0  0  0  0  0  0  0  0  0  0  0
   14.7277   -7.9618   17.0373 N   0  0  0  0  0  0  0  0  0  0  0  0
   14.1861   -7.4998   16.3572 H   0  0  0  0  0  0  0  0  0  0  0  0
   14.5761   -7.5134   18.3907 C   0  0  0  0  0  0  0  0  0  0  0  0
   13.4110   -6.8339   18.7531 C   0  0  0  0  0  0  0  0  0  0  0  0
   13.2379   -6.3874   20.0642 C   0  0  0  0  0  0  0  0  0  0  0  0
   14.2440   -6.6237   21.0037 C   0  0  0  0  0  0  0  0  0  0  0  0
   15.3702   -7.2947   20.6402 N   0  0  0  0  0  0  0  0  0  0  0  0
   15.5561   -7.7372   19.3675 C   0  0  0  0  0  0  0  0  0  0  0  0
   14.0665   -6.1771   22.4112 C   0  0  0  0  0  0  0  0  0  0  0  0
   14.7363   -7.0491   23.2690 O   0  0  0  0  0  0  0  0  0  0  0  0
   14.3739   -7.9433   23.1686 H   0  0  0  0  0  0  0  0  0  0  0  0
   15.7671  -10.3341   10.9626 N   0  0  0  0  0  0  0  0  0  0  0  0
   15.1837  -11.0737   10.6765 H   0  0  0  0  0  0  0  0  0  0  0  0
   16.5805   -9.7088    9.9651 C   0  0  0  0  0  0  0  0  0  0  0  0
   17.5621   -8.8638   10.2387 O   0  0  0  0  0  0  0  0  0  0  0  0
   18.0578   -8.5211    9.0817 C   0  0  0  0  0  0  0  0  0  0  0  0
   17.3670   -9.1671    8.1001 C   0  0  0  0  0  0  0  0  0  0  0  0
   16.4085   -9.9403    8.6376 N   0  0  0  0  0  0  0  0  0  0  0  0
   17.6709   -8.9990    6.7516 C   0  0  0  0  0  0  0  0  0  0  0  0
   18.7299   -8.1276    6.4321 C   0  0  0  0  0  0  0  0  0  0  0  0
   19.4445   -7.4590    7.4526 C   0  0  0  0  0  0  0  0  0  0  0  0
   19.1100   -7.6526    8.8062 C   0  0  0  0  0  0  0  0  0  0  0  0
  9 10  1  0  0  0
 10 11  2  0  0  0
 11  1  1  0  0  0
  1  2  1  0  0  0
  2  3  2  0  0  0
  3  4  1  0  0  0
  4  5  1  0  0  0
  5  6  2  0  0  0
  6 16  1  0  0  0
 16 17  2  0  0  0
 16 18  1  0  0  0
 18 20  1  0  0  0
 20 21  2  0  0  0
 21 22  1  0  0  0
 22 23  2  0  0  0
 23 24  1  0  0  0
 24 25  2  0  0  0
 23 26  1  0  0  0
 26 27  1  0  0  0
  5  7  1  0  0  0
  3 29  1  0  0  0
 29 31  1  0  0  0
 31 32  1  0  0  0
 32 33  1  0  0  0
 33 34  2  0  0  0
 34 35  1  0  0  0
 34 36  1  0  0  0
 36 37  2  0  0  0
 37 38  1  0  0  0
 38 39  2  0  0  0
 11 12  1  0  0  0
 12 13  2  0  0  0
 13 14  1  0  0  0
 14 15  2  0  0  0
 15 10  1  0  0  0
  6  1  1  0  0  0
 25 20  1  0  0  0
 35 31  2  0  0  0
 39 33  1  0  0  0
  4  8  1  0  0  0
 18 19  1  0  0  0
 27 28  1  0  0  0
 29 30  1  0  0  0
M  END
>  <minimizedAffinity>
-1.95226

>  <minimizedRMSD>
1.39393

$$$$
CHEMBL5076211 PubChem-156898780


 39 43  0  0  0  0  0  0  0  0999 V2000
   16.6123   -8.7585   14.2985 C   0  0  0  0  0  0  0  0  0  0  0  0
   16.5641   -9.2057   12.9035 N   0  0  0  0  0  0  0  0  0  0  0  0
   15.6371   -9.9737   12.4205 C   0  0  0  0  0  0  0  0  0  0  0  0
   14.6023  -10.4578   13.2721 N   0  0  0  0  0  0  0  0  0  0  0  0
   14.5788  -10.1449   14.6656 C   0  0  0  0  0  0  0  0  0  0  0  0
   15.5389   -9.3574   15.1998 C   0  0  0  0  0  0  0  0  0  0  0  0
   13.4363  -10.6781   15.4655 C   0  0  0  0  0  0  0  0  0  0  0  0
   13.8887  -11.0196   12.8922 H   0  0  0  0  0  0  0  0  0  0  0  0
   18.4433  -11.1212   13.2040 Cl  0  0  0  0  0  0  0  0  0  0  0  0
   18.8896   -9.9321   14.4188 C   0  0  0  0  0  0  0  0  0  0  0  0
   18.0049   -8.9150   14.8439 C   0  0  0  0  0  0  0  0  0  0  0  0
   18.4320   -7.9939   15.8077 C   0  0  0  0  0  0  0  0  0  0  0  0
   19.7149   -8.0795   16.3529 C   0  0  0  0  0  0  0  0  0  0  0  0
   20.5846   -9.0883   15.9352 C   0  0  0  0  0  0  0  0  0  0  0  0
   20.1723  -10.0102   14.9707 C   0  0  0  0  0  0  0  0  0  0  0  0
   15.5394   -8.9655   16.6329 C   0  0  0  0  0  0  0  0  0  0  0  0
   16.2693   -9.5994   17.4421 O   0  0  0  0  0  0  0  0  0  0  0  0
   14.6827   -7.9122   17.1008 N   0  0  0  0  0  0  0  0  0  0  0  0
   14.1285   -7.4629   16.4225 H   0  0  0  0  0  0  0  0  0  0  0  0
   14.5474   -7.4443   18.4497 C   0  0  0  0  0  0  0  0  0  0  0  0
   13.5024   -6.6292   18.7610 N   0  0  0  0  0  0  0  0  0  0  0  0
   13.3129   -6.1495   20.0198 C   0  0  0  0  0  0  0  0  0  0  0  0
   14.2031   -6.4894   21.0397 C   0  0  0  0  0  0  0  0  0  0  0  0
   15.2831   -7.3233   20.7494 C   0  0  0  0  0  0  0  0  0  0  0  0
   15.4596   -7.8047   19.4515 C   0  0  0  0  0  0  0  0  0  0  0  0
   15.6512  -10.3651   11.0438 N   0  0  0  0  0  0  0  0  0  0  0  0
   15.0619  -11.1063   10.7742 H   0  0  0  0  0  0  0  0  0  0  0  0
   16.4590   -9.7582   10.0306 C   0  0  0  0  0  0  0  0  0  0  0  0
   17.6116   -9.1540   10.2721 O   0  0  0  0  0  0  0  0  0  0  0  0
   18.0383   -8.7422    9.1096 C   0  0  0  0  0  0  0  0  0  0  0  0
   17.1320   -9.1027    8.1573 C   0  0  0  0  0  0  0  0  0  0  0  0
   16.1030   -9.7594    8.7194 N   0  0  0  0  0  0  0  0  0  0  0  0
   17.3165   -8.7984    6.8103 C   0  0  0  0  0  0  0  0  0  0  0  0
   18.4864   -8.0963    6.4586 C   0  0  0  0  0  0  0  0  0  0  0  0
   19.4267   -7.7225    7.4461 C   0  0  0  0  0  0  0  0  0  0  0  0
   19.2040   -8.0485    8.7960 C   0  0  0  0  0  0  0  0  0  0  0  0
   20.1400   -7.6810    9.8029 N   0  0  0  0  0  0  0  0  0  0  0  0
   20.9581   -7.1905    9.5591 H   0  0  0  0  0  0  0  0  0  0  0  0
   19.9695   -7.9172   10.7433 H   0  0  0  0  0  0  0  0  0  0  0  0
  9 10  1  0  0  0
 10 11  2  0  0  0
 11  1  1  0  0  0
  1  2  1  0  0  0
  2  3  2  0  0  0
  3  4  1  0  0  0
  4  5  1  0  0  0
  5  6  2  0  0  0
  6 16  1  0  0  0
 16 17  2  0  0  0
 16 18  1  0  0  0
 18 20  1  0  0  0
 20 21  2  0  0  0
 21 22  1  0  0  0
 22 23  2  0  0  0
 23 24  1  0  0  0
 24 25  2  0  0  0
  5  7  1  0  0  0
  3 26  1  0  0  0
 26 28  1  0  0  0
 28 29  1  0  0  0
 29 30  1  0  0  0
 30 31  2  0  0  0
 31 32  1  0  0  0
 31 33  1  0  0  0
 33 34  2  0  0  0
 34 35  1  0  0  0
 35 36  2  0  0  0
 36 37  1  0  0  0
 11 12  1  0  0  0
 12 13  2  0  0  0
 13 14  1  0  0  0
 14 15  2  0  0  0
 15 10  1  0  0  0
  6  1  1  0  0  0
 25 20  1  0  0  0
 32 28  2  0  0  0
 36 30  1  0  0  0
  4  8  1  0  0  0
 18 19  1  0  0  0
 26 27  1  0  0  0
 37 38  1  0  0  0
 37 39  1  0  0  0
M  END
>  <minimizedAffinity>
-1.01334

>  <minimizedRMSD>
1.39559

$$$$
CHEMBL5010278 ChemDiv-C125-1250 MCULE-5441584295 MolPort-007-589-535 PubChem-46504628 ZINC000004734157 ZINC04734157


 39 43  0  0  0  0  0  0  0  0999 V2000
   16.3844   -9.9170   16.8818 N   0  0  0  0  0  0  0  0  0  0  0  0
   16.2766   -9.4211   15.6168 C   0  0  0  0  0  0  0  0  0  0  0  0
   16.8957  -10.0395   14.5254 C   0  0  0  0  0  0  0  0  0  0  0  0
   17.6652  -11.1998   14.7615 C   0  0  0  0  0  0  0  0  0  0  0  0
   18.3463  -11.8605   13.7244 C   0  0  0  0  0  0  0  0  0  0  0  0
   19.1174  -12.9960   13.9837 C   0  0  0  0  0  0  0  0  0  0  0  0
   19.2252  -13.4849   15.2870 C   0  0  0  0  0  0  0  0  0  0  0  0
   18.5640  -12.8385   16.3319 C   0  0  0  0  0  0  0  0  0  0  0  0
   17.7859  -11.6964   16.0830 C   0  0  0  0  0  0  0  0  0  0  0  0
   17.1312  -11.0323   17.1331 C   0  0  0  0  0  0  0  0  0  0  0  0
   17.2281  -11.4699   18.3132 O   0  0  0  0  0  0  0  0  0  0  0  0
   15.2007   -7.9316   17.8733 C   0  0  0  0  0  0  0  0  0  0  0  0
   14.9870   -7.4029   16.7486 O   0  0  0  0  0  0  0  0  0  0  0  0
   15.7712   -9.2459   17.9571 N   0  0  0  0  0  0  0  0  0  0  0  0
   15.7311   -9.7094   18.8248 H   0  0  0  0  0  0  0  0  0  0  0  0
   13.3429   -5.6565   20.2538 C   0  0  0  0  0  0  0  0  0  0  0  0
   13.7336   -6.3232   19.0880 C   0  0  0  0  0  0  0  0  0  0  0  0
   14.8097   -7.2217   19.1028 C   0  0  0  0  0  0  0  0  0  0  0  0
   15.5027   -7.4427   20.3007 C   0  0  0  0  0  0  0  0  0  0  0  0
   15.1297   -6.7725   21.4749 C   0  0  0  0  0  0  0  0  0  0  0  0
   14.0475   -5.8862   21.4462 C   0  0  0  0  0  0  0  0  0  0  0  0
   12.0958   -3.6938   21.0998 C   0  0  0  0  0  0  0  0  0  0  0  0
   12.2517   -4.7828   20.2007 O   0  0  0  0  0  0  0  0  0  0  0  0
   15.8132   -6.9652   22.6791 O   0  0  0  0  0  0  0  0  0  0  0  0
   17.1354   -6.4917   22.8974 C   0  0  0  0  0  0  0  0  0  0  0  0
   16.7179   -9.4242   13.1873 C   0  0  0  0  0  0  0  0  0  0  0  0
   16.1774   -8.2863   13.1008 O   0  0  0  0  0  0  0  0  0  0  0  0
   17.0906  -10.1341   11.9978 N   0  0  0  0  0  0  0  0  0  0  0  0
   17.3473  -11.0788   12.1012 H   0  0  0  0  0  0  0  0  0  0  0  0
   17.1224   -9.5901   10.6726 C   0  0  0  0  0  0  0  0  0  0  0  0
   16.0437   -9.8208    9.8107 C   0  0  0  0  0  0  0  0  0  0  0  0
   16.0481   -9.3099    8.5509 N   0  0  0  0  0  0  0  0  0  0  0  0
   17.1003   -8.5898    8.0773 C   0  0  0  0  0  0  0  0  0  0  0  0
   17.0879   -8.0973    6.7701 C   0  0  0  0  0  0  0  0  0  0  0  0
   18.1850   -7.3767    6.2840 C   0  0  0  0  0  0  0  0  0  0  0  0
   19.2907   -7.1407    7.1073 C   0  0  0  0  0  0  0  0  0  0  0  0
   19.3038   -7.6182    8.4231 C   0  0  0  0  0  0  0  0  0  0  0  0
   18.2139   -8.3446    8.9096 C   0  0  0  0  0  0  0  0  0  0  0  0
   18.2170   -8.8504   10.2067 C   0  0  0  0  0  0  0  0  0  0  0  0
 22 23  1  0  0  0
 23 16  1  0  0  0
 16 17  2  0  0  0
 17 18  1  0  0  0
 18 19  2  0  0  0
 18 12  1  0  0  0
 19 20  1  0  0  0
 20 24  1  0  0  0
 20 21  2  0  0  0
 24 25  1  0  0  0
 21 16  1  0  0  0
 12 13  2  0  0  0
 12 14  1  0  0  0
 14  1  1  0  0  0
  1  2  1  0  0  0
  2  3  2  0  0  0
  3 26  1  0  0  0
  3  4  1  0  0  0
 26 27  2  0  0  0
 26 28  1  0  0  0
 28 30  1  0  0  0
 30 31  2  0  0  0
 31 32  1  0  0  0
 32 33  2  0  0  0
 33 34  1  0  0  0
 34 35  2  0  0  0
 35 36  1  0  0  0
 36 37  2  0  0  0
 37 38  1  0  0  0
 38 39  2  0  0  0
 38 33  1  0  0  0
 39 30  1  0  0  0
  4  5  2  0  0  0
  5  6  1  0  0  0
  6  7  2  0  0  0
  7  8  1  0  0  0
  8  9  2  0  0  0
  9 10  1  0  0  0
  9  4  1  0  0  0
 10 11  2  0  0  0
 10  1  1  0  0  0
 14 15  1  0  0  0
 28 29  1  0  0  0
M  END
>  <minimizedAffinity>
-4.85108

>  <minimizedRMSD>
1.39893

$$$$
CHEMBL3808521 PubChem-76903080


 36 39  0  0  0  0  0  0  0  0999 V2000
   18.5809  -10.7695   13.5214 C   0  0  0  0  0  0  0  0  0  0  0  0
   17.8769  -10.1717   14.6923 C   0  0  0  0  0  0  0  0  0  0  0  0
   16.8242   -9.2521   14.5277 C   0  0  0  0  0  0  0  0  0  0  0  0
   16.1980   -8.7091   15.6548 C   0  0  0  0  0  0  0  0  0  0  0  0
   16.6002   -9.0807   16.9457 C   0  0  0  0  0  0  0  0  0  0  0  0
   17.6413  -10.0008   17.0989 C   0  0  0  0  0  0  0  0  0  0  0  0
   18.2773  -10.5427   15.9791 C   0  0  0  0  0  0  0  0  0  0  0  0
   15.9744   -8.5468   18.1203 N   0  0  0  0  0  0  0  0  0  0  0  0
   14.8246   -7.6890   18.1743 C   0  0  0  0  0  0  0  0  0  0  0  0
   14.2608   -7.3200   17.1076 O   0  0  0  0  0  0  0  0  0  0  0  0
   16.3771   -8.7955   18.9835 H   0  0  0  0  0  0  0  0  0  0  0  0
   14.2818   -7.2292   19.4773 C   0  0  0  0  0  0  0  0  0  0  0  0
   12.8877   -7.1275   19.6179 C   0  0  0  0  0  0  0  0  0  0  0  0
   12.3137   -6.7052   20.8172 C   0  0  0  0  0  0  0  0  0  0  0  0
   13.1273   -6.3756   21.8992 C   0  0  0  0  0  0  0  0  0  0  0  0
   14.5138   -6.4686   21.7806 C   0  0  0  0  0  0  0  0  0  0  0  0
   15.1075   -6.8922   20.5787 C   0  0  0  0  0  0  0  0  0  0  0  0
   16.5016   -6.9763   20.4752 O   0  0  0  0  0  0  0  0  0  0  0  0
   17.3842   -6.4635   21.4643 C   0  0  0  0  0  0  0  0  0  0  0  0
   16.3769   -8.8111   13.1737 C   0  0  0  0  0  0  0  0  0  0  0  0
   16.4330   -9.9326   12.2480 N   0  0  0  0  0  0  0  0  0  0  0  0
   16.3218  -10.8436   12.6043 H   0  0  0  0  0  0  0  0  0  0  0  0
   16.6427   -9.7681   10.8444 C   0  0  0  0  0  0  0  0  0  0  0  0
   15.7674  -10.3538    9.8962 C   0  0  0  0  0  0  0  0  0  0  0  0
   15.9805  -10.1900    8.5562 N   0  0  0  0  0  0  0  0  0  0  0  0
   17.0439   -9.4565    8.1444 C   0  0  0  0  0  0  0  0  0  0  0  0
   17.9095   -8.8773    9.0238 C   0  0  0  0  0  0  0  0  0  0  0  0
   17.7402   -9.0114   10.3973 C   0  0  0  0  0  0  0  0  0  0  0  0
   18.8717   -8.2091    8.3048 C   0  0  0  0  0  0  0  0  0  0  0  0
   18.4948   -8.4463    6.9792 C   0  0  0  0  0  0  0  0  0  0  0  0
   17.3777   -9.2094    6.8706 N   0  0  0  0  0  0  0  0  0  0  0  0
   16.9215   -9.5096    6.0515 H   0  0  0  0  0  0  0  0  0  0  0  0
   19.2238   -7.9314    5.8149 C   0  0  0  0  0  0  0  0  0  0  0  0
   18.7274   -8.0533    4.6617 O   0  0  0  0  0  0  0  0  0  0  0  0
   20.4614   -7.3100    5.9924 O   0  0  0  0  0  0  0  0  0  0  0  0
   21.3355   -7.0557    4.9034 C   0  0  0  0  0  0  0  0  0  0  0  0
  1  2  1  0  0  0
  2  3  2  0  0  0
  3  4  1  0  0  0
  3 20  1  0  0  0
  4  5  2  0  0  0
  5  6  1  0  0  0
  5  8  1  0  0  0
  6  7  2  0  0  0
  7  2  1  0  0  0
  8  9  1  0  0  0
  9 10  2  0  0  0
  9 12  1  0  0  0
 12 13  2  0  0  0
 13 14  1  0  0  0
 14 15  2  0  0  0
 15 16  1  0  0  0
 16 17  2  0  0  0
 17 18  1  0  0  0
 17 12  1  0  0  0
 18 19  1  0  0  0
 20 21  1  0  0  0
 21 23  1  0  0  0
 23 24  2  0  0  0
 24 25  1  0  0  0
 25 26  2  0  0  0
 26 27  1  0  0  0
 27 28  2  0  0  0
 27 29  1  0  0  0
 28 23  1  0  0  0
 29 30  2  0  0  0
 30 31  1  0  0  0
 30 33  1  0  0  0
 31 26  1  0  0  0
 33 34  2  0  0  0
 33 35  1  0  0  0
 35 36  1  0  0  0
  8 11  1  0  0  0
 21 22  1  0  0  0
 31 32  1  0  0  0
M  END
>  <minimizedAffinity>
-10.74647

>  <minimizedRMSD>
1.40373

$$$$
CHEMBL444338 PubChem-44362904


 33 35  0  0  0  0  0  0  0  0999 V2000
   18.0636   -9.4785   12.0383 C   0  0  0  0  0  0  0  0  0  0  0  0
   16.9191   -9.8734   12.9637 C   0  0  0  0  0  0  0  0  0  0  0  0
   17.1985  -11.2950   13.4396 C   0  0  0  0  0  0  0  0  0  0  0  0
   18.4798  -11.7547   12.7397 C   0  0  0  0  0  0  0  0  0  0  0  0
   19.3093  -12.5154   13.5678 O   0  0  0  0  0  0  0  0  0  0  0  0
   19.1775  -10.4902   12.2969 C   0  0  0  0  0  0  0  0  0  0  0  0
   19.9547  -10.7240   11.1598 O   0  0  0  0  0  0  0  0  0  0  0  0
   19.5654  -11.9885   14.3409 H   0  0  0  0  0  0  0  0  0  0  0  0
   19.3905  -11.0607   10.4462 H   0  0  0  0  0  0  0  0  0  0  0  0
   17.1213   -8.8933    6.0717 N   0  0  0  0  0  0  0  0  0  0  0  0
   17.8381   -8.5869    7.2625 C   0  0  0  0  0  0  0  0  0  0  0  0
   18.9103   -7.7403    7.2298 N   0  0  0  0  0  0  0  0  0  0  0  0
   19.6211   -7.4288    8.3611 C   0  0  0  0  0  0  0  0  0  0  0  0
   19.2637   -7.9780    9.6070 C   0  0  0  0  0  0  0  0  0  0  0  0
   18.1666   -8.8360    9.6156 C   0  0  0  0  0  0  0  0  0  0  0  0
   17.4737   -9.1362    8.4874 C   0  0  0  0  0  0  0  0  0  0  0  0
   16.4691   -9.9898    8.7602 N   0  0  0  0  0  0  0  0  0  0  0  0
   16.5854  -10.1925   10.1008 C   0  0  0  0  0  0  0  0  0  0  0  0
   17.6155   -9.4918   10.6440 N   0  0  0  0  0  0  0  0  0  0  0  0
   17.3961   -8.4935    5.2150 H   0  0  0  0  0  0  0  0  0  0  0  0
   16.3506   -9.5051    6.1046 H   0  0  0  0  0  0  0  0  0  0  0  0
   17.2235  -11.3724   14.9717 C   0  0  0  0  0  0  0  0  0  0  0  0
   18.3435  -10.1489   15.7316 S   0  0  0  0  0  0  0  0  0  0  0  0
   17.3845  -10.1324   17.2736 C   0  0  0  0  0  0  0  0  0  0  0  0
   16.9131   -8.7228   17.5917 C   0  0  0  0  0  0  0  0  0  0  0  0
   15.6235   -8.3947   16.8518 C   0  0  0  0  0  0  0  0  0  0  0  0
   14.8989   -7.3666   17.5770 N   0  0  0  0  0  0  0  0  0  0  0  0
   15.4682   -6.5219   17.6290 H   0  0  0  0  0  0  0  0  0  0  0  0
   14.6931   -7.6965   18.5199 H   0  0  0  0  0  0  0  0  0  0  0  0
   15.9011   -7.9240   15.4622 C   0  0  0  0  0  0  0  0  0  0  0  0
   15.2711   -8.4258   14.4955 O   0  0  0  0  0  0  0  0  0  0  0  0
   16.8487   -6.9344   15.2297 O   0  0  0  0  0  0  0  0  0  0  0  0
   17.3195   -6.5587   15.9474 H   0  0  0  0  0  0  0  0  0  0  0  0
 10 11  1  0  0  0
 11 12  2  0  0  0
 12 13  1  0  0  0
 13 14  2  0  0  0
 14 15  1  0  0  0
 15 16  2  0  0  0
 16 17  1  0  0  0
 16 11  1  0  0  0
 17 18  2  0  0  0
 18 19  1  0  0  0
 19 15  1  0  0  0
  1 19  1  0  0  0
  1  2  1  0  0  0
  2  3  1  0  0  0
  3 22  1  0  0  0
  3  4  1  0  0  0
 22 23  1  0  0  0
 23 24  1  0  0  0
 24 25  1  0  0  0
 26 25  1  0  0  0
 26 27  1  0  0  0
 26 30  1  0  0  0
 30 31  2  0  0  0
 30 32  1  0  0  0
  4  5  1  0  0  0
  4  6  1  0  0  0
  6  7  1  0  0  0
  6  1  1  0  0  0
 10 20  1  0  0  0
 10 21  1  0  0  0
 27 28  1  0  0  0
 27 29  1  0  0  0
 32 33  1  0  0  0
  5  8  1  0  0  0
  7  9  1  0  0  0
M  END
>  <minimizedAffinity>
-1.62825

>  <minimizedRMSD>
1.40508

$$$$
CHEMBL259032 PubChem-24801012


 39 43  0  0  0  0  0  0  0  0999 V2000
   17.6302   -9.1473   16.4724 C   0  0  0  0  0  0  0  0  0  0  0  0
   18.3132   -9.1600   17.8259 C   0  0  0  0  0  0  0  0  0  0  0  0
   18.6982   -8.0958   16.8057 C   0  0  0  0  0  0  0  0  0  0  0  0
   18.4701  -11.1949   13.3708 C   0  0  0  0  0  0  0  0  0  0  0  0
   18.4463  -12.4957   13.8838 C   0  0  0  0  0  0  0  0  0  0  0  0
   18.1634  -12.7165   15.2348 C   0  0  0  0  0  0  0  0  0  0  0  0
   17.9081  -11.6346   16.0815 C   0  0  0  0  0  0  0  0  0  0  0  0
   17.9459  -10.3231   15.5845 C   0  0  0  0  0  0  0  0  0  0  0  0
   18.2111  -10.1112   14.2253 C   0  0  0  0  0  0  0  0  0  0  0  0
   18.7525  -11.0070   12.0157 O   0  0  0  0  0  0  0  0  0  0  0  0
   18.9240   -9.7181   11.4398 C   0  0  0  0  0  0  0  0  0  0  0  0
   14.2563  -10.3858    9.8389 C   0  0  0  0  0  0  0  0  0  0  0  0
   15.6191   -9.8366    9.6211 C   0  0  0  0  0  0  0  0  0  0  0  0
   16.6031  -10.0138   10.5966 C   0  0  0  0  0  0  0  0  0  0  0  0
   17.8835   -9.4938   10.3924 C   0  0  0  0  0  0  0  0  0  0  0  0
   18.1697   -8.8093    9.1971 C   0  0  0  0  0  0  0  0  0  0  0  0
   19.4419   -8.2776    8.9363 C   0  0  0  0  0  0  0  0  0  0  0  0
   19.6898   -7.6010    7.7385 C   0  0  0  0  0  0  0  0  0  0  0  0
   18.6708   -7.4503    6.7936 C   0  0  0  0  0  0  0  0  0  0  0  0
   17.3995   -7.9758    7.0415 C   0  0  0  0  0  0  0  0  0  0  0  0
   17.1425   -8.6541    8.2365 C   0  0  0  0  0  0  0  0  0  0  0  0
   15.9059   -9.1670    8.4728 N   0  0  0  0  0  0  0  0  0  0  0  0
   20.0559   -8.3849   16.2374 C   0  0  0  0  0  0  0  0  0  0  0  0
   20.1993   -9.3022   15.3865 O   0  0  0  0  0  0  0  0  0  0  0  0
   21.1717   -7.5775   16.6089 N   0  0  0  0  0  0  0  0  0  0  0  0
   22.3985   -7.8047   16.0840 O   0  0  0  0  0  0  0  0  0  0  0  0
   21.0479   -6.8455   17.2555 H   0  0  0  0  0  0  0  0  0  0  0  0
   22.3534   -8.5537   15.4693 H   0  0  0  0  0  0  0  0  0  0  0  0
   16.2150   -8.6757   16.5347 C   0  0  0  0  0  0  0  0  0  0  0  0
   15.4679   -8.8032   15.5274 O   0  0  0  0  0  0  0  0  0  0  0  0
   15.7067   -8.1166   17.7480 N   0  0  0  0  0  0  0  0  0  0  0  0
   16.2934   -8.0881   18.5381 H   0  0  0  0  0  0  0  0  0  0  0  0
   14.3549   -7.5876   17.8607 C   0  0  0  0  0  0  0  0  0  0  0  0
   14.0289   -7.3064   19.2876 C   0  0  0  0  0  0  0  0  0  0  0  0
   14.8548   -7.8035   20.3023 C   0  0  0  0  0  0  0  0  0  0  0  0
   14.5588   -7.5325   21.6423 C   0  0  0  0  0  0  0  0  0  0  0  0
   13.4387   -6.7611   21.9686 C   0  0  0  0  0  0  0  0  0  0  0  0
   12.6158   -6.2580   20.9555 C   0  0  0  0  0  0  0  0  0  0  0  0
   12.9119   -6.5286   19.6153 C   0  0  0  0  0  0  0  0  0  0  0  0
 12 13  1  0  0  0
 13 14  2  0  0  0
 14 15  1  0  0  0
 15 11  1  0  0  0
 15 16  2  0  0  0
 11 10  1  0  0  0
 10  4  1  0  0  0
  4  5  2  0  0  0
  5  6  1  0  0  0
  6  7  2  0  0  0
  7  8  1  0  0  0
  8  9  2  0  0  0
  1  8  1  0  0  0
  1 29  1  0  0  0
  1  2  1  0  0  0
 29 30  2  0  0  0
 29 31  1  0  0  0
 31 33  1  0  0  0
 33 34  1  0  0  0
 34 35  2  0  0  0
 35 36  1  0  0  0
 36 37  2  0  0  0
 37 38  1  0  0  0
 38 39  2  0  0  0
 39 34  1  0  0  0
  2  3  1  0  0  0
  3 23  1  0  0  0
  3  1  1  0  0  0
 23 24  2  0  0  0
 23 25  1  0  0  0
 25 26  1  0  0  0
  9  4  1  0  0  0
 16 17  1  0  0  0
 17 18  2  0  0  0
 18 19  1  0  0  0
 19 20  2  0  0  0
 20 21  1  0  0  0
 21 22  2  0  0  0
 21 16  1  0  0  0
 22 13  1  0  0  0
 31 32  1  0  0  0
 25 27  1  0  0  0
 26 28  1  0  0  0
M  END
>  <minimizedAffinity>
-6.44847

>  <minimizedRMSD>
1.40844

$$$$
CHEMBL5202391 PubChem-155927641


 36 40  0  0  0  0  0  0  0  0999 V2000
   15.2373   -7.5438   16.9137 O   0  0  0  0  0  0  0  0  0  0  0  0
   15.9900   -8.4386   17.3862 C   0  0  0  0  0  0  0  0  0  0  0  0
   16.2563   -8.5006   18.7960 N   0  0  0  0  0  0  0  0  0  0  0  0
   16.8513   -9.2236   19.1002 H   0  0  0  0  0  0  0  0  0  0  0  0
   16.6018   -9.4297   16.4836 C   0  0  0  0  0  0  0  0  0  0  0  0
   16.5508   -9.2508   15.0940 C   0  0  0  0  0  0  0  0  0  0  0  0
   17.1295  -10.1875   14.2317 C   0  0  0  0  0  0  0  0  0  0  0  0
   17.7707  -11.3225   14.7640 C   0  0  0  0  0  0  0  0  0  0  0  0
   17.8219  -11.5021   16.1493 C   0  0  0  0  0  0  0  0  0  0  0  0
   17.2415  -10.5622   17.0044 C   0  0  0  0  0  0  0  0  0  0  0  0
   18.4033  -12.3498   13.8860 C   0  0  0  0  0  0  0  0  0  0  0  0
   17.0524   -9.9613   12.8115 C   0  0  0  0  0  0  0  0  0  0  0  0
   16.9879   -9.7733   11.6225 C   0  0  0  0  0  0  0  0  0  0  0  0
   16.9123   -9.5520   10.2043 C   0  0  0  0  0  0  0  0  0  0  0  0
   17.7851   -8.8422    9.4835 N   0  0  0  0  0  0  0  0  0  0  0  0
   18.8822   -8.1969    9.8742 N   0  0  0  0  0  0  0  0  0  0  0  0
   19.6220   -7.5338    8.9399 C   0  0  0  0  0  0  0  0  0  0  0  0
   19.2148   -7.5444    7.5912 C   0  0  0  0  0  0  0  0  0  0  0  0
   18.0523   -8.2350    7.2132 C   0  0  0  0  0  0  0  0  0  0  0  0
   17.3518   -8.8863    8.2212 C   0  0  0  0  0  0  0  0  0  0  0  0
   16.2186   -9.6034    8.0814 N   0  0  0  0  0  0  0  0  0  0  0  0
   15.9345  -10.0297    9.3425 C   0  0  0  0  0  0  0  0  0  0  0  0
   15.7474   -7.6207   19.8077 C   0  0  0  0  0  0  0  0  0  0  0  0
   16.6419   -7.0686   20.7308 C   0  0  0  0  0  0  0  0  0  0  0  0
   16.1841   -6.2077   21.7323 C   0  0  0  0  0  0  0  0  0  0  0  0
   14.8238   -5.8930   21.8201 C   0  0  0  0  0  0  0  0  0  0  0  0
   13.9252   -6.4377   20.8965 C   0  0  0  0  0  0  0  0  0  0  0  0
   14.3846   -7.2985   19.8960 C   0  0  0  0  0  0  0  0  0  0  0  0
   14.3310   -4.9645   22.8967 C   0  0  0  0  0  0  0  0  0  0  0  0
   12.8885   -4.6900   22.8415 N   0  0  0  0  0  0  0  0  0  0  0  0
   12.1312   -5.9382   22.8809 C   0  0  0  0  0  0  0  0  0  0  0  0
   10.6402   -5.6299   23.0491 C   0  0  0  0  0  0  0  0  0  0  0  0
   10.1996   -4.4224   22.3308 N   0  0  0  0  0  0  0  0  0  0  0  0
   11.0856   -4.0588   21.2153 C   0  0  0  0  0  0  0  0  0  0  0  0
   12.5635   -3.9217   21.6327 C   0  0  0  0  0  0  0  0  0  0  0  0
   10.1309   -3.3173   23.2766 C   0  0  0  0  0  0  0  0  0  0  0  0
  1  2  2  0  0  0
  2  3  1  0  0  0
  3 23  1  0  0  0
 23 24  2  0  0  0
 24 25  1  0  0  0
 25 26  2  0  0  0
 26 29  1  0  0  0
 29 30  1  0  0  0
 30 31  1  0  0  0
 31 32  1  0  0  0
 32 33  1  0  0  0
 33 34  1  0  0  0
 34 35  1  0  0  0
 33 36  1  0  0  0
 26 27  1  0  0  0
 27 28  2  0  0  0
  2  5  1  0  0  0
  5  6  2  0  0  0
  6  7  1  0  0  0
  7  8  2  0  0  0
  8  9  1  0  0  0
  9 10  2  0  0  0
  8 11  1  0  0  0
  7 12  1  0  0  0
 12 13  3  0  0  0
 13 14  1  0  0  0
 14 15  1  0  0  0
 15 16  1  0  0  0
 16 17  2  0  0  0
 17 18  1  0  0  0
 18 19  2  0  0  0
 19 20  1  0  0  0
 20 21  2  0  0  0
 21 22  1  0  0  0
 28 23  1  0  0  0
 10  5  1  0  0  0
 22 14  2  0  0  0
 35 30  1  0  0  0
 20 15  1  0  0  0
  3  4  1  0  0  0
M  END
>  <minimizedAffinity>
-9.52055

>  <minimizedRMSD>
1.41119

$$$$
CHEMBL4108070 PubChem-56948861


 32 36  0  0  0  0  0  0  0  0999 V2000
   17.9357  -12.9734   15.2336 C   0  0  0  0  0  0  0  0  0  0  0  0
   17.9505  -11.5600   14.8904 N   0  0  0  0  0  0  0  0  0  0  0  0
   17.2231  -10.6213   15.7130 C   0  0  0  0  0  0  0  0  0  0  0  0
   16.2917   -9.7340   15.1537 C   0  0  0  0  0  0  0  0  0  0  0  0
   15.6052   -8.8408   15.9755 C   0  0  0  0  0  0  0  0  0  0  0  0
   15.8440   -8.8290   17.3535 C   0  0  0  0  0  0  0  0  0  0  0  0
   16.7796   -9.7272   17.8784 C   0  0  0  0  0  0  0  0  0  0  0  0
   17.4383  -10.5901   17.0595 N   0  0  0  0  0  0  0  0  0  0  0  0
   15.1263   -7.8913   18.2341 C   0  0  0  0  0  0  0  0  0  0  0  0
   14.3916   -6.9971   17.7322 O   0  0  0  0  0  0  0  0  0  0  0  0
   15.2667   -8.0003   19.6567 N   0  0  0  0  0  0  0  0  0  0  0  0
   15.8508   -8.7136   20.0021 H   0  0  0  0  0  0  0  0  0  0  0  0
   14.6238   -7.1526   20.6134 C   0  0  0  0  0  0  0  0  0  0  0  0
   13.3175   -6.8213   20.5815 N   0  0  0  0  0  0  0  0  0  0  0  0
   12.9800   -6.0026   21.6149 C   0  0  0  0  0  0  0  0  0  0  0  0
   14.0215   -5.6729   22.4836 C   0  0  0  0  0  0  0  0  0  0  0  0
   15.4050   -6.4490   21.9134 S   0  0  0  0  0  0  0  0  0  0  0  0
   18.7200  -11.1846   13.7024 C   0  0  0  0  0  0  0  0  0  0  0  0
   19.3008   -9.7810   13.8223 C   0  0  0  0  0  0  0  0  0  0  0  0
   19.0567   -9.1080   12.4842 C   0  0  0  0  0  0  0  0  0  0  0  0
   18.1582   -9.9800   11.7490 N   0  0  0  0  0  0  0  0  0  0  0  0
   17.8714  -11.2190   12.4443 C   0  0  0  0  0  0  0  0  0  0  0  0
   17.5929   -9.6768   10.4614 C   0  0  0  0  0  0  0  0  0  0  0  0
   16.3907  -10.2193   10.0997 N   0  0  0  0  0  0  0  0  0  0  0  0
   15.8162   -9.9548    8.8856 C   0  0  0  0  0  0  0  0  0  0  0  0
   16.4363   -9.1308    7.9920 N   0  0  0  0  0  0  0  0  0  0  0  0
   17.6273   -8.5855    8.3360 C   0  0  0  0  0  0  0  0  0  0  0  0
   18.3557   -7.7601    7.5734 N   0  0  0  0  0  0  0  0  0  0  0  0
   19.4465   -7.4809    8.3291 C   0  0  0  0  0  0  0  0  0  0  0  0
   19.4026   -8.1306    9.5651 C   0  0  0  0  0  0  0  0  0  0  0  0
   18.2180   -8.8329    9.5352 C   0  0  0  0  0  0  0  0  0  0  0  0
   18.1467   -7.4307    6.6694 H   0  0  0  0  0  0  0  0  0  0  0  0
  1  2  1  0  0  0
 18  2  1  0  0  0
 18 19  1  0  0  0
 19 20  1  0  0  0
 20 21  1  0  0  0
 21 22  1  0  0  0
 21 23  1  0  0  0
 23 24  2  0  0  0
 24 25  1  0  0  0
 25 26  2  0  0  0
 26 27  1  0  0  0
 27 28  1  0  0  0
 28 29  1  0  0  0
 29 30  2  0  0  0
 30 31  1  0  0  0
  2  3  1  0  0  0
  3  4  2  0  0  0
  4  5  1  0  0  0
  5  6  2  0  0  0
  6  7  1  0  0  0
  7  8  2  0  0  0
  6  9  1  0  0  0
  9 10  2  0  0  0
  9 11  1  0  0  0
 11 13  1  0  0  0
 13 14  2  0  0  0
 14 15  1  0  0  0
 15 16  2  0  0  0
 16 17  1  0  0  0
 22 18  1  0  0  0
 31 23  1  0  0  0
  8  3  1  0  0  0
 17 13  1  0  0  0
 31 27  2  0  0  0
 28 32  1  0  0  0
 11 12  1  0  0  0
M  END
>  <minimizedAffinity>
-5.81530

>  <minimizedRMSD>
1.41254

$$$$
CHEMBL5076126 PubChem-73336273


 39 43  0  0  0  0  0  0  0  0999 V2000
   13.4842  -10.7182   15.3538 C   0  0  0  0  0  0  0  0  0  0  0  0
   14.6357  -10.1692   14.5776 C   0  0  0  0  0  0  0  0  0  0  0  0
   15.5815   -9.3808   15.1351 C   0  0  0  0  0  0  0  0  0  0  0  0
   16.6670   -8.7679   14.2580 C   0  0  0  0  0  0  0  0  0  0  0  0
   16.6407   -9.1960   12.8563 N   0  0  0  0  0  0  0  0  0  0  0  0
   15.7260   -9.9642   12.3506 C   0  0  0  0  0  0  0  0  0  0  0  0
   14.6833  -10.4670   13.1816 N   0  0  0  0  0  0  0  0  0  0  0  0
   13.9810  -11.0316   12.7851 H   0  0  0  0  0  0  0  0  0  0  0  0
   18.0512   -8.9291   14.8234 C   0  0  0  0  0  0  0  0  0  0  0  0
   18.4731   -8.0000   15.7818 C   0  0  0  0  0  0  0  0  0  0  0  0
   19.7475   -8.0905   16.3461 C   0  0  0  0  0  0  0  0  0  0  0  0
   20.6135   -9.1122   15.9533 C   0  0  0  0  0  0  0  0  0  0  0  0
   20.2062  -10.0424   14.9946 C   0  0  0  0  0  0  0  0  0  0  0  0
   18.9322   -9.9597   14.4235 C   0  0  0  0  0  0  0  0  0  0  0  0
   18.4919  -11.1602   13.2181 Cl  0  0  0  0  0  0  0  0  0  0  0  0
   15.5570   -9.0037   16.5719 C   0  0  0  0  0  0  0  0  0  0  0  0
   16.2784   -9.6410   17.3860 O   0  0  0  0  0  0  0  0  0  0  0  0
   14.6861   -7.9611   17.0370 N   0  0  0  0  0  0  0  0  0  0  0  0
   14.1408   -7.5068   16.3548 H   0  0  0  0  0  0  0  0  0  0  0  0
   14.5259   -7.5111   18.3890 C   0  0  0  0  0  0  0  0  0  0  0  0
   13.3646   -6.8091   18.7306 C   0  0  0  0  0  0  0  0  0  0  0  0
   13.1712   -6.3545   20.0385 C   0  0  0  0  0  0  0  0  0  0  0  0
   14.1432   -6.5957   21.0142 C   0  0  0  0  0  0  0  0  0  0  0  0
   15.3021   -7.3041   20.6830 C   0  0  0  0  0  0  0  0  0  0  0  0
   15.4938   -7.7579   19.3748 C   0  0  0  0  0  0  0  0  0  0  0  0
   13.9272   -6.1327   22.4115 C   0  0  0  0  0  0  0  0  0  0  0  0
   14.6256   -6.9563   23.2943 O   0  0  0  0  0  0  0  0  0  0  0  0
   14.3064   -7.8682   23.2070 H   0  0  0  0  0  0  0  0  0  0  0  0
   15.7608  -10.3370   10.9692 N   0  0  0  0  0  0  0  0  0  0  0  0
   15.1813  -11.0797   10.6832 H   0  0  0  0  0  0  0  0  0  0  0  0
   16.5750   -9.7110    9.9728 C   0  0  0  0  0  0  0  0  0  0  0  0
   16.4026   -9.9401    8.6448 N   0  0  0  0  0  0  0  0  0  0  0  0
   17.3621   -9.1672    8.1086 C   0  0  0  0  0  0  0  0  0  0  0  0
   17.6662   -8.9973    6.7605 C   0  0  0  0  0  0  0  0  0  0  0  0
   18.7262   -8.1267    6.4423 C   0  0  0  0  0  0  0  0  0  0  0  0
   19.4416   -7.4606    7.4638 C   0  0  0  0  0  0  0  0  0  0  0  0
   19.1069   -7.6560    8.8171 C   0  0  0  0  0  0  0  0  0  0  0  0
   18.0537   -8.5236    9.0913 C   0  0  0  0  0  0  0  0  0  0  0  0
   17.5575   -8.8676   10.2477 O   0  0  0  0  0  0  0  0  0  0  0  0
  1  2  1  0  0  0
  2  3  2  0  0  0
  3  4  1  0  0  0
  4  5  1  0  0  0
  5  6  2  0  0  0
  6  7  1  0  0  0
  6 29  1  0  0  0
 29 31  1  0  0  0
 31 32  2  0  0  0
 32 33  1  0  0  0
 33 34  2  0  0  0
 34 35  1  0  0  0
 35 36  2  0  0  0
 36 37  1  0  0  0
 37 38  2  0  0  0
 38 39  1  0  0  0
  4  9  1  0  0  0
  9 10  2  0  0  0
 10 11  1  0  0  0
 11 12  2  0  0  0
 12 13  1  0  0  0
 13 14  2  0  0  0
 14 15  1  0  0  0
  3 16  1  0  0  0
 16 17  2  0  0  0
 16 18  1  0  0  0
 18 20  1  0  0  0
 20 21  2  0  0  0
 21 22  1  0  0  0
 22 23  2  0  0  0
 23 24  1  0  0  0
 24 25  2  0  0  0
 23 26  1  0  0  0
 26 27  1  0  0  0
  7  2  1  0  0  0
 39 31  1  0  0  0
 38 33  1  0  0  0
 14  9  1  0  0  0
 25 20  1  0  0  0
  7  8  1  0  0  0
 29 30  1  0  0  0
 18 19  1  0  0  0
 27 28  1  0  0  0
M  END
>  <minimizedAffinity>
-2.15542

>  <minimizedRMSD>
1.41325

$$$$
CHEMBL3680523 PubChem-68078798


 40 43  0  0  0  0  0  0  0  0999 V2000
   16.9827  -10.1356   16.6047 C   0  0  0  0  0  0  0  0  0  0  0  0
   17.4332  -11.4246   16.9111 C   0  0  0  0  0  0  0  0  0  0  0  0
   18.1432  -12.1701   15.9652 C   0  0  0  0  0  0  0  0  0  0  0  0
   18.4090  -11.6284   14.7048 C   0  0  0  0  0  0  0  0  0  0  0  0
   17.9704  -10.3386   14.3923 C   0  0  0  0  0  0  0  0  0  0  0  0
   17.2553   -9.5964   15.3381 C   0  0  0  0  0  0  0  0  0  0  0  0
   15.4692   -8.2199   17.3978 C   0  0  0  0  0  0  0  0  0  0  0  0
   15.3389   -7.7258   16.2447 O   0  0  0  0  0  0  0  0  0  0  0  0
   16.2549   -9.4044   17.6008 N   0  0  0  0  0  0  0  0  0  0  0  0
   16.2986   -9.7513   18.5211 H   0  0  0  0  0  0  0  0  0  0  0  0
   14.7328   -7.0319   20.9012 C   0  0  0  0  0  0  0  0  0  0  0  0
   13.5508   -6.3823   20.7064 N   0  0  0  0  0  0  0  0  0  0  0  0
   12.9704   -6.3093   19.4789 C   0  0  0  0  0  0  0  0  0  0  0  0
   13.5856   -6.9075   18.3773 C   0  0  0  0  0  0  0  0  0  0  0  0
   14.8024   -7.5806   18.5460 C   0  0  0  0  0  0  0  0  0  0  0  0
   15.3771   -7.6406   19.8216 C   0  0  0  0  0  0  0  0  0  0  0  0
   15.3279   -7.0925   22.1997 N   0  0  0  0  0  0  0  0  0  0  0  0
   15.6778   -7.9567   22.5157 H   0  0  0  0  0  0  0  0  0  0  0  0
   15.4407   -5.9357   23.0766 C   0  0  0  0  0  0  0  0  0  0  0  0
   14.5090   -6.0864   24.2653 C   0  0  0  0  0  0  0  0  0  0  0  0
   12.8546   -5.0185   25.2571 C   0  0  0  0  0  0  0  0  0  0  0  0
   13.3103   -5.4244   24.0039 O   0  0  0  0  0  0  0  0  0  0  0  0
   18.2388   -9.7693   13.0446 C   0  0  0  0  0  0  0  0  0  0  0  0
   17.2049  -10.1978   12.1139 N   0  0  0  0  0  0  0  0  0  0  0  0
   16.5083  -10.7935   12.4733 H   0  0  0  0  0  0  0  0  0  0  0  0
   17.0935   -9.8428   10.7251 C   0  0  0  0  0  0  0  0  0  0  0  0
   15.9731  -10.2406   10.0683 N   0  0  0  0  0  0  0  0  0  0  0  0
   15.7723   -9.9588    8.7579 C   0  0  0  0  0  0  0  0  0  0  0  0
   16.7034   -9.2637    8.0607 N   0  0  0  0  0  0  0  0  0  0  0  0
   17.8532   -8.8315    8.6428 C   0  0  0  0  0  0  0  0  0  0  0  0
   18.0808   -9.1149   10.0150 C   0  0  0  0  0  0  0  0  0  0  0  0
   19.2655   -8.6727   10.6151 C   0  0  0  0  0  0  0  0  0  0  0  0
   20.2137   -7.9620    9.8845 C   0  0  0  0  0  0  0  0  0  0  0  0
   19.9899   -7.6830    8.5388 C   0  0  0  0  0  0  0  0  0  0  0  0
   18.8182   -8.1073    7.8955 C   0  0  0  0  0  0  0  0  0  0  0  0
   18.6564   -7.7695    6.4565 C   0  0  0  0  0  0  0  0  0  0  0  0
   19.0177   -6.6384    6.0335 O   0  0  0  0  0  0  0  0  0  0  0  0
   18.0998   -8.6966    5.5290 N   0  0  0  0  0  0  0  0  0  0  0  0
   17.8104   -9.5862    5.8358 H   0  0  0  0  0  0  0  0  0  0  0  0
   18.0045   -8.4477    4.5813 H   0  0  0  0  0  0  0  0  0  0  0  0
 21 22  1  0  0  0
 22 20  1  0  0  0
 20 19  1  0  0  0
 19 17  1  0  0  0
 17 11  1  0  0  0
 11 12  2  0  0  0
 12 13  1  0  0  0
 13 14  2  0  0  0
 14 15  1  0  0  0
 15 16  2  0  0  0
 15  7  1  0  0  0
 16 11  1  0  0  0
  7  8  2  0  0  0
  7  9  1  0  0  0
  9  1  1  0  0  0
  1  2  2  0  0  0
  2  3  1  0  0  0
  3  4  2  0  0  0
  4  5  1  0  0  0
  5  6  2  0  0  0
  5 23  1  0  0  0
  6  1  1  0  0  0
 23 24  1  0  0  0
 24 26  1  0  0  0
 26 27  2  0  0  0
 27 28  1  0  0  0
 28 29  2  0  0  0
 29 30  1  0  0  0
 30 31  2  0  0  0
 31 32  1  0  0  0
 31 26  1  0  0  0
 32 33  2  0  0  0
 33 34  1  0  0  0
 34 35  2  0  0  0
 35 36  1  0  0  0
 35 30  1  0  0  0
 36 37  2  0  0  0
 36 38  1  0  0  0
 17 18  1  0  0  0
  9 10  1  0  0  0
 24 25  1  0  0  0
 38 39  1  0  0  0
 38 40  1  0  0  0
M  END
>  <minimizedAffinity>
-8.98602

>  <minimizedRMSD>
1.41710

$$$$
CHEMBL3902351 PubChem-89743522


 31 34  0  0  0  0  0  0  0  0999 V2000
   17.9144  -12.9550   15.2887 C   0  0  0  0  0  0  0  0  0  0  0  0
   17.9309  -11.5476   14.9215 N   0  0  0  0  0  0  0  0  0  0  0  0
   17.2043  -10.5942   15.7279 C   0  0  0  0  0  0  0  0  0  0  0  0
   16.2658   -9.7233   15.1548 C   0  0  0  0  0  0  0  0  0  0  0  0
   15.5802   -8.8154   15.9610 C   0  0  0  0  0  0  0  0  0  0  0  0
   15.8271   -8.7725   17.3368 C   0  0  0  0  0  0  0  0  0  0  0  0
   16.7696   -9.6550   17.8758 C   0  0  0  0  0  0  0  0  0  0  0  0
   17.4273  -10.5328   17.0719 N   0  0  0  0  0  0  0  0  0  0  0  0
   15.1100   -7.8191   18.2009 C   0  0  0  0  0  0  0  0  0  0  0  0
   14.2972   -6.9973   17.6951 O   0  0  0  0  0  0  0  0  0  0  0  0
   15.3376   -7.8219   19.6144 N   0  0  0  0  0  0  0  0  0  0  0  0
   15.9927   -8.4564   19.9853 H   0  0  0  0  0  0  0  0  0  0  0  0
   14.6414   -6.9263   20.5259 C   0  0  0  0  0  0  0  0  0  0  0  0
   13.3691   -7.5812   21.0283 C   0  0  0  0  0  0  0  0  0  0  0  0
   12.6942   -6.6991   21.8704 O   0  0  0  0  0  0  0  0  0  0  0  0
   13.2615   -6.4738   22.6243 H   0  0  0  0  0  0  0  0  0  0  0  0
   18.7016  -11.1933   13.7277 C   0  0  0  0  0  0  0  0  0  0  0  0
   19.3083   -9.7999   13.8363 C   0  0  0  0  0  0  0  0  0  0  0  0
   19.0709   -9.1309   12.4950 C   0  0  0  0  0  0  0  0  0  0  0  0
   18.1532   -9.9910   11.7693 N   0  0  0  0  0  0  0  0  0  0  0  0
   17.8467  -11.2199   12.4739 C   0  0  0  0  0  0  0  0  0  0  0  0
   17.5881   -9.6855   10.4822 C   0  0  0  0  0  0  0  0  0  0  0  0
   16.3847  -10.2255   10.1204 N   0  0  0  0  0  0  0  0  0  0  0  0
   15.8102   -9.9589    8.9067 C   0  0  0  0  0  0  0  0  0  0  0  0
   16.4316   -9.1354    8.0135 N   0  0  0  0  0  0  0  0  0  0  0  0
   17.6237   -8.5925    8.3577 C   0  0  0  0  0  0  0  0  0  0  0  0
   18.3534   -7.7679    7.5955 N   0  0  0  0  0  0  0  0  0  0  0  0
   19.4450   -7.4914    8.3509 C   0  0  0  0  0  0  0  0  0  0  0  0
   19.4003   -8.1421    9.5865 C   0  0  0  0  0  0  0  0  0  0  0  0
   18.2144   -8.8421    9.5564 C   0  0  0  0  0  0  0  0  0  0  0  0
   18.1447   -7.4375    6.6919 H   0  0  0  0  0  0  0  0  0  0  0  0
  1  2  1  0  0  0
 17  2  1  0  0  0
 17 18  1  0  0  0
 18 19  1  0  0  0
 19 20  1  0  0  0
 20 21  1  0  0  0
 20 22  1  0  0  0
 22 23  2  0  0  0
 23 24  1  0  0  0
 24 25  2  0  0  0
 25 26  1  0  0  0
 26 27  1  0  0  0
 27 28  1  0  0  0
 28 29  2  0  0  0
 29 30  1  0  0  0
  2  3  1  0  0  0
  3  4  2  0  0  0
  4  5  1  0  0  0
  5  6  2  0  0  0
  6  7  1  0  0  0
  7  8  2  0  0  0
  6  9  1  0  0  0
  9 10  2  0  0  0
  9 11  1  0  0  0
 11 13  1  0  0  0
 13 14  1  0  0  0
 14 15  1  0  0  0
 21 17  1  0  0  0
 30 22  1  0  0  0
  8  3  1  0  0  0
 30 26  2  0  0  0
 27 31  1  0  0  0
 11 12  1  0  0  0
 15 16  1  0  0  0
M  END
>  <minimizedAffinity>
-5.17733

>  <minimizedRMSD>
1.41925

$$$$
CHEMBL1359939 5517232 CSC028019917 MCULE-6858834057 MolPort-004-255-869 OLTGIDHUAQIZQG-UHFFFAOYSA-N PubChem-5197187 Z31705702 ZINC000005517232 ZINC05517232


 28 30  0  0  0  0  0  0  0  0999 V2000
   16.7816  -10.3992   13.7384 N   0  0  0  0  0  0  0  0  0  0  0  0
   15.9726   -9.8478   12.6915 C   0  0  0  0  0  0  0  0  0  0  0  0
   15.4737   -8.6954   12.7880 O   0  0  0  0  0  0  0  0  0  0  0  0
   17.1314  -11.3080   13.5937 H   0  0  0  0  0  0  0  0  0  0  0  0
   16.5415   -8.6548   17.0565 C   0  0  0  0  0  0  0  0  0  0  0  0
   17.8975   -8.5248   17.3723 C   0  0  0  0  0  0  0  0  0  0  0  0
   18.8700   -9.0134   16.4960 C   0  0  0  0  0  0  0  0  0  0  0  0
   18.4878   -9.6308   15.3014 C   0  0  0  0  0  0  0  0  0  0  0  0
   17.1341   -9.7639   14.9744 C   0  0  0  0  0  0  0  0  0  0  0  0
   16.1630   -9.2702   15.8587 C   0  0  0  0  0  0  0  0  0  0  0  0
   16.0791   -7.2062   19.4633 N   0  0  0  0  0  0  0  0  0  0  0  0
   15.3196   -8.0318   18.1492 S   0  0  0  0  0  0  0  0  0  0  0  0
   14.5037   -9.1685   18.6977 O   0  0  0  0  0  0  0  0  0  0  0  0
   14.4218   -7.0804   17.4105 O   0  0  0  0  0  0  0  0  0  0  0  0
   15.3652   -6.8455   20.0963 H   0  0  0  0  0  0  0  0  0  0  0  0
   16.6358   -6.4317   19.1019 H   0  0  0  0  0  0  0  0  0  0  0  0
   15.7485  -10.6396   11.4482 C   0  0  0  0  0  0  0  0  0  0  0  0
   16.3764   -9.9810   10.3082 N   0  0  0  0  0  0  0  0  0  0  0  0
   15.6942   -9.9387    9.1306 C   0  0  0  0  0  0  0  0  0  0  0  0
   16.2285   -9.3252    8.0432 N   0  0  0  0  0  0  0  0  0  0  0  0
   17.4502   -8.7399    8.1042 C   0  0  0  0  0  0  0  0  0  0  0  0
   17.9841   -8.1120    6.9752 C   0  0  0  0  0  0  0  0  0  0  0  0
   19.2437   -7.5087    7.0405 C   0  0  0  0  0  0  0  0  0  0  0  0
   19.9725   -7.5317    8.2338 C   0  0  0  0  0  0  0  0  0  0  0  0
   19.4442   -8.1582    9.3667 C   0  0  0  0  0  0  0  0  0  0  0  0
   18.1813   -8.7654    9.3085 C   0  0  0  0  0  0  0  0  0  0  0  0
   17.6124   -9.4048   10.4191 C   0  0  0  0  0  0  0  0  0  0  0  0
   18.2397   -9.4489   11.5147 O   0  0  0  0  0  0  0  0  0  0  0  0
 11 12  1  0  0  0
 12 13  2  0  0  0
 12 14  2  0  0  0
 12  5  1  0  0  0
  5  6  2  0  0  0
  6  7  1  0  0  0
  7  8  2  0  0  0
  8  9  1  0  0  0
  9  1  1  0  0  0
  9 10  2  0  0  0
  1  2  1  0  0  0
  2  3  2  0  0  0
  2 17  1  0  0  0
 17 18  1  0  0  0
 18 19  1  0  0  0
 19 20  2  0  0  0
 20 21  1  0  0  0
 21 22  2  0  0  0
 22 23  1  0  0  0
 23 24  2  0  0  0
 24 25  1  0  0  0
 25 26  2  0  0  0
 26 27  1  0  0  0
 26 21  1  0  0  0
 27 28  2  0  0  0
 27 18  1  0  0  0
 10  5  1  0  0  0
 11 15  1  0  0  0
 11 16  1  0  0  0
  1  4  1  0  0  0
M  END
>  <minimizedAffinity>
-5.20054

>  <minimizedRMSD>
1.41978

$$$$
CHEMBL1172718 PubChem-24826800 PubChem-88996409


 37 41  0  0  0  0  0  0  0  0999 V2000
   15.7292   -8.2786   17.1322 C   0  0  0  0  0  0  0  0  0  0  0  0
   15.0305   -7.3862   16.5788 O   0  0  0  0  0  0  0  0  0  0  0  0
   15.8290   -8.3463   18.5631 N   0  0  0  0  0  0  0  0  0  0  0  0
   16.3922   -9.0649   18.9315 H   0  0  0  0  0  0  0  0  0  0  0  0
   18.5677  -12.1526   13.9216 C   0  0  0  0  0  0  0  0  0  0  0  0
   17.8253  -11.1367   14.7238 C   0  0  0  0  0  0  0  0  0  0  0  0
   17.8350  -11.2461   16.1172 C   0  0  0  0  0  0  0  0  0  0  0  0
   17.1518  -10.3145   16.9026 C   0  0  0  0  0  0  0  0  0  0  0  0
   16.4497   -9.2607   16.3030 C   0  0  0  0  0  0  0  0  0  0  0  0
   16.4409   -9.1519   14.9053 C   0  0  0  0  0  0  0  0  0  0  0  0
   17.1225  -10.0808   14.1125 C   0  0  0  0  0  0  0  0  0  0  0  0
   17.0850   -9.9281   12.6808 C   0  0  0  0  0  0  0  0  0  0  0  0
   17.0540   -9.8000   11.4826 C   0  0  0  0  0  0  0  0  0  0  0  0
   17.0178   -9.6454   10.0540 C   0  0  0  0  0  0  0  0  0  0  0  0
   16.1257  -10.2488    9.1781 C   0  0  0  0  0  0  0  0  0  0  0  0
   16.4207   -9.8489    7.9109 N   0  0  0  0  0  0  0  0  0  0  0  0
   17.4751   -9.0220    8.0612 C   0  0  0  0  0  0  0  0  0  0  0  0
   18.1527   -8.3482    7.0524 C   0  0  0  0  0  0  0  0  0  0  0  0
   19.2285   -7.5350    7.4428 C   0  0  0  0  0  0  0  0  0  0  0  0
   19.5765   -7.4309    8.8040 C   0  0  0  0  0  0  0  0  0  0  0  0
   18.8639   -8.1230    9.7382 N   0  0  0  0  0  0  0  0  0  0  0  0
   17.8495   -8.8856    9.3358 N   0  0  0  0  0  0  0  0  0  0  0  0
   15.1954   -7.4781   19.5123 C   0  0  0  0  0  0  0  0  0  0  0  0
   13.8757   -7.0342   19.3484 C   0  0  0  0  0  0  0  0  0  0  0  0
   13.2920   -6.1893   20.2950 C   0  0  0  0  0  0  0  0  0  0  0  0
   14.0198   -5.7770   21.4162 C   0  0  0  0  0  0  0  0  0  0  0  0
   15.3441   -6.2190   21.5863 C   0  0  0  0  0  0  0  0  0  0  0  0
   16.3100   -5.7272   22.9691 Cl  0  0  0  0  0  0  0  0  0  0  0  0
   15.9211   -7.0647   20.6337 C   0  0  0  0  0  0  0  0  0  0  0  0
   13.3646   -4.8824   22.4191 C   0  0  0  0  0  0  0  0  0  0  0  0
   12.4436   -5.6459   23.2563 N   0  0  0  0  0  0  0  0  0  0  0  0
   13.2002   -6.4802   24.2045 C   0  0  0  0  0  0  0  0  0  0  0  0
   13.9255   -5.6665   25.2964 C   0  0  0  0  0  0  0  0  0  0  0  0
   13.4441   -4.2877   25.3877 N   0  0  0  0  0  0  0  0  0  0  0  0
   13.8110   -3.8031   26.7054 C   0  0  0  0  0  0  0  0  0  0  0  0
   11.9895   -4.2982   25.3312 C   0  0  0  0  0  0  0  0  0  0  0  0
   11.5295   -4.7068   23.9269 C   0  0  0  0  0  0  0  0  0  0  0  0
  5  6  1  0  0  0
  6  7  2  0  0  0
  7  8  1  0  0  0
  8  9  2  0  0  0
  9  1  1  0  0  0
  9 10  1  0  0  0
  1  2  2  0  0  0
  1  3  1  0  0  0
  3 23  1  0  0  0
 23 24  2  0  0  0
 24 25  1  0  0  0
 25 26  2  0  0  0
 26 30  1  0  0  0
 26 27  1  0  0  0
 30 31  1  0  0  0
 31 32  1  0  0  0
 32 33  1  0  0  0
 33 34  1  0  0  0
 34 35  1  0  0  0
 34 36  1  0  0  0
 36 37  1  0  0  0
 37 31  1  0  0  0
 27 28  1  0  0  0
 27 29  2  0  0  0
 29 23  1  0  0  0
 10 11  2  0  0  0
 11 12  1  0  0  0
 11  6  1  0  0  0
 12 13  3  0  0  0
 13 14  1  0  0  0
 14 15  2  0  0  0
 15 16  1  0  0  0
 16 17  2  0  0  0
 17 18  1  0  0  0
 18 19  2  0  0  0
 19 20  1  0  0  0
 20 21  2  0  0  0
 21 22  1  0  0  0
 22 14  1  0  0  0
 22 17  1  0  0  0
  3  4  1  0  0  0
M  END
>  <minimizedAffinity>
-11.37114

>  <minimizedRMSD>
1.42003

$$$$
CHEMBL3685202 PubChem-66763324


 39 42  0  0  0  0  0  0  0  0999 V2000
   16.9677  -10.1304   16.5977 C   0  0  0  0  0  0  0  0  0  0  0  0
   17.4295  -11.4092   16.9290 C   0  0  0  0  0  0  0  0  0  0  0  0
   18.1638  -12.1586   16.0047 C   0  0  0  0  0  0  0  0  0  0  0  0
   18.4428  -11.6308   14.7414 C   0  0  0  0  0  0  0  0  0  0  0  0
   17.9920  -10.3513   14.4036 C   0  0  0  0  0  0  0  0  0  0  0  0
   17.2513   -9.6066   15.3271 C   0  0  0  0  0  0  0  0  0  0  0  0
   15.4318   -8.2134   17.3433 C   0  0  0  0  0  0  0  0  0  0  0  0
   15.3461   -7.7127   16.1887 O   0  0  0  0  0  0  0  0  0  0  0  0
   16.2141   -9.3957   17.5717 N   0  0  0  0  0  0  0  0  0  0  0  0
   16.2352   -9.7381   18.4945 H   0  0  0  0  0  0  0  0  0  0  0  0
   14.5902   -7.0325   20.8368 C   0  0  0  0  0  0  0  0  0  0  0  0
   13.3671   -6.3812   20.6117 C   0  0  0  0  0  0  0  0  0  0  0  0
   12.8240   -6.3285   19.3257 C   0  0  0  0  0  0  0  0  0  0  0  0
   13.4990   -6.9255   18.2579 C   0  0  0  0  0  0  0  0  0  0  0  0
   14.7207   -7.5807   18.4684 C   0  0  0  0  0  0  0  0  0  0  0  0
   15.2585   -7.6287   19.7626 C   0  0  0  0  0  0  0  0  0  0  0  0
   15.1616   -7.1005   22.1107 O   0  0  0  0  0  0  0  0  0  0  0  0
   15.3390   -5.9561   22.9345 C   0  0  0  0  0  0  0  0  0  0  0  0
   14.5377   -6.1229   24.2092 C   0  0  0  0  0  0  0  0  0  0  0  0
   12.9747   -5.1315   25.4080 C   0  0  0  0  0  0  0  0  0  0  0  0
   13.3316   -5.4331   24.0945 O   0  0  0  0  0  0  0  0  0  0  0  0
   18.2687   -9.7982   13.0511 C   0  0  0  0  0  0  0  0  0  0  0  0
   17.2169  -10.2023   12.1299 N   0  0  0  0  0  0  0  0  0  0  0  0
   16.5098  -10.7812   12.4961 H   0  0  0  0  0  0  0  0  0  0  0  0
   17.1010   -9.8459   10.7421 C   0  0  0  0  0  0  0  0  0  0  0  0
   15.9771  -10.2408   10.0891 N   0  0  0  0  0  0  0  0  0  0  0  0
   15.7718   -9.9576    8.7797 C   0  0  0  0  0  0  0  0  0  0  0  0
   16.7007   -9.2625    8.0801 N   0  0  0  0  0  0  0  0  0  0  0  0
   17.8535   -8.8324    8.6582 C   0  0  0  0  0  0  0  0  0  0  0  0
   18.0860   -9.1176   10.0294 C   0  0  0  0  0  0  0  0  0  0  0  0
   19.2734   -8.6767   10.6256 C   0  0  0  0  0  0  0  0  0  0  0  0
   20.2182   -7.9638    9.8932 C   0  0  0  0  0  0  0  0  0  0  0  0
   19.9888   -7.6824    8.5488 C   0  0  0  0  0  0  0  0  0  0  0  0
   18.8155   -8.1071    7.9088 C   0  0  0  0  0  0  0  0  0  0  0  0
   18.6485   -7.7680    6.4706 C   0  0  0  0  0  0  0  0  0  0  0  0
   19.0049   -6.6353    6.0484 O   0  0  0  0  0  0  0  0  0  0  0  0
   18.0937   -8.6960    5.5429 N   0  0  0  0  0  0  0  0  0  0  0  0
   17.8080   -9.5870    5.8491 H   0  0  0  0  0  0  0  0  0  0  0  0
   17.9960   -8.4463    4.5956 H   0  0  0  0  0  0  0  0  0  0  0  0
 20 21  1  0  0  0
 21 19  1  0  0  0
 19 18  1  0  0  0
 18 17  1  0  0  0
 17 11  1  0  0  0
 11 12  2  0  0  0
 12 13  1  0  0  0
 13 14  2  0  0  0
 14 15  1  0  0  0
 15 16  2  0  0  0
 15  7  1  0  0  0
 16 11  1  0  0  0
  7  8  2  0  0  0
  7  9  1  0  0  0
  9  1  1  0  0  0
  1  2  2  0  0  0
  2  3  1  0  0  0
  3  4  2  0  0  0
  4  5  1  0  0  0
  5  6  2  0  0  0
  5 22  1  0  0  0
  6  1  1  0  0  0
 22 23  1  0  0  0
 23 25  1  0  0  0
 25 26  2  0  0  0
 26 27  1  0  0  0
 27 28  2  0  0  0
 28 29  1  0  0  0
 29 30  2  0  0  0
 30 31  1  0  0  0
 30 25  1  0  0  0
 31 32  2  0  0  0
 32 33  1  0  0  0
 33 34  2  0  0  0
 34 35  1  0  0  0
 34 29  1  0  0  0
 35 36  2  0  0  0
 35 37  1  0  0  0
  9 10  1  0  0  0
 23 24  1  0  0  0
 37 38  1  0  0  0
 37 39  1  0  0  0
M  END
>  <minimizedAffinity>
-9.09593

>  <minimizedRMSD>
1.42067

$$$$
CHEMBL418222 PubChem-3064096 PubChem-3064097


 33 36  0  0  0  0  0  0  0  0999 V2000
   18.3012   -9.6277   15.9273 C   0  0  0  0  0  0  0  0  0  0  0  0
   17.8251  -10.8987   16.2872 C   0  0  0  0  0  0  0  0  0  0  0  0
   17.5959  -11.8602   15.2997 C   0  0  0  0  0  0  0  0  0  0  0  0
   17.8364  -11.5575   13.9572 C   0  0  0  0  0  0  0  0  0  0  0  0
   18.3063  -10.2890   13.5873 C   0  0  0  0  0  0  0  0  0  0  0  0
   18.5377   -9.3319   14.5806 C   0  0  0  0  0  0  0  0  0  0  0  0
   17.5790  -11.2140   17.6184 O   0  0  0  0  0  0  0  0  0  0  0  0
   17.7301  -10.5750   18.2868 H   0  0  0  0  0  0  0  0  0  0  0  0
   18.5747   -9.9377   12.2214 N   0  0  0  0  0  0  0  0  0  0  0  0
   19.5157   -9.7421   12.0085 H   0  0  0  0  0  0  0  0  0  0  0  0
   17.6518   -9.8332   11.1217 C   0  0  0  0  0  0  0  0  0  0  0  0
   18.0297   -9.1364    9.9605 C   0  0  0  0  0  0  0  0  0  0  0  0
   17.1135   -9.0314    8.8875 C   0  0  0  0  0  0  0  0  0  0  0  0
   17.4744   -8.3453    7.7244 C   0  0  0  0  0  0  0  0  0  0  0  0
   18.7396   -7.7611    7.6198 C   0  0  0  0  0  0  0  0  0  0  0  0
   19.6484   -7.8604    8.6772 C   0  0  0  0  0  0  0  0  0  0  0  0
   19.2961   -8.5453    9.8436 C   0  0  0  0  0  0  0  0  0  0  0  0
   19.1875   -6.9040    6.1611 Cl  0  0  0  0  0  0  0  0  0  0  0  0
   15.8822   -9.5973    8.9853 N   0  0  0  0  0  0  0  0  0  0  0  0
   15.4969  -10.2709   10.1006 C   0  0  0  0  0  0  0  0  0  0  0  0
   16.3705  -10.3979   11.1818 C   0  0  0  0  0  0  0  0  0  0  0  0
   18.5404   -8.5731   16.9589 C   0  0  0  0  0  0  0  0  0  0  0  0
   16.0817   -7.9499   17.0444 C   0  0  0  0  0  0  0  0  0  0  0  0
   16.0420   -7.8254   15.7895 O   0  0  0  0  0  0  0  0  0  0  0  0
   14.8935   -7.7543   17.8221 N   0  0  0  0  0  0  0  0  0  0  0  0
   14.9576   -7.7827   19.2818 C   0  0  0  0  0  0  0  0  0  0  0  0
   13.6789   -8.4058   19.8365 C   0  0  0  0  0  0  0  0  0  0  0  0
   12.5121   -7.7068   19.3019 N   0  0  0  0  0  0  0  0  0  0  0  0
   12.4595   -7.9371   17.8598 C   0  0  0  0  0  0  0  0  0  0  0  0
   13.6644   -7.2864   17.1843 C   0  0  0  0  0  0  0  0  0  0  0  0
   11.3430   -8.3518   19.8702 C   0  0  0  0  0  0  0  0  0  0  0  0
   17.3129   -8.2910   17.6906 N   0  0  0  0  0  0  0  0  0  0  0  0
   17.3307   -8.3370   18.6739 H   0  0  0  0  0  0  0  0  0  0  0  0
 23 24  2  0  0  0
 23 25  1  0  0  0
 25 26  1  0  0  0
 26 27  1  0  0  0
 27 28  1  0  0  0
 28 29  1  0  0  0
 29 30  1  0  0  0
 28 31  1  0  0  0
 23 32  1  0  0  0
 32 22  1  0  0  0
 22  1  1  0  0  0
  1  2  2  0  0  0
  2  3  1  0  0  0
  3  4  2  0  0  0
  4  5  1  0  0  0
  5  9  1  0  0  0
  9 11  1  0  0  0
 11 12  1  0  0  0
 12 13  1  0  0  0
 13 14  2  0  0  0
 14 15  1  0  0  0
 15 16  2  0  0  0
 16 17  1  0  0  0
 15 18  1  0  0  0
 13 19  1  0  0  0
 19 20  2  0  0  0
 20 21  1  0  0  0
  5  6  2  0  0  0
  2  7  1  0  0  0
 30 25  1  0  0  0
  6  1  1  0  0  0
 21 11  2  0  0  0
 17 12  2  0  0  0
 32 33  1  0  0  0
  9 10  1  0  0  0
  7  8  1  0  0  0
M  END
>  <minimizedAffinity>
-6.41130

>  <minimizedRMSD>
1.42128

$$$$
CHEMBL2407810 MCULE-3833472822 PubChem-71765013 VOLVYDZZOSTLOJ-UHFFFAOYSA-N


 28 30  0  0  0  0  0  0  0  0999 V2000
   17.3380  -10.8172   12.9127 N   0  0  0  0  0  0  0  0  0  0  0  0
   18.0314   -9.9326   12.0280 C   0  0  0  0  0  0  0  0  0  0  0  0
   19.1401   -9.4423   12.3737 O   0  0  0  0  0  0  0  0  0  0  0  0
   16.5002  -11.2310   12.6025 H   0  0  0  0  0  0  0  0  0  0  0  0
   17.4543   -9.5957   10.7082 C   0  0  0  0  0  0  0  0  0  0  0  0
   18.0958   -8.9549    9.7140 N   0  0  0  0  0  0  0  0  0  0  0  0
   19.3641   -8.4733    9.6443 C   0  0  0  0  0  0  0  0  0  0  0  0
   19.7677   -7.8388    8.4614 C   0  0  0  0  0  0  0  0  0  0  0  0
   18.8592   -7.7203    7.3933 C   0  0  0  0  0  0  0  0  0  0  0  0
   17.5571   -8.2319    7.5068 C   0  0  0  0  0  0  0  0  0  0  0  0
   17.2116   -8.8522    8.7052 C   0  0  0  0  0  0  0  0  0  0  0  0
   16.0109   -9.3962    8.9866 N   0  0  0  0  0  0  0  0  0  0  0  0
   16.1680   -9.8628   10.2479 C   0  0  0  0  0  0  0  0  0  0  0  0
   15.0802  -10.5551   10.9938 C   0  0  0  0  0  0  0  0  0  0  0  0
   19.2812   -7.0487    6.1367 C   0  0  0  0  0  0  0  0  0  0  0  0
   17.8158  -11.1334   14.2519 C   0  0  0  0  0  0  0  0  0  0  0  0
   15.7541   -8.7680   17.1793 C   0  0  0  0  0  0  0  0  0  0  0  0
   16.5764   -9.8255   17.5834 C   0  0  0  0  0  0  0  0  0  0  0  0
   17.2433  -10.5994   16.6292 C   0  0  0  0  0  0  0  0  0  0  0  0
   17.0898  -10.3181   15.2677 C   0  0  0  0  0  0  0  0  0  0  0  0
   16.2732   -9.2564   14.8626 C   0  0  0  0  0  0  0  0  0  0  0  0
   15.6063   -8.4829   15.8172 C   0  0  0  0  0  0  0  0  0  0  0  0
   14.1969   -6.6683   17.6939 O   0  0  0  0  0  0  0  0  0  0  0  0
   14.9270   -7.7897   18.3770 S   0  0  0  0  0  0  0  0  0  0  0  0
   13.9467   -8.6394   19.1356 O   0  0  0  0  0  0  0  0  0  0  0  0
   16.0755   -7.1357   19.4902 N   0  0  0  0  0  0  0  0  0  0  0  0
   15.5904   -6.5677   20.1847 H   0  0  0  0  0  0  0  0  0  0  0  0
   16.7463   -6.5563   18.9854 H   0  0  0  0  0  0  0  0  0  0  0  0
 23 24  2  0  0  0
 24 25  2  0  0  0
 24 17  1  0  0  0
 17 18  2  0  0  0
 18 19  1  0  0  0
 19 20  2  0  0  0
 20 16  1  0  0  0
 16  1  1  0  0  0
  1  2  1  0  0  0
  2  3  2  0  0  0
  2  5  1  0  0  0
  5  6  1  0  0  0
  6  7  1  0  0  0
  7  8  2  0  0  0
  8  9  1  0  0  0
  9 10  2  0  0  0
 10 11  1  0  0  0
 11 12  2  0  0  0
 12 13  1  0  0  0
 13 14  1  0  0  0
  9 15  1  0  0  0
 20 21  1  0  0  0
 21 22  2  0  0  0
 24 26  1  0  0  0
 22 17  1  0  0  0
 13  5  2  0  0  0
 11  6  1  0  0  0
  1  4  1  0  0  0
 26 27  1  0  0  0
 26 28  1  0  0  0
M  END
>  <minimizedAffinity>
-5.35125

>  <minimizedRMSD>
1.42288

$$$$
CHEMBL3962025 PubChem-66762254


 42 45  0  0  0  0  0  0  0  0999 V2000
   16.9982  -10.4855   12.3081 N   0  0  0  0  0  0  0  0  0  0  0  0
   16.4160  -11.1682   12.7133 H   0  0  0  0  0  0  0  0  0  0  0  0
   16.6918  -10.0933   10.9593 C   0  0  0  0  0  0  0  0  0  0  0  0
   15.4692  -10.4306   10.4724 N   0  0  0  0  0  0  0  0  0  0  0  0
   15.0889  -10.1147    9.2105 C   0  0  0  0  0  0  0  0  0  0  0  0
   15.9337   -9.4410    8.3932 N   0  0  0  0  0  0  0  0  0  0  0  0
   17.1713   -9.0592    8.8068 C   0  0  0  0  0  0  0  0  0  0  0  0
   18.0378   -8.3425    7.9422 C   0  0  0  0  0  0  0  0  0  0  0  0
   19.2994   -7.9584    8.4182 C   0  0  0  0  0  0  0  0  0  0  0  0
   19.7093   -8.2640    9.7146 C   0  0  0  0  0  0  0  0  0  0  0  0
   18.8513   -8.9688   10.5608 C   0  0  0  0  0  0  0  0  0  0  0  0
   17.5872   -9.3803   10.1247 C   0  0  0  0  0  0  0  0  0  0  0  0
   17.6778   -7.9653    6.5504 C   0  0  0  0  0  0  0  0  0  0  0  0
   16.7470   -7.1408    6.3455 O   0  0  0  0  0  0  0  0  0  0  0  0
   18.3602   -8.5134    5.4270 N   0  0  0  0  0  0  0  0  0  0  0  0
   19.0908   -9.1593    5.5619 H   0  0  0  0  0  0  0  0  0  0  0  0
   18.1014   -8.2463    4.5154 H   0  0  0  0  0  0  0  0  0  0  0  0
   21.0532   -7.8048   10.1876 C   0  0  0  0  0  0  0  0  0  0  0  0
   22.0515   -8.2795    9.3356 O   0  0  0  0  0  0  0  0  0  0  0  0
   22.0490   -9.2494    9.3435 H   0  0  0  0  0  0  0  0  0  0  0  0
   21.3270   -8.2729   11.6087 C   0  0  0  0  0  0  0  0  0  0  0  0
   21.6458   -7.1825   12.4182 O   0  0  0  0  0  0  0  0  0  0  0  0
   22.4389   -6.7440   12.0723 H   0  0  0  0  0  0  0  0  0  0  0  0
   18.0817   -9.9756   13.1350 C   0  0  0  0  0  0  0  0  0  0  0  0
   16.9649  -10.1302   16.7546 C   0  0  0  0  0  0  0  0  0  0  0  0
   17.5606  -11.3282   17.1650 C   0  0  0  0  0  0  0  0  0  0  0  0
   18.3227  -12.0837   16.2684 C   0  0  0  0  0  0  0  0  0  0  0  0
   18.4958  -11.6426   14.9536 C   0  0  0  0  0  0  0  0  0  0  0  0
   17.9101  -10.4434   14.5361 C   0  0  0  0  0  0  0  0  0  0  0  0
   17.1431   -9.6932   15.4330 C   0  0  0  0  0  0  0  0  0  0  0  0
   15.4258   -8.1957   17.4452 C   0  0  0  0  0  0  0  0  0  0  0  0
   15.3614   -7.7136   16.2815 O   0  0  0  0  0  0  0  0  0  0  0  0
   16.1908   -9.3834   17.7032 N   0  0  0  0  0  0  0  0  0  0  0  0
   16.1828   -9.7204   18.6282 H   0  0  0  0  0  0  0  0  0  0  0  0
   13.3185   -6.2852   20.6531 C   0  0  0  0  0  0  0  0  0  0  0  0
   14.5459   -6.9234   20.8928 C   0  0  0  0  0  0  0  0  0  0  0  0
   15.2325   -7.5456   19.8464 C   0  0  0  0  0  0  0  0  0  0  0  0
   14.7033   -7.5384   18.5483 C   0  0  0  0  0  0  0  0  0  0  0  0
   13.4779   -6.8989   18.3120 C   0  0  0  0  0  0  0  0  0  0  0  0
   12.7908   -6.2769   19.3583 C   0  0  0  0  0  0  0  0  0  0  0  0
   13.1224   -5.5083   22.9937 C   0  0  0  0  0  0  0  0  0  0  0  0
   12.6069   -5.6542   21.6772 O   0  0  0  0  0  0  0  0  0  0  0  0
 41 42  1  0  0  0
 42 35  1  0  0  0
 35 36  2  0  0  0
 36 37  1  0  0  0
 37 38  2  0  0  0
 38 39  1  0  0  0
 38 31  1  0  0  0
 39 40  2  0  0  0
 40 35  1  0  0  0
 31 32  2  0  0  0
 31 33  1  0  0  0
 33 25  1  0  0  0
 25 26  2  0  0  0
 26 27  1  0  0  0
 27 28  2  0  0  0
 28 29  1  0  0  0
 29 30  2  0  0  0
 29 24  1  0  0  0
 30 25  1  0  0  0
 24  1  1  0  0  0
  1  3  1  0  0  0
  3  4  2  0  0  0
  4  5  1  0  0  0
  5  6  2  0  0  0
  6  7  1  0  0  0
  7  8  2  0  0  0
  8  9  1  0  0  0
  8 13  1  0  0  0
  9 10  2  0  0  0
 10 11  1  0  0  0
 11 12  2  0  0  0
 12  3  1  0  0  0
 12  7  1  0  0  0
 18 10  1  0  0  0
 18 21  1  0  0  0
 18 19  1  0  0  0
 21 22  1  0  0  0
 13 14  2  0  0  0
 13 15  1  0  0  0
 33 34  1  0  0  0
  1  2  1  0  0  0
 22 23  1  0  0  0
 19 20  1  0  0  0
 15 16  1  0  0  0
 15 17  1  0  0  0
M  END
>  <minimizedAffinity>
-0.63083

>  <minimizedRMSD>
1.42645

$$$$
CHEMBL3315203 PubChem-118708038


 33 36  0  0  0  0  0  0  0  0999 V2000
   17.5930  -10.0978   12.0347 C   0  0  0  0  0  0  0  0  0  0  0  0
   17.9015   -9.0579   12.9483 C   0  0  0  0  0  0  0  0  0  0  0  0
   18.2385   -9.3367   14.2838 C   0  0  0  0  0  0  0  0  0  0  0  0
   18.2518  -10.6734   14.6773 C   0  0  0  0  0  0  0  0  0  0  0  0
   17.9446  -11.6839   13.8134 C   0  0  0  0  0  0  0  0  0  0  0  0
   17.6059  -11.4373   12.4863 C   0  0  0  0  0  0  0  0  0  0  0  0
   18.0246  -12.8815   14.4973 C   0  0  0  0  0  0  0  0  0  0  0  0
   18.3916  -12.5186   15.7973 C   0  0  0  0  0  0  0  0  0  0  0  0
   18.5324  -11.1761   15.8876 N   0  0  0  0  0  0  0  0  0  0  0  0
   17.2074   -9.7984   10.6285 C   0  0  0  0  0  0  0  0  0  0  0  0
   15.9879  -10.3055   10.1518 C   0  0  0  0  0  0  0  0  0  0  0  0
   15.5702  -10.0560    8.8832 N   0  0  0  0  0  0  0  0  0  0  0  0
   16.3095   -9.3132    8.0215 C   0  0  0  0  0  0  0  0  0  0  0  0
   17.5344   -8.7880    8.4250 C   0  0  0  0  0  0  0  0  0  0  0  0
   18.0016   -9.0296    9.7399 C   0  0  0  0  0  0  0  0  0  0  0  0
   19.2571   -8.5189   10.1090 C   0  0  0  0  0  0  0  0  0  0  0  0
   20.0190   -7.7723    9.2063 C   0  0  0  0  0  0  0  0  0  0  0  0
   19.5391   -7.5302    7.9176 C   0  0  0  0  0  0  0  0  0  0  0  0
   18.2991   -8.0392    7.5263 C   0  0  0  0  0  0  0  0  0  0  0  0
   18.8526  -10.4338   17.0985 C   0  0  0  0  0  0  0  0  0  0  0  0
   17.8594   -9.3432   17.3044 C   0  0  0  0  0  0  0  0  0  0  0  0
   18.2081   -8.1448   17.1326 O   0  0  0  0  0  0  0  0  0  0  0  0
   16.5094   -9.6728   17.6514 N   0  0  0  0  0  0  0  0  0  0  0  0
   16.2965  -10.6218   17.8045 H   0  0  0  0  0  0  0  0  0  0  0  0
   15.4223   -8.7020   17.7954 C   0  0  0  0  0  0  0  0  0  0  0  0
   15.0888   -8.0241   16.4982 C   0  0  0  0  0  0  0  0  0  0  0  0
   15.6935   -8.3202   15.4332 O   0  0  0  0  0  0  0  0  0  0  0  0
   14.0842   -7.0655   16.4670 O   0  0  0  0  0  0  0  0  0  0  0  0
   13.6287   -6.8384   17.2538 H   0  0  0  0  0  0  0  0  0  0  0  0
   15.7262   -7.6780   18.8857 C   0  0  0  0  0  0  0  0  0  0  0  0
   14.8722   -7.9185   20.1202 C   0  0  0  0  0  0  0  0  0  0  0  0
   15.3758   -7.0496   21.2528 C   0  0  0  0  0  0  0  0  0  0  0  0
   13.4243   -7.5705   19.8318 C   0  0  0  0  0  0  0  0  0  0  0  0
  1  2  2  0  0  0
  2  3  1  0  0  0
  3  4  2  0  0  0
  4  5  1  0  0  0
  5  6  2  0  0  0
  5  7  1  0  0  0
  7  8  2  0  0  0
  8  9  1  0  0  0
  9 20  1  0  0  0
 20 21  1  0  0  0
 21 22  2  0  0  0
 21 23  1  0  0  0
 23 25  1  0  0  0
 25 26  1  0  0  0
 26 27  2  0  0  0
 26 28  1  0  0  0
 25 30  1  0  0  0
 30 31  1  0  0  0
 31 32  1  0  0  0
 31 33  1  0  0  0
  1 10  1  0  0  0
 10 11  2  0  0  0
 11 12  1  0  0  0
 12 13  2  0  0  0
 13 14  1  0  0  0
 14 15  2  0  0  0
 15 16  1  0  0  0
 16 17  2  0  0  0
 17 18  1  0  0  0
 18 19  2  0  0  0
  6  1  1  0  0  0
 15 10  1  0  0  0
  9  4  1  0  0  0
 19 14  1  0  0  0
 23 24  1  0  0  0
 28 29  1  0  0  0
M  END
>  <minimizedAffinity>
-3.13450

>  <minimizedRMSD>
1.43387

$$$$
CHEMBL5093371


 32 36  0  0  0  0  0  0  0  0999 V2000
   16.5557   -8.8227   13.7801 C   0  0  0  0  0  0  0  0  0  0  0  0
   16.6320   -9.2265   12.3722 N   0  0  0  0  0  0  0  0  0  0  0  0
   15.7865  -10.0276   11.7985 C   0  0  0  0  0  0  0  0  0  0  0  0
   14.6965  -10.5648   12.5450 N   0  0  0  0  0  0  0  0  0  0  0  0
   14.4996  -10.2202   13.9166 C   0  0  0  0  0  0  0  0  0  0  0  0
   15.3461   -9.3661   14.5294 C   0  0  0  0  0  0  0  0  0  0  0  0
   15.0828   -8.9468   15.9342 C   0  0  0  0  0  0  0  0  0  0  0  0
   15.8272   -8.0431   16.4927 N   0  0  0  0  0  0  0  0  0  0  0  0
   15.5944   -7.6020   17.7757 O   0  0  0  0  0  0  0  0  0  0  0  0
   13.8972   -9.5066   16.6750 C   0  0  0  0  0  0  0  0  0  0  0  0
   13.5066  -10.8678   16.1158 C   0  0  0  0  0  0  0  0  0  0  0  0
   13.2788  -10.7545   14.6131 C   0  0  0  0  0  0  0  0  0  0  0  0
   14.0688  -11.1839   12.1069 H   0  0  0  0  0  0  0  0  0  0  0  0
   16.1486   -6.9479   18.1539 H   0  0  0  0  0  0  0  0  0  0  0  0
   18.7012  -10.1854   14.1588 C   0  0  0  0  0  0  0  0  0  0  0  0
   17.8654   -9.0882   14.4711 C   0  0  0  0  0  0  0  0  0  0  0  0
   18.2706   -8.1780   15.4549 C   0  0  0  0  0  0  0  0  0  0  0  0
   19.4785   -8.3540   16.1331 C   0  0  0  0  0  0  0  0  0  0  0  0
   20.2969   -9.4426   15.8288 C   0  0  0  0  0  0  0  0  0  0  0  0
   19.9090  -10.3532   14.8439 C   0  0  0  0  0  0  0  0  0  0  0  0
   18.2926  -11.3656   12.9234 Cl  0  0  0  0  0  0  0  0  0  0  0  0
   15.9357  -10.3890   10.4217 N   0  0  0  0  0  0  0  0  0  0  0  0
   15.4198  -11.1614   10.0952 H   0  0  0  0  0  0  0  0  0  0  0  0
   16.7783   -9.7120    9.4841 C   0  0  0  0  0  0  0  0  0  0  0  0
   17.6813   -8.8062    9.8255 O   0  0  0  0  0  0  0  0  0  0  0  0
   18.2375   -8.4314    8.7065 C   0  0  0  0  0  0  0  0  0  0  0  0
   17.6629   -9.1193    7.6794 C   0  0  0  0  0  0  0  0  0  0  0  0
   18.0533   -8.9308    6.3563 C   0  0  0  0  0  0  0  0  0  0  0  0
   19.0750   -7.9932    6.1117 C   0  0  0  0  0  0  0  0  0  0  0  0
   19.6690   -7.2812    7.1792 C   0  0  0  0  0  0  0  0  0  0  0  0
   19.2494   -7.4972    8.5054 C   0  0  0  0  0  0  0  0  0  0  0  0
   16.7190   -9.9527    8.1484 N   0  0  0  0  0  0  0  0  0  0  0  0
 15 16  2  0  0  0
 16  1  1  0  0  0
  1  2  1  0  0  0
  2  3  2  0  0  0
  3 22  1  0  0  0
 22 24  1  0  0  0
 24 25  1  0  0  0
 25 26  1  0  0  0
 26 27  2  0  0  0
 27 28  1  0  0  0
 28 29  2  0  0  0
 29 30  1  0  0  0
 30 31  2  0  0  0
 27 32  1  0  0  0
  3  4  1  0  0  0
  4  5  1  0  0  0
  5  6  2  0  0  0
  6  7  1  0  0  0
  7  8  2  0  0  0
  8  9  1  0  0  0
  7 10  1  0  0  0
 10 11  1  0  0  0
 11 12  1  0  0  0
 16 17  1  0  0  0
 17 18  2  0  0  0
 18 19  1  0  0  0
 19 20  2  0  0  0
 15 21  1  0  0  0
 20 15  1  0  0  0
  6  1  1  0  0  0
 32 24  2  0  0  0
 12  5  1  0  0  0
 31 26  1  0  0  0
 22 23  1  0  0  0
  4 13  1  0  0  0
  9 14  1  0  0  0
M  END
>  <minimizedAffinity>
4.79957

>  <minimizedRMSD>
1.43766

$$$$
CHEMBL5076126 PubChem-73336273


 39 43  0  0  0  0  0  0  0  0999 V2000
   13.4862  -10.7206   15.3401 C   0  0  0  0  0  0  0  0  0  0  0  0
   14.6387  -10.1726   14.5649 C   0  0  0  0  0  0  0  0  0  0  0  0
   15.5854   -9.3859   15.1234 C   0  0  0  0  0  0  0  0  0  0  0  0
   16.6722   -8.7740   14.2472 C   0  0  0  0  0  0  0  0  0  0  0  0
   16.6458   -9.2009   12.8452 N   0  0  0  0  0  0  0  0  0  0  0  0
   15.7303   -9.9674   12.3385 C   0  0  0  0  0  0  0  0  0  0  0  0
   14.6866  -10.4696   13.1688 N   0  0  0  0  0  0  0  0  0  0  0  0
   13.9838  -11.0332   12.7716 H   0  0  0  0  0  0  0  0  0  0  0  0
   18.0559   -8.9378   14.8130 C   0  0  0  0  0  0  0  0  0  0  0  0
   18.4807   -8.0075   15.7688 C   0  0  0  0  0  0  0  0  0  0  0  0
   19.7548   -8.1003   16.3333 C   0  0  0  0  0  0  0  0  0  0  0  0
   20.6177   -9.1257   15.9432 C   0  0  0  0  0  0  0  0  0  0  0  0
   20.2076  -10.0572   14.9871 C   0  0  0  0  0  0  0  0  0  0  0  0
   18.9338   -9.9721   14.4159 C   0  0  0  0  0  0  0  0  0  0  0  0
   18.4899  -11.1748   13.2138 Cl  0  0  0  0  0  0  0  0  0  0  0  0
   15.5606   -9.0095   16.5604 C   0  0  0  0  0  0  0  0  0  0  0  0
   16.2768   -9.6514   17.3754 O   0  0  0  0  0  0  0  0  0  0  0  0
   14.6945   -7.9624   17.0245 N   0  0  0  0  0  0  0  0  0  0  0  0
   14.1514   -7.5061   16.3419 H   0  0  0  0  0  0  0  0  0  0  0  0
   14.5363   -7.5106   18.3762 C   0  0  0  0  0  0  0  0  0  0  0  0
   15.5073   -7.7529   19.3601 C   0  0  0  0  0  0  0  0  0  0  0  0
   15.3172   -7.2982   20.6681 C   0  0  0  0  0  0  0  0  0  0  0  0
   14.1521   -6.6022   21.0036 C   0  0  0  0  0  0  0  0  0  0  0  0
   13.1850   -6.3502   20.0258 C   0  0  0  0  0  0  0  0  0  0  0  0
   13.3768   -6.8059   18.7181 C   0  0  0  0  0  0  0  0  0  0  0  0
   13.9591   -6.0974   22.3897 C   0  0  0  0  0  0  0  0  0  0  0  0
   14.8806   -5.0845   22.6550 O   0  0  0  0  0  0  0  0  0  0  0  0
   15.7807   -5.4345   22.5650 H   0  0  0  0  0  0  0  0  0  0  0  0
   15.7651  -10.3393   10.9569 N   0  0  0  0  0  0  0  0  0  0  0  0
   15.1858  -11.0820   10.6704 H   0  0  0  0  0  0  0  0  0  0  0  0
   16.5791   -9.7123    9.9608 C   0  0  0  0  0  0  0  0  0  0  0  0
   16.4087   -9.9429    8.6329 N   0  0  0  0  0  0  0  0  0  0  0  0
   17.3672   -9.1684    8.0971 C   0  0  0  0  0  0  0  0  0  0  0  0
   17.6724   -8.9990    6.7491 C   0  0  0  0  0  0  0  0  0  0  0  0
   18.7310   -8.1264    6.4314 C   0  0  0  0  0  0  0  0  0  0  0  0
   19.4439   -7.4580    7.4532 C   0  0  0  0  0  0  0  0  0  0  0  0
   19.1081   -7.6531    8.8062 C   0  0  0  0  0  0  0  0  0  0  0  0
   18.0564   -8.5227    9.0799 C   0  0  0  0  0  0  0  0  0  0  0  0
   17.5596   -8.8667   10.2362 O   0  0  0  0  0  0  0  0  0  0  0  0
  1  2  1  0  0  0
  2  3  2  0  0  0
  3  4  1  0  0  0
  4  5  1  0  0  0
  5  6  2  0  0  0
  6  7  1  0  0  0
  6 29  1  0  0  0
 29 31  1  0  0  0
 31 32  2  0  0  0
 32 33  1  0  0  0
 33 34  2  0  0  0
 34 35  1  0  0  0
 35 36  2  0  0  0
 36 37  1  0  0  0
 37 38  2  0  0  0
 38 39  1  0  0  0
  4  9  1  0  0  0
  9 10  2  0  0  0
 10 11  1  0  0  0
 11 12  2  0  0  0
 12 13  1  0  0  0
 13 14  2  0  0  0
 14 15  1  0  0  0
  3 16  1  0  0  0
 16 17  2  0  0  0
 16 18  1  0  0  0
 18 20  1  0  0  0
 20 21  2  0  0  0
 21 22  1  0  0  0
 22 23  2  0  0  0
 23 24  1  0  0  0
 24 25  2  0  0  0
 23 26  1  0  0  0
 26 27  1  0  0  0
  7  2  1  0  0  0
 39 31  1  0  0  0
 38 33  1  0  0  0
 14  9  1  0  0  0
 25 20  1  0  0  0
  7  8  1  0  0  0
 29 30  1  0  0  0
 18 19  1  0  0  0
 27 28  1  0  0  0
M  END
>  <minimizedAffinity>
-2.32851

>  <minimizedRMSD>
1.44044

$$$$
CHEMBL1403942 8607852 ChemDiv-G357-3514 MCULE-6435700464 MolPort-007-848-021 PubChem-16027675 ZINC000008607852


 35 38  0  0  0  0  0  0  0  0999 V2000
   17.9293  -10.7054   14.6919 C   0  0  0  0  0  0  0  0  0  0  0  0
   17.5405   -9.3626   14.6024 C   0  0  0  0  0  0  0  0  0  0  0  0
   17.0121   -8.7055   15.7168 C   0  0  0  0  0  0  0  0  0  0  0  0
   16.8660   -9.3828   16.9364 C   0  0  0  0  0  0  0  0  0  0  0  0
   17.2540  -10.7235   17.0247 C   0  0  0  0  0  0  0  0  0  0  0  0
   17.7825  -11.3820   15.9107 C   0  0  0  0  0  0  0  0  0  0  0  0
   16.3257   -8.7434   18.1003 N   0  0  0  0  0  0  0  0  0  0  0  0
   15.2910   -7.7521   18.1324 C   0  0  0  0  0  0  0  0  0  0  0  0
   14.7530   -7.3331   17.0736 O   0  0  0  0  0  0  0  0  0  0  0  0
   16.7050   -9.0132   18.9678 H   0  0  0  0  0  0  0  0  0  0  0  0
   14.8226   -7.2298   19.4471 C   0  0  0  0  0  0  0  0  0  0  0  0
   13.5303   -6.6461   19.3139 O   0  0  0  0  0  0  0  0  0  0  0  0
   12.3907   -7.3749   18.9557 C   0  0  0  0  0  0  0  0  0  0  0  0
   12.0466   -8.5731   19.6036 C   0  0  0  0  0  0  0  0  0  0  0  0
   10.9007   -9.2768   19.2226 C   0  0  0  0  0  0  0  0  0  0  0  0
   10.0907   -8.7875   18.1941 C   0  0  0  0  0  0  0  0  0  0  0  0
   10.4265   -7.5946   17.5476 C   0  0  0  0  0  0  0  0  0  0  0  0
   11.5730   -6.8909   17.9287 C   0  0  0  0  0  0  0  0  0  0  0  0
   18.4848  -11.3932   13.5155 C   0  0  0  0  0  0  0  0  0  0  0  0
   18.8699  -12.5918   13.6071 O   0  0  0  0  0  0  0  0  0  0  0  0
   18.5835  -10.7133   12.2994 O   0  0  0  0  0  0  0  0  0  0  0  0
   17.6354   -9.7311   11.9086 C   0  0  0  0  0  0  0  0  0  0  0  0
   17.9777   -8.9193    7.7853 N   0  0  0  0  0  0  0  0  0  0  0  0
   18.2053   -8.5631    6.5233 N   0  0  0  0  0  0  0  0  0  0  0  0
   19.2440   -7.6990    6.4187 C   0  0  0  0  0  0  0  0  0  0  0  0
   19.9386   -7.3492    7.9275 S   0  0  0  0  0  0  0  0  0  0  0  0
   18.8217   -8.3564    8.6754 C   0  0  0  0  0  0  0  0  0  0  0  0
   18.7314   -8.6117   10.0035 N   0  0  0  0  0  0  0  0  0  0  0  0
   17.7671   -9.4644   10.4521 C   0  0  0  0  0  0  0  0  0  0  0  0
   16.8694  -10.0586    9.5496 C   0  0  0  0  0  0  0  0  0  0  0  0
   16.9960   -9.7694    8.1865 C   0  0  0  0  0  0  0  0  0  0  0  0
   16.2097  -10.2897    7.3512 O   0  0  0  0  0  0  0  0  0  0  0  0
   19.7370   -7.1633    5.1176 C   0  0  0  0  0  0  0  0  0  0  0  0
   19.8074   -8.2631    4.0704 C   0  0  0  0  0  0  0  0  0  0  0  0
   18.7661   -8.0382    2.9900 C   0  0  0  0  0  0  0  0  0  0  0  0
 23 24  1  0  0  0
 24 25  2  0  0  0
 25 26  1  0  0  0
 26 27  1  0  0  0
 27 28  2  0  0  0
 28 29  1  0  0  0
 29 22  1  0  0  0
 22 21  1  0  0  0
 21 19  1  0  0  0
 19 20  2  0  0  0
 19  1  1  0  0  0
  1  2  2  0  0  0
  2  3  1  0  0  0
  3  4  2  0  0  0
  4  5  1  0  0  0
  5  6  2  0  0  0
  4  7  1  0  0  0
  7  8  1  0  0  0
  8 11  1  0  0  0
 11 12  1  0  0  0
 12 13  1  0  0  0
 13 14  2  0  0  0
 14 15  1  0  0  0
 15 16  2  0  0  0
 16 17  1  0  0  0
 17 18  2  0  0  0
  8  9  2  0  0  0
 29 30  2  0  0  0
 30 31  1  0  0  0
 31 32  2  0  0  0
 25 33  1  0  0  0
 33 34  1  0  0  0
 34 35  1  0  0  0
 27 23  1  0  0  0
  6  1  1  0  0  0
 18 13  1  0  0  0
 31 23  1  0  0  0
  7 10  1  0  0  0
M  END
>  <minimizedAffinity>
-8.55056

>  <minimizedRMSD>
1.44254

$$$$
CHEMBL4108070 PubChem-56948861


 32 36  0  0  0  0  0  0  0  0999 V2000
   17.9359  -12.9571   15.2733 C   0  0  0  0  0  0  0  0  0  0  0  0
   17.9446  -11.5459   14.9213 N   0  0  0  0  0  0  0  0  0  0  0  0
   17.2116  -10.6054   15.7370 C   0  0  0  0  0  0  0  0  0  0  0  0
   16.2770   -9.7260   15.1707 C   0  0  0  0  0  0  0  0  0  0  0  0
   15.5851   -8.8309   15.9860 C   0  0  0  0  0  0  0  0  0  0  0  0
   15.8218   -8.8092   17.3643 C   0  0  0  0  0  0  0  0  0  0  0  0
   16.7609   -9.6998   17.8961 C   0  0  0  0  0  0  0  0  0  0  0  0
   17.4247  -10.5648   17.0835 N   0  0  0  0  0  0  0  0  0  0  0  0
   15.0985   -7.8690   18.2379 C   0  0  0  0  0  0  0  0  0  0  0  0
   14.3619   -6.9823   17.7273 O   0  0  0  0  0  0  0  0  0  0  0  0
   15.2387   -7.9711   19.6621 N   0  0  0  0  0  0  0  0  0  0  0  0
   15.8266   -8.6850   19.9996 H   0  0  0  0  0  0  0  0  0  0  0  0
   14.6080   -7.1375   20.6420 C   0  0  0  0  0  0  0  0  0  0  0  0
   15.3094   -6.4497   21.5632 N   0  0  0  0  0  0  0  0  0  0  0  0
   14.5011   -5.7277   22.3867 C   0  0  0  0  0  0  0  0  0  0  0  0
   13.1336   -5.8320   22.1298 C   0  0  0  0  0  0  0  0  0  0  0  0
   12.9594   -6.8735   20.8172 S   0  0  0  0  0  0  0  0  0  0  0  0
   18.7144  -11.1742   13.7323 C   0  0  0  0  0  0  0  0  0  0  0  0
   19.2943   -9.7698   13.8474 C   0  0  0  0  0  0  0  0  0  0  0  0
   19.0503   -9.1016   12.5069 C   0  0  0  0  0  0  0  0  0  0  0  0
   18.1527   -9.9769   11.7744 N   0  0  0  0  0  0  0  0  0  0  0  0
   17.8665  -11.2135   12.4740 C   0  0  0  0  0  0  0  0  0  0  0  0
   17.5878   -9.6786   10.4855 C   0  0  0  0  0  0  0  0  0  0  0  0
   16.3854  -10.2221   10.1257 N   0  0  0  0  0  0  0  0  0  0  0  0
   15.8114   -9.9625    8.9104 C   0  0  0  0  0  0  0  0  0  0  0  0
   16.4320   -9.1425    8.0135 N   0  0  0  0  0  0  0  0  0  0  0  0
   17.6232   -8.5962    8.3556 C   0  0  0  0  0  0  0  0  0  0  0  0
   18.3521   -7.7742    7.5898 N   0  0  0  0  0  0  0  0  0  0  0  0
   19.4428   -7.4924    8.3445 C   0  0  0  0  0  0  0  0  0  0  0  0
   19.3983   -8.1369    9.5832 C   0  0  0  0  0  0  0  0  0  0  0  0
   18.2135   -8.8389    9.5559 C   0  0  0  0  0  0  0  0  0  0  0  0
   18.1435   -7.4485    6.6844 H   0  0  0  0  0  0  0  0  0  0  0  0
  1  2  1  0  0  0
 18  2  1  0  0  0
 18 19  1  0  0  0
 19 20  1  0  0  0
 20 21  1  0  0  0
 21 22  1  0  0  0
 21 23  1  0  0  0
 23 24  2  0  0  0
 24 25  1  0  0  0
 25 26  2  0  0  0
 26 27  1  0  0  0
 27 28  1  0  0  0
 28 29  1  0  0  0
 29 30  2  0  0  0
 30 31  1  0  0  0
  2  3  1  0  0  0
  3  4  2  0  0  0
  4  5  1  0  0  0
  5  6  2  0  0  0
  6  7  1  0  0  0
  7  8  2  0  0  0
  6  9  1  0  0  0
  9 10  2  0  0  0
  9 11  1  0  0  0
 11 13  1  0  0  0
 13 14  2  0  0  0
 14 15  1  0  0  0
 15 16  2  0  0  0
 16 17  1  0  0  0
 22 18  1  0  0  0
 31 23  1  0  0  0
  8  3  1  0  0  0
 17 13  1  0  0  0
 31 27  2  0  0  0
 28 32  1  0  0  0
 11 12  1  0  0  0
M  END
>  <minimizedAffinity>
-5.85818

>  <minimizedRMSD>
1.44395

$$$$
CHEMBL4905782 CSC026291997 MCULE-8017930840 MolPort-027-922-155 Z1518022590 ZINC000095440179


 27 31  0  0  0  0  0  0  0  0999 V2000
   16.8195   -9.8392   14.0899 C   0  0  0  0  0  0  0  0  0  0  0  0
   16.1247   -9.0234   14.9953 C   0  0  0  0  0  0  0  0  0  0  0  0
   16.2958   -9.1872   16.3765 C   0  0  0  0  0  0  0  0  0  0  0  0
   17.1701  -10.1754   16.8485 C   0  0  0  0  0  0  0  0  0  0  0  0
   17.8642  -10.9901   15.9499 C   0  0  0  0  0  0  0  0  0  0  0  0
   17.6884  -10.8217   14.5738 C   0  0  0  0  0  0  0  0  0  0  0  0
   15.5639   -8.3290   17.3212 C   0  0  0  0  0  0  0  0  0  0  0  0
   16.0330   -7.9805   18.5348 N   0  0  0  0  0  0  0  0  0  0  0  0
   15.1101   -7.2176   19.0932 N   0  0  0  0  0  0  0  0  0  0  0  0
   14.1069   -7.1144   18.2019 C   0  0  0  0  0  0  0  0  0  0  0  0
   14.3447   -7.8091   17.0716 N   0  0  0  0  0  0  0  0  0  0  0  0
   16.8960   -8.2433   18.9292 H   0  0  0  0  0  0  0  0  0  0  0  0
   12.8399   -6.3687   18.4650 C   0  0  0  0  0  0  0  0  0  0  0  0
   11.6764   -7.0848   17.8047 C   0  0  0  0  0  0  0  0  0  0  0  0
   11.8995   -7.2247   19.2934 C   0  0  0  0  0  0  0  0  0  0  0  0
   16.6560   -9.6855   12.6785 N   0  0  0  0  0  0  0  0  0  0  0  0
   15.7557   -9.4991   12.3264 H   0  0  0  0  0  0  0  0  0  0  0  0
   17.7620   -9.7925   11.7394 C   0  0  0  0  0  0  0  0  0  0  0  0
   17.2604   -9.5905   10.3505 C   0  0  0  0  0  0  0  0  0  0  0  0
   17.8514   -8.8381    9.4137 N   0  0  0  0  0  0  0  0  0  0  0  0
   17.1039   -8.9825    8.3135 C   0  0  0  0  0  0  0  0  0  0  0  0
   17.4504   -8.3221    7.1397 C   0  0  0  0  0  0  0  0  0  0  0  0
   18.5663   -7.5355    7.1594 N   0  0  0  0  0  0  0  0  0  0  0  0
   19.3292   -7.3925    8.2869 C   0  0  0  0  0  0  0  0  0  0  0  0
   18.9653   -8.0663    9.4623 C   0  0  0  0  0  0  0  0  0  0  0  0
   16.0512   -9.8052    8.4885 N   0  0  0  0  0  0  0  0  0  0  0  0
   16.1502  -10.2003    9.7844 C   0  0  0  0  0  0  0  0  0  0  0  0
 18 19  1  0  0  0
 19 20  1  0  0  0
 20 21  1  0  0  0
 21 22  1  0  0  0
 22 23  2  0  0  0
 23 24  1  0  0  0
 24 25  2  0  0  0
 21 26  2  0  0  0
 26 27  1  0  0  0
 18 16  1  0  0  0
 16  1  1  0  0  0
  1  2  2  0  0  0
  2  3  1  0  0  0
  3  7  1  0  0  0
  7  8  1  0  0  0
  8  9  1  0  0  0
  9 10  2  0  0  0
 10 13  1  0  0  0
 13 14  1  0  0  0
 14 15  1  0  0  0
 10 11  1  0  0  0
  3  4  2  0  0  0
  4  5  1  0  0  0
  5  6  2  0  0  0
 27 19  2  0  0  0
  6  1  1  0  0  0
 25 20  1  0  0  0
 11  7  2  0  0  0
 15 13  1  0  0  0
 16 17  1  0  0  0
  8 12  1  0  0  0
M  END
>  <minimizedAffinity>
-9.45314

>  <minimizedRMSD>
1.44512

$$$$
CHEMBL3914972 PubChem-89743533


 37 41  0  0  0  0  0  0  0  0999 V2000
   17.2583  -10.7004   15.6930 C   0  0  0  0  0  0  0  0  0  0  0  0
   16.3525   -9.7699   15.1634 C   0  0  0  0  0  0  0  0  0  0  0  0
   15.6833   -8.8922   16.0158 C   0  0  0  0  0  0  0  0  0  0  0  0
   15.9131   -8.9397   17.3944 C   0  0  0  0  0  0  0  0  0  0  0  0
   16.8200   -9.8823   17.8893 C   0  0  0  0  0  0  0  0  0  0  0  0
   17.4631  -10.7285   17.0408 N   0  0  0  0  0  0  0  0  0  0  0  0
   15.2185   -8.0148   18.3062 C   0  0  0  0  0  0  0  0  0  0  0  0
   14.6805   -6.9693   17.8498 O   0  0  0  0  0  0  0  0  0  0  0  0
   15.1688   -8.3007   19.7115 N   0  0  0  0  0  0  0  0  0  0  0  0
   15.6348   -9.1101   20.0228 H   0  0  0  0  0  0  0  0  0  0  0  0
   14.4849   -7.4925   20.7215 C   0  0  0  0  0  0  0  0  0  0  0  0
   13.1815   -6.9520   20.2169 C   0  0  0  0  0  0  0  0  0  0  0  0
   12.8543   -5.5925   20.3339 C   0  0  0  0  0  0  0  0  0  0  0  0
   11.6288   -5.1192   19.8560 C   0  0  0  0  0  0  0  0  0  0  0  0
   10.7239   -6.0020   19.2592 C   0  0  0  0  0  0  0  0  0  0  0  0
   11.0453   -7.3573   19.1405 C   0  0  0  0  0  0  0  0  0  0  0  0
   12.2713   -7.8307   19.6188 C   0  0  0  0  0  0  0  0  0  0  0  0
   15.3843   -6.4075   21.3027 C   0  0  0  0  0  0  0  0  0  0  0  0
   16.7228   -6.7710   21.1532 O   0  0  0  0  0  0  0  0  0  0  0  0
   16.8859   -7.6041   21.6225 H   0  0  0  0  0  0  0  0  0  0  0  0
   17.9757  -13.0374   15.1550 C   0  0  0  0  0  0  0  0  0  0  0  0
   17.9742  -11.6183   14.8378 N   0  0  0  0  0  0  0  0  0  0  0  0
   18.7136  -11.2165   13.6397 C   0  0  0  0  0  0  0  0  0  0  0  0
   19.3063   -9.8197   13.7739 C   0  0  0  0  0  0  0  0  0  0  0  0
   19.0675   -9.1347   12.4403 C   0  0  0  0  0  0  0  0  0  0  0  0
   18.1406   -9.9820   11.7108 N   0  0  0  0  0  0  0  0  0  0  0  0
   17.8314  -11.2156   12.4058 C   0  0  0  0  0  0  0  0  0  0  0  0
   17.5859   -9.6722   10.4201 C   0  0  0  0  0  0  0  0  0  0  0  0
   16.3875  -10.2145   10.0452 N   0  0  0  0  0  0  0  0  0  0  0  0
   15.8239   -9.9462    8.8269 C   0  0  0  0  0  0  0  0  0  0  0  0
   16.4514   -9.1184    7.9420 N   0  0  0  0  0  0  0  0  0  0  0  0
   17.6387   -8.5732    8.2990 C   0  0  0  0  0  0  0  0  0  0  0  0
   18.3734   -7.7440    7.5464 N   0  0  0  0  0  0  0  0  0  0  0  0
   19.4571   -7.4659    8.3131 C   0  0  0  0  0  0  0  0  0  0  0  0
   19.4022   -8.1203    9.5463 C   0  0  0  0  0  0  0  0  0  0  0  0
   18.2186   -8.8241    9.5028 C   0  0  0  0  0  0  0  0  0  0  0  0
   18.1724   -7.4117    6.6417 H   0  0  0  0  0  0  0  0  0  0  0  0
 21 22  1  0  0  0
 23 22  1  0  0  0
 23 24  1  0  0  0
 24 25  1  0  0  0
 25 26  1  0  0  0
 26 27  1  0  0  0
 26 28  1  0  0  0
 28 29  2  0  0  0
 29 30  1  0  0  0
 30 31  2  0  0  0
 31 32  1  0  0  0
 32 33  1  0  0  0
 33 34  1  0  0  0
 34 35  2  0  0  0
 35 36  1  0  0  0
 22  1  1  0  0  0
  1  2  2  0  0  0
  2  3  1  0  0  0
  3  4  2  0  0  0
  4  5  1  0  0  0
  5  6  2  0  0  0
  4  7  1  0  0  0
  7  8  2  0  0  0
  7  9  1  0  0  0
  9 11  1  0  0  0
 11 18  1  0  0  0
 18 19  1  0  0  0
 11 12  1  0  0  0
 12 13  2  0  0  0
 13 14  1  0  0  0
 14 15  2  0  0  0
 15 16  1  0  0  0
 16 17  2  0  0  0
 27 23  1  0  0  0
 36 28  1  0  0  0
  6  1  1  0  0  0
 17 12  1  0  0  0
 36 32  2  0  0  0
 33 37  1  0  0  0
  9 10  1  0  0  0
 19 20  1  0  0  0
M  END
>  <minimizedAffinity>
-6.37658

>  <minimizedRMSD>
1.44605

$$$$
CHEMBL273065 PubChem-24799616


 35 38  0  0  0  0  0  0  0  0999 V2000
   18.4314  -11.2371   13.5368 C   0  0  0  0  0  0  0  0  0  0  0  0
   18.4095  -12.5564   14.0161 C   0  0  0  0  0  0  0  0  0  0  0  0
   18.1749  -12.8098   15.3698 C   0  0  0  0  0  0  0  0  0  0  0  0
   17.9664  -11.7477   16.2527 C   0  0  0  0  0  0  0  0  0  0  0  0
   18.0032  -10.4244   15.7887 C   0  0  0  0  0  0  0  0  0  0  0  0
   18.2206  -10.1794   14.4264 C   0  0  0  0  0  0  0  0  0  0  0  0
   17.7383   -9.2682   16.7181 C   0  0  0  0  0  0  0  0  0  0  0  0
   18.5833   -9.2367   17.9760 C   0  0  0  0  0  0  0  0  0  0  0  0
   18.7817   -8.1600   16.9158 C   0  0  0  0  0  0  0  0  0  0  0  0
   20.0746   -8.3823   16.1867 C   0  0  0  0  0  0  0  0  0  0  0  0
   20.1228   -9.1940   15.2242 O   0  0  0  0  0  0  0  0  0  0  0  0
   21.2325   -7.6262   16.5396 N   0  0  0  0  0  0  0  0  0  0  0  0
   22.4012   -7.7970   15.8789 O   0  0  0  0  0  0  0  0  0  0  0  0
   21.1803   -6.9718   17.2734 H   0  0  0  0  0  0  0  0  0  0  0  0
   22.2880   -8.4711   15.1907 H   0  0  0  0  0  0  0  0  0  0  0  0
   16.3187   -8.8671   16.9494 C   0  0  0  0  0  0  0  0  0  0  0  0
   15.4766   -8.9888   16.0191 O   0  0  0  0  0  0  0  0  0  0  0  0
   15.9189   -8.3823   18.2378 N   0  0  0  0  0  0  0  0  0  0  0  0
   16.6109   -8.3122   18.9345 H   0  0  0  0  0  0  0  0  0  0  0  0
   14.5590   -7.9849   18.5908 C   0  0  0  0  0  0  0  0  0  0  0  0
   14.5172   -7.3692   19.9772 C   0  0  0  0  0  0  0  0  0  0  0  0
   13.9926   -7.0218   17.5636 C   0  0  0  0  0  0  0  0  0  0  0  0
   18.6587  -10.9505   12.1886 O   0  0  0  0  0  0  0  0  0  0  0  0
   18.7142   -9.6224   11.6848 C   0  0  0  0  0  0  0  0  0  0  0  0
   14.1727  -10.3988    9.7951 C   0  0  0  0  0  0  0  0  0  0  0  0
   15.5449   -9.8476    9.6494 C   0  0  0  0  0  0  0  0  0  0  0  0
   16.4662   -9.9924   10.6885 C   0  0  0  0  0  0  0  0  0  0  0  0
   17.7570   -9.4772   10.5479 C   0  0  0  0  0  0  0  0  0  0  0  0
   18.1081   -8.8048    9.3635 C   0  0  0  0  0  0  0  0  0  0  0  0
   19.3864   -8.2580    9.1750 C   0  0  0  0  0  0  0  0  0  0  0  0
   19.7007   -7.5977    7.9838 C   0  0  0  0  0  0  0  0  0  0  0  0
   18.7423   -7.4790    6.9732 C   0  0  0  0  0  0  0  0  0  0  0  0
   17.4654   -8.0192    7.1492 C   0  0  0  0  0  0  0  0  0  0  0  0
   17.1422   -8.6807    8.3374 C   0  0  0  0  0  0  0  0  0  0  0  0
   15.8982   -9.2016    8.5064 N   0  0  0  0  0  0  0  0  0  0  0  0
 25 26  1  0  0  0
 26 27  2  0  0  0
 27 28  1  0  0  0
 28 24  1  0  0  0
 28 29  2  0  0  0
 24 23  1  0  0  0
 23  1  1  0  0  0
  1  2  2  0  0  0
  2  3  1  0  0  0
  3  4  2  0  0  0
  4  5  1  0  0  0
  5  6  2  0  0  0
  7  5  1  0  0  0
  7 16  1  0  0  0
  7  8  1  0  0  0
 16 17  2  0  0  0
 16 18  1  0  0  0
 18 20  1  0  0  0
 20 21  1  0  0  0
 20 22  1  0  0  0
  8  9  1  0  0  0
  9 10  1  0  0  0
  9  7  1  0  0  0
 10 11  2  0  0  0
 10 12  1  0  0  0
 12 13  1  0  0  0
  6  1  1  0  0  0
 29 30  1  0  0  0
 30 31  2  0  0  0
 31 32  1  0  0  0
 32 33  2  0  0  0
 33 34  1  0  0  0
 34 35  2  0  0  0
 34 29  1  0  0  0
 35 26  1  0  0  0
 18 19  1  0  0  0
 12 14  1  0  0  0
 13 15  1  0  0  0
M  END
>  <minimizedAffinity>
-4.58845

>  <minimizedRMSD>
1.44654

$$$$
CHEMBL3889701 PubChem-135503035


 34 37  0  0  0  0  0  0  0  0999 V2000
   16.5676  -10.6756   14.1333 N   0  0  0  0  0  0  0  0  0  0  0  0
   15.4851   -9.6922   13.9489 C   0  0  0  0  0  0  0  0  0  0  0  0
   15.7895   -8.3749   14.6556 C   0  0  0  0  0  0  0  0  0  0  0  0
   16.0303   -8.6450   16.0660 N   0  0  0  0  0  0  0  0  0  0  0  0
   16.9951   -9.6795   16.4240 C   0  0  0  0  0  0  0  0  0  0  0  0
   18.4157   -9.1528   16.3113 C   0  0  0  0  0  0  0  0  0  0  0  0
   16.7797  -10.9432   15.5714 C   0  0  0  0  0  0  0  0  0  0  0  0
   15.3146   -7.9284   17.0811 C   0  0  0  0  0  0  0  0  0  0  0  0
   14.4773   -7.0448   16.7511 O   0  0  0  0  0  0  0  0  0  0  0  0
   15.5577   -8.2226   18.4654 N   0  0  0  0  0  0  0  0  0  0  0  0
   16.2228   -8.9229   18.6563 H   0  0  0  0  0  0  0  0  0  0  0  0
   14.9342   -7.6045   19.5993 C   0  0  0  0  0  0  0  0  0  0  0  0
   15.2549   -8.0681   20.8786 C   0  0  0  0  0  0  0  0  0  0  0  0
   14.6680   -7.4910   22.0077 C   0  0  0  0  0  0  0  0  0  0  0  0
   13.7532   -6.4433   21.8687 C   0  0  0  0  0  0  0  0  0  0  0  0
   13.0401   -5.7482   23.3148 Cl  0  0  0  0  0  0  0  0  0  0  0  0
   13.4250   -5.9712   20.5866 C   0  0  0  0  0  0  0  0  0  0  0  0
   12.2828   -4.6582   20.3545 Cl  0  0  0  0  0  0  0  0  0  0  0  0
   14.0162   -6.5533   19.4615 C   0  0  0  0  0  0  0  0  0  0  0  0
   17.8153  -10.2580   13.4637 C   0  0  0  0  0  0  0  0  0  0  0  0
   17.5751   -9.9217   12.0187 C   0  0  0  0  0  0  0  0  0  0  0  0
   18.4900   -9.1765   11.3445 N   0  0  0  0  0  0  0  0  0  0  0  0
   18.2986   -8.8482   10.0416 C   0  0  0  0  0  0  0  0  0  0  0  0
   19.2509   -8.0814    9.3642 C   0  0  0  0  0  0  0  0  0  0  0  0
   19.0507   -7.7443    8.0219 C   0  0  0  0  0  0  0  0  0  0  0  0
   17.8990   -8.1724    7.3537 C   0  0  0  0  0  0  0  0  0  0  0  0
   16.9420   -8.9397    8.0251 C   0  0  0  0  0  0  0  0  0  0  0  0
   17.1362   -9.2812    9.3708 C   0  0  0  0  0  0  0  0  0  0  0  0
   16.2063  -10.0469   10.0862 C   0  0  0  0  0  0  0  0  0  0  0  0
   15.1499  -10.4598    9.5369 O   0  0  0  0  0  0  0  0  0  0  0  0
   16.4453  -10.3481   11.3894 N   0  0  0  0  0  0  0  0  0  0  0  0
   15.7886  -10.8853   11.8887 H   0  0  0  0  0  0  0  0  0  0  0  0
   20.0590  -10.8802   14.3817 C   0  0  0  0  0  0  0  0  0  0  0  0
   18.8775  -11.3541   13.5561 C   0  0  0  0  0  0  0  0  0  0  0  0
 33 34  1  0  0  0
 34 20  1  0  0  0
 20  1  1  0  0  0
  1  2  1  0  0  0
  2  3  1  0  0  0
  3  4  1  0  0  0
  4  5  1  0  0  0
  5  6  1  0  0  0
  5  7  1  0  0  0
  4  8  1  0  0  0
  8  9  2  0  0  0
  8 10  1  0  0  0
 10 12  1  0  0  0
 12 13  2  0  0  0
 13 14  1  0  0  0
 14 15  2  0  0  0
 15 16  1  0  0  0
 15 17  1  0  0  0
 17 18  1  0  0  0
 17 19  2  0  0  0
 20 21  1  0  0  0
 21 22  2  0  0  0
 22 23  1  0  0  0
 23 24  2  0  0  0
 24 25  1  0  0  0
 25 26  2  0  0  0
 26 27  1  0  0  0
 27 28  2  0  0  0
 28 29  1  0  0  0
 29 30  2  0  0  0
 29 31  1  0  0  0
  7  1  1  0  0  0
 19 12  1  0  0  0
 31 21  1  0  0  0
 28 23  1  0  0  0
 10 11  1  0  0  0
 31 32  1  0  0  0
M  END
>  <minimizedAffinity>
-9.67786

>  <minimizedRMSD>
1.44659

$$$$
CHEMBL3315203 PubChem-118708038


 33 36  0  0  0  0  0  0  0  0999 V2000
   16.8197   -9.4725   12.4183 C   0  0  0  0  0  0  0  0  0  0  0  0
   16.3646   -8.3040   13.0805 C   0  0  0  0  0  0  0  0  0  0  0  0
   16.4070   -8.1961   14.4810 C   0  0  0  0  0  0  0  0  0  0  0  0
   16.9077   -9.2835   15.1942 C   0  0  0  0  0  0  0  0  0  0  0  0
   17.3370  -10.4195   14.5720 C   0  0  0  0  0  0  0  0  0  0  0  0
   17.3053  -10.5547   13.1873 C   0  0  0  0  0  0  0  0  0  0  0  0
   17.7527  -11.3152   15.5382 C   0  0  0  0  0  0  0  0  0  0  0  0
   17.5440  -10.6463   16.7487 C   0  0  0  0  0  0  0  0  0  0  0  0
   17.0377   -9.4124   16.5217 N   0  0  0  0  0  0  0  0  0  0  0  0
   16.7462   -9.5961   10.9368 C   0  0  0  0  0  0  0  0  0  0  0  0
   15.6871  -10.3337   10.3835 C   0  0  0  0  0  0  0  0  0  0  0  0
   15.5536  -10.4723    9.0387 N   0  0  0  0  0  0  0  0  0  0  0  0
   16.4346   -9.9114    8.1723 C   0  0  0  0  0  0  0  0  0  0  0  0
   17.5145   -9.1753    8.6530 C   0  0  0  0  0  0  0  0  0  0  0  0
   17.6854   -9.0119   10.0493 C   0  0  0  0  0  0  0  0  0  0  0  0
   18.8036   -8.2955   10.5078 C   0  0  0  0  0  0  0  0  0  0  0  0
   19.7155   -7.7395    9.6068 C   0  0  0  0  0  0  0  0  0  0  0  0
   19.5263   -7.8969    8.2322 C   0  0  0  0  0  0  0  0  0  0  0  0
   18.4282   -8.6158    7.7556 C   0  0  0  0  0  0  0  0  0  0  0  0
   16.6444   -8.4527   17.5437 C   0  0  0  0  0  0  0  0  0  0  0  0
   15.1780   -8.2006   17.4700 C   0  0  0  0  0  0  0  0  0  0  0  0
   14.4911   -8.7723   16.5821 O   0  0  0  0  0  0  0  0  0  0  0  0
   14.5588   -7.3453   18.4323 N   0  0  0  0  0  0  0  0  0  0  0  0
   15.1237   -6.9132   19.1131 H   0  0  0  0  0  0  0  0  0  0  0  0
   13.1246   -7.0867   18.4467 C   0  0  0  0  0  0  0  0  0  0  0  0
   12.8413   -5.7740   19.1019 C   0  0  0  0  0  0  0  0  0  0  0  0
   13.1869   -5.5650   20.2953 O   0  0  0  0  0  0  0  0  0  0  0  0
   12.1967   -4.7747   18.3861 O   0  0  0  0  0  0  0  0  0  0  0  0
   11.9382   -4.9267   17.4983 H   0  0  0  0  0  0  0  0  0  0  0  0
   12.4017   -8.2065   19.1833 C   0  0  0  0  0  0  0  0  0  0  0  0
   11.3173   -8.8250   18.3146 C   0  0  0  0  0  0  0  0  0  0  0  0
   10.6593   -9.9608   19.0687 C   0  0  0  0  0  0  0  0  0  0  0  0
   10.2684   -7.7868   17.9638 C   0  0  0  0  0  0  0  0  0  0  0  0
  1  2  2  0  0  0
  2  3  1  0  0  0
  3  4  2  0  0  0
  4  5  1  0  0  0
  5  6  2  0  0  0
  5  7  1  0  0  0
  7  8  2  0  0  0
  8  9  1  0  0  0
  9 20  1  0  0  0
 20 21  1  0  0  0
 21 22  2  0  0  0
 21 23  1  0  0  0
 23 25  1  0  0  0
 25 26  1  0  0  0
 26 27  2  0  0  0
 26 28  1  0  0  0
 25 30  1  0  0  0
 30 31  1  0  0  0
 31 32  1  0  0  0
 31 33  1  0  0  0
  1 10  1  0  0  0
 10 11  2  0  0  0
 11 12  1  0  0  0
 12 13  2  0  0  0
 13 14  1  0  0  0
 14 15  2  0  0  0
 15 16  1  0  0  0
 16 17  2  0  0  0
 17 18  1  0  0  0
 18 19  2  0  0  0
  6  1  1  0  0  0
 15 10  1  0  0  0
  9  4  1  0  0  0
 19 14  1  0  0  0
 23 24  1  0  0  0
 28 29  1  0  0  0
M  END
>  <minimizedAffinity>
-8.34191

>  <minimizedRMSD>
1.44687

$$$$
CHEMBL104853 PubChem-44336518 PubChem-70104422


 38 41  0  0  0  0  0  0  0  0999 V2000
   17.2591  -10.5255   12.4246 C   0  0  0  0  0  0  0  0  0  0  0  0
   18.3051  -10.4461   13.2891 N   0  0  0  0  0  0  0  0  0  0  0  0
   17.7616   -9.8492   14.3667 C   0  0  0  0  0  0  0  0  0  0  0  0
   18.3944   -9.5183   15.5608 C   0  0  0  0  0  0  0  0  0  0  0  0
   17.6186   -8.8897   16.5524 C   0  0  0  0  0  0  0  0  0  0  0  0
   16.2464   -8.6067   16.3366 C   0  0  0  0  0  0  0  0  0  0  0  0
   15.6432   -8.9586   15.1098 C   0  0  0  0  0  0  0  0  0  0  0  0
   16.4420   -9.5804   14.1521 C   0  0  0  0  0  0  0  0  0  0  0  0
   16.1089  -10.0025   12.9263 N   0  0  0  0  0  0  0  0  0  0  0  0
   14.8057   -9.9050   12.2853 C   0  0  0  0  0  0  0  0  0  0  0  0
   15.4540   -7.9468   17.3885 C   0  0  0  0  0  0  0  0  0  0  0  0
   14.4584   -7.2391   17.0744 O   0  0  0  0  0  0  0  0  0  0  0  0
   15.8127   -8.1184   18.7671 N   0  0  0  0  0  0  0  0  0  0  0  0
   16.5718   -8.7130   18.9656 H   0  0  0  0  0  0  0  0  0  0  0  0
   15.1445   -7.4835   19.9010 C   0  0  0  0  0  0  0  0  0  0  0  0
   16.1328   -6.8427   20.8246 C   0  0  0  0  0  0  0  0  0  0  0  0
   15.7661   -6.4841   21.9734 O   0  0  0  0  0  0  0  0  0  0  0  0
   17.4494   -6.6406   20.4292 O   0  0  0  0  0  0  0  0  0  0  0  0
   17.7279   -6.9057   19.5747 H   0  0  0  0  0  0  0  0  0  0  0  0
   14.0616   -6.5142   19.4393 C   0  0  0  0  0  0  0  0  0  0  0  0
   12.6671   -6.4908   20.6067 P   0  0  0  0  0  0  0  0  0  0  0  0
   12.5339   -7.8441   21.2669 O   0  0  0  0  0  0  0  0  0  0  0  0
   11.2443   -6.1369   19.7646 O   0  0  0  0  0  0  0  0  0  0  0  0
   12.9230   -5.3095   21.7896 O   0  0  0  0  0  0  0  0  0  0  0  0
   11.0942   -6.8126   19.0851 H   0  0  0  0  0  0  0  0  0  0  0  0
   13.7387   -5.5093   22.2750 H   0  0  0  0  0  0  0  0  0  0  0  0
   16.1795  -11.9447   10.6938 C   0  0  0  0  0  0  0  0  0  0  0  0
   17.4035  -11.1164   11.0544 C   0  0  0  0  0  0  0  0  0  0  0  0
   17.7046  -10.0545   10.0374 C   0  0  0  0  0  0  0  0  0  0  0  0
   17.1142   -9.9978    8.8121 N   0  0  0  0  0  0  0  0  0  0  0  0
   17.6670   -8.9026    8.2735 C   0  0  0  0  0  0  0  0  0  0  0  0
   17.4255   -8.3600    7.0140 C   0  0  0  0  0  0  0  0  0  0  0  0
   18.1302   -7.1919    6.6676 C   0  0  0  0  0  0  0  0  0  0  0  0
   19.0420   -6.6079    7.5756 C   0  0  0  0  0  0  0  0  0  0  0  0
   19.2597   -7.1850    8.8408 C   0  0  0  0  0  0  0  0  0  0  0  0
   18.5452   -8.3401    9.1481 C   0  0  0  0  0  0  0  0  0  0  0  0
   18.5903   -9.0523   10.2822 N   0  0  0  0  0  0  0  0  0  0  0  0
   19.1294   -8.8906   11.0900 H   0  0  0  0  0  0  0  0  0  0  0  0
 28 27  1  0  0  0
 28 29  1  0  0  0
 28  1  1  0  0  0
 29 30  2  0  0  0
 30 31  1  0  0  0
 31 32  2  0  0  0
 32 33  1  0  0  0
 33 34  2  0  0  0
 34 35  1  0  0  0
 35 36  2  0  0  0
 36 37  1  0  0  0
 36 31  1  0  0  0
 37 29  1  0  0  0
  1  2  2  0  0  0
  2  3  1  0  0  0
  3  4  2  0  0  0
  4  5  1  0  0  0
  5  6  2  0  0  0
  6 11  1  0  0  0
  6  7  1  0  0  0
 11 12  2  0  0  0
 11 13  1  0  0  0
 15 13  1  0  0  0
 15 20  1  0  0  0
 15 16  1  0  0  0
 20 21  1  0  0  0
 21 22  2  0  0  0
 21 23  1  0  0  0
 21 24  1  0  0  0
 16 17  2  0  0  0
 16 18  1  0  0  0
  7  8  2  0  0  0
  8  9  1  0  0  0
  8  3  1  0  0  0
  9 10  1  0  0  0
  9  1  1  0  0  0
 37 38  1  0  0  0
 13 14  1  0  0  0
 23 25  1  0  0  0
 24 26  1  0  0  0
 18 19  1  0  0  0
M  END
>  <minimizedAffinity>
-4.75001

>  <minimizedRMSD>
1.44949

$$$$
CHEMBL3765399 PubChem-127041018


 29 32  0  0  0  0  0  0  0  0999 V2000
   17.5052   -8.4556   12.0996 N   0  0  0  0  0  0  0  0  0  0  0  0
   16.5591   -8.3857   13.1681 C   0  0  0  0  0  0  0  0  0  0  0  0
   15.5163   -7.6901   13.0274 O   0  0  0  0  0  0  0  0  0  0  0  0
   18.2993   -9.0277   12.2063 H   0  0  0  0  0  0  0  0  0  0  0  0
   16.7681   -9.1254   14.4390 C   0  0  0  0  0  0  0  0  0  0  0  0
   16.3427   -8.5328   15.5889 N   0  0  0  0  0  0  0  0  0  0  0  0
   16.4848   -9.1253   16.8014 C   0  0  0  0  0  0  0  0  0  0  0  0
   17.0675  -10.3453   16.8991 N   0  0  0  0  0  0  0  0  0  0  0  0
   17.5198  -10.9946   15.7963 C   0  0  0  0  0  0  0  0  0  0  0  0
   17.3839  -10.3982   14.5201 C   0  0  0  0  0  0  0  0  0  0  0  0
   17.8709  -11.0845   13.3966 C   0  0  0  0  0  0  0  0  0  0  0  0
   18.4737  -12.3368   13.5313 C   0  0  0  0  0  0  0  0  0  0  0  0
   18.5994  -12.9198   14.7932 C   0  0  0  0  0  0  0  0  0  0  0  0
   18.1246  -12.2530   15.9249 C   0  0  0  0  0  0  0  0  0  0  0  0
   18.2569  -12.8318   17.1443 F   0  0  0  0  0  0  0  0  0  0  0  0
   16.0213   -8.4648   17.9724 N   0  0  0  0  0  0  0  0  0  0  0  0
   15.5979   -7.5787   17.9029 H   0  0  0  0  0  0  0  0  0  0  0  0
   16.1237   -8.8936   18.8527 H   0  0  0  0  0  0  0  0  0  0  0  0
   17.3387   -7.7134   10.8608 C   0  0  0  0  0  0  0  0  0  0  0  0
   16.9340  -10.5263    7.6757 N   0  0  0  0  0  0  0  0  0  0  0  0
   16.2960  -10.7366    8.8577 C   0  0  0  0  0  0  0  0  0  0  0  0
   16.4209   -9.8146    9.8987 C   0  0  0  0  0  0  0  0  0  0  0  0
   17.1999   -8.6688    9.7206 C   0  0  0  0  0  0  0  0  0  0  0  0
   17.8603   -8.4653    8.4948 C   0  0  0  0  0  0  0  0  0  0  0  0
   17.7062   -9.4271    7.4687 C   0  0  0  0  0  0  0  0  0  0  0  0
   18.3509   -9.2494    6.2413 C   0  0  0  0  0  0  0  0  0  0  0  0
   19.1491   -8.1225    6.0258 C   0  0  0  0  0  0  0  0  0  0  0  0
   19.3058   -7.1691    7.0360 C   0  0  0  0  0  0  0  0  0  0  0  0
   18.6644   -7.3383    8.2662 C   0  0  0  0  0  0  0  0  0  0  0  0
 20 21  2  0  0  0
 21 22  1  0  0  0
 22 23  2  0  0  0
 23 19  1  0  0  0
 19  1  1  0  0  0
  1  2  1  0  0  0
  2  3  2  0  0  0
  2  5  1  0  0  0
  5  6  2  0  0  0
  6  7  1  0  0  0
  7  8  2  0  0  0
  8  9  1  0  0  0
  9 10  2  0  0  0
 10 11  1  0  0  0
 11 12  2  0  0  0
 12 13  1  0  0  0
 13 14  2  0  0  0
 14 15  1  0  0  0
  7 16  1  0  0  0
 23 24  1  0  0  0
 24 25  2  0  0  0
 25 26  1  0  0  0
 26 27  2  0  0  0
 27 28  1  0  0  0
 28 29  2  0  0  0
 25 20  1  0  0  0
 10  5  1  0  0  0
 29 24  1  0  0  0
 14  9  1  0  0  0
  1  4  1  0  0  0
 16 17  1  0  0  0
 16 18  1  0  0  0
M  END
>  <minimizedAffinity>
-2.79463

>  <minimizedRMSD>
1.45172

$$$$
CHEMBL5078056 PubChem-156898723


 38 42  0  0  0  0  0  0  0  0999 V2000
   13.5024  -10.7418   15.2404 C   0  0  0  0  0  0  0  0  0  0  0  0
   14.6620  -10.1940   14.4756 C   0  0  0  0  0  0  0  0  0  0  0  0
   15.6194   -9.4311   15.0489 C   0  0  0  0  0  0  0  0  0  0  0  0
   16.7148   -8.8180   14.1844 C   0  0  0  0  0  0  0  0  0  0  0  0
   16.6806   -9.2147   12.7737 N   0  0  0  0  0  0  0  0  0  0  0  0
   15.7545   -9.9584   12.2527 C   0  0  0  0  0  0  0  0  0  0  0  0
   14.7052  -10.4639   13.0738 N   0  0  0  0  0  0  0  0  0  0  0  0
   13.9951  -11.0106   12.6662 H   0  0  0  0  0  0  0  0  0  0  0  0
   18.0963   -9.0152   14.7449 C   0  0  0  0  0  0  0  0  0  0  0  0
   18.5615   -8.0741   15.6710 C   0  0  0  0  0  0  0  0  0  0  0  0
   19.8361   -8.1961   16.2287 C   0  0  0  0  0  0  0  0  0  0  0  0
   20.6591   -9.2620   15.8617 C   0  0  0  0  0  0  0  0  0  0  0  0
   20.2086  -10.2048   14.9352 C   0  0  0  0  0  0  0  0  0  0  0  0
   18.9340  -10.0907   14.3709 C   0  0  0  0  0  0  0  0  0  0  0  0
   18.4384  -11.3099   13.2064 Cl  0  0  0  0  0  0  0  0  0  0  0  0
   15.6001   -9.0822   16.4929 C   0  0  0  0  0  0  0  0  0  0  0  0
   16.2864   -9.7652   17.3007 O   0  0  0  0  0  0  0  0  0  0  0  0
   14.7738   -8.0147   16.9755 N   0  0  0  0  0  0  0  0  0  0  0  0
   14.2461   -7.5142   16.3119 H   0  0  0  0  0  0  0  0  0  0  0  0
   14.6553   -7.6191   18.3451 C   0  0  0  0  0  0  0  0  0  0  0  0
   15.6538   -7.7141   19.2518 N   0  0  0  0  0  0  0  0  0  0  0  0
   15.2674   -7.2750   20.4794 C   0  0  0  0  0  0  0  0  0  0  0  0
   13.9550   -6.8223   20.5286 C   0  0  0  0  0  0  0  0  0  0  0  0
   13.2469   -6.9937   19.0128 S   0  0  0  0  0  0  0  0  0  0  0  0
   13.2578   -6.3392   21.7500 C   0  0  0  0  0  0  0  0  0  0  0  0
   14.0420   -6.6024   22.8726 O   0  0  0  0  0  0  0  0  0  0  0  0
   14.1920   -7.5579   22.9455 H   0  0  0  0  0  0  0  0  0  0  0  0
   15.7827  -10.3017   10.8634 N   0  0  0  0  0  0  0  0  0  0  0  0
   15.1856  -11.0235   10.5604 H   0  0  0  0  0  0  0  0  0  0  0  0
   16.6137   -9.6742    9.8819 C   0  0  0  0  0  0  0  0  0  0  0  0
   16.4636   -9.9010    8.5510 N   0  0  0  0  0  0  0  0  0  0  0  0
   17.4323   -9.1276    8.0323 C   0  0  0  0  0  0  0  0  0  0  0  0
   17.7592   -8.9553    6.6897 C   0  0  0  0  0  0  0  0  0  0  0  0
   18.8247   -8.0847    6.3910 C   0  0  0  0  0  0  0  0  0  0  0  0
   19.5231   -7.4207    7.4256 C   0  0  0  0  0  0  0  0  0  0  0  0
   19.1655   -7.6184    8.7727 C   0  0  0  0  0  0  0  0  0  0  0  0
   18.1075   -8.4859    9.0276 C   0  0  0  0  0  0  0  0  0  0  0  0
   17.5919   -8.8318   10.1748 O   0  0  0  0  0  0  0  0  0  0  0  0
  1  2  1  0  0  0
  2  3  2  0  0  0
  3  4  1  0  0  0
  4  5  1  0  0  0
  5  6  2  0  0  0
  6  7  1  0  0  0
  6 28  1  0  0  0
 28 30  1  0  0  0
 30 31  2  0  0  0
 31 32  1  0  0  0
 32 33  2  0  0  0
 33 34  1  0  0  0
 34 35  2  0  0  0
 35 36  1  0  0  0
 36 37  2  0  0  0
 37 38  1  0  0  0
  4  9  1  0  0  0
  9 10  2  0  0  0
 10 11  1  0  0  0
 11 12  2  0  0  0
 12 13  1  0  0  0
 13 14  2  0  0  0
 14 15  1  0  0  0
  3 16  1  0  0  0
 16 17  2  0  0  0
 16 18  1  0  0  0
 18 20  1  0  0  0
 20 21  2  0  0  0
 21 22  1  0  0  0
 22 23  2  0  0  0
 23 24  1  0  0  0
 23 25  1  0  0  0
 25 26  1  0  0  0
  7  2  1  0  0  0
 38 30  1  0  0  0
 37 32  1  0  0  0
 14  9  1  0  0  0
 24 20  1  0  0  0
  7  8  1  0  0  0
 28 29  1  0  0  0
 18 19  1  0  0  0
 26 27  1  0  0  0
M  END
>  <minimizedAffinity>
-1.50860

>  <minimizedRMSD>
1.45252

$$$$
CHEMBL3582388 PubChem-122179523


 31 34  0  0  0  0  0  0  0  0999 V2000
   16.9960   -9.7422   16.4810 C   0  0  0  0  0  0  0  0  0  0  0  0
   17.4857  -10.9854   16.8937 C   0  0  0  0  0  0  0  0  0  0  0  0
   17.9995  -11.8953   15.9700 C   0  0  0  0  0  0  0  0  0  0  0  0
   18.0299  -11.5736   14.6135 C   0  0  0  0  0  0  0  0  0  0  0  0
   18.5324  -12.4720   13.7294 F   0  0  0  0  0  0  0  0  0  0  0  0
   17.5444  -10.3331   14.1771 C   0  0  0  0  0  0  0  0  0  0  0  0
   17.0265   -9.4133   15.1059 C   0  0  0  0  0  0  0  0  0  0  0  0
   16.5654   -8.2209   14.6539 F   0  0  0  0  0  0  0  0  0  0  0  0
   16.4843   -8.8667   17.4968 N   0  0  0  0  0  0  0  0  0  0  0  0
   17.0893   -8.6696   18.2480 H   0  0  0  0  0  0  0  0  0  0  0  0
   14.8508   -7.0287   16.5164 O   0  0  0  0  0  0  0  0  0  0  0  0
   14.9211   -8.1163   17.5517 S   0  0  0  0  0  0  0  0  0  0  0  0
   13.8496   -9.1415   17.3075 O   0  0  0  0  0  0  0  0  0  0  0  0
   14.6812   -7.4101   19.1387 C   0  0  0  0  0  0  0  0  0  0  0  0
   15.6736   -7.5106   20.1166 C   0  0  0  0  0  0  0  0  0  0  0  0
   15.4667   -6.9494   21.3779 C   0  0  0  0  0  0  0  0  0  0  0  0
   14.2617   -6.2943   21.6432 C   0  0  0  0  0  0  0  0  0  0  0  0
   13.3048   -6.2087   20.6798 N   0  0  0  0  0  0  0  0  0  0  0  0
   13.4881   -6.7491   19.4449 C   0  0  0  0  0  0  0  0  0  0  0  0
   17.5785  -10.0022   12.7747 C   0  0  0  0  0  0  0  0  0  0  0  0
   17.6076   -9.7241   11.6020 C   0  0  0  0  0  0  0  0  0  0  0  0
   17.6429   -9.3926   10.2063 C   0  0  0  0  0  0  0  0  0  0  0  0
   16.6747   -9.9270    9.3269 C   0  0  0  0  0  0  0  0  0  0  0  0
   16.7004   -9.6167    7.9959 N   0  0  0  0  0  0  0  0  0  0  0  0
   17.6703   -8.7883    7.5328 C   0  0  0  0  0  0  0  0  0  0  0  0
   17.8243   -8.3951    6.2623 N   0  0  0  0  0  0  0  0  0  0  0  0
   18.9134   -7.5847    6.2937 C   0  0  0  0  0  0  0  0  0  0  0  0
   19.4443   -7.4681    7.5829 C   0  0  0  0  0  0  0  0  0  0  0  0
   18.6191   -8.2549    8.3492 C   0  0  0  0  0  0  0  0  0  0  0  0
   18.6414   -8.5351    9.7111 C   0  0  0  0  0  0  0  0  0  0  0  0
   17.2736   -8.6379    5.4832 H   0  0  0  0  0  0  0  0  0  0  0  0
 11 12  2  0  0  0
 12 13  2  0  0  0
 12  9  1  0  0  0
  9  1  1  0  0  0
  1  2  2  0  0  0
  2  3  1  0  0  0
  3  4  2  0  0  0
  4  5  1  0  0  0
  4  6  1  0  0  0
  6 20  1  0  0  0
 20 21  3  0  0  0
 21 22  1  0  0  0
 22 23  2  0  0  0
 23 24  1  0  0  0
 24 25  2  0  0  0
 25 26  1  0  0  0
 26 27  1  0  0  0
 27 28  2  0  0  0
 28 29  1  0  0  0
 29 30  2  0  0  0
  6  7  2  0  0  0
  7  8  1  0  0  0
 12 14  1  0  0  0
 14 15  2  0  0  0
 15 16  1  0  0  0
 16 17  2  0  0  0
 17 18  1  0  0  0
 18 19  2  0  0  0
  7  1  1  0  0  0
 19 14  1  0  0  0
 30 22  1  0  0  0
 29 25  1  0  0  0
  9 10  1  0  0  0
 26 31  1  0  0  0
M  END
>  <minimizedAffinity>
-9.64488

>  <minimizedRMSD>
1.45605

$$$$
CHEMBL5202063 PubChem-122432276


 26 28  0  0  0  0  0  0  0  0999 V2000
   17.3605  -10.3144   13.8033 N   0  0  0  0  0  0  0  0  0  0  0  0
   18.3707  -11.1566   14.4485 C   0  0  0  0  0  0  0  0  0  0  0  0
   17.8604  -11.6740   15.7982 C   0  0  0  0  0  0  0  0  0  0  0  0
   16.7921  -10.7621   16.4100 C   0  0  0  0  0  0  0  0  0  0  0  0
   17.0689   -9.2961   16.0795 C   0  0  0  0  0  0  0  0  0  0  0  0
   17.1803   -9.0646   14.5585 C   0  0  0  0  0  0  0  0  0  0  0  0
   16.0431   -8.4097   16.7205 C   0  0  0  0  0  0  0  0  0  0  0  0
   15.2972   -7.6750   16.0165 O   0  0  0  0  0  0  0  0  0  0  0  0
   15.9198   -8.4046   18.1456 N   0  0  0  0  0  0  0  0  0  0  0  0
   16.4921   -9.0107   18.6693 H   0  0  0  0  0  0  0  0  0  0  0  0
   14.9856   -7.5428   18.8561 C   0  0  0  0  0  0  0  0  0  0  0  0
   15.1137   -7.7431   20.3579 C   0  0  0  0  0  0  0  0  0  0  0  0
   13.9527   -7.3206   20.9752 F   0  0  0  0  0  0  0  0  0  0  0  0
   16.1804   -7.0121   20.8479 F   0  0  0  0  0  0  0  0  0  0  0  0
   19.2207   -9.7711   12.2358 C   0  0  0  0  0  0  0  0  0  0  0  0
   17.7983   -9.9965   12.5005 N   0  0  0  0  0  0  0  0  0  0  0  0
   16.8163   -9.9261   11.4467 C   0  0  0  0  0  0  0  0  0  0  0  0
   15.5108  -10.2313   11.7197 N   0  0  0  0  0  0  0  0  0  0  0  0
   14.5389  -10.1840   10.7562 C   0  0  0  0  0  0  0  0  0  0  0  0
   14.8497   -9.8244    9.4774 N   0  0  0  0  0  0  0  0  0  0  0  0
   16.1365   -9.5141    9.1893 C   0  0  0  0  0  0  0  0  0  0  0  0
   17.1208   -9.5542   10.1281 C   0  0  0  0  0  0  0  0  0  0  0  0
   18.2945   -9.1846    9.5069 C   0  0  0  0  0  0  0  0  0  0  0  0
   17.9224   -8.9394    8.1829 C   0  0  0  0  0  0  0  0  0  0  0  0
   16.5961   -9.1422    7.9874 N   0  0  0  0  0  0  0  0  0  0  0  0
   16.0863   -9.0394    7.1514 H   0  0  0  0  0  0  0  0  0  0  0  0
 15 16  1  0  0  0
 16 17  1  0  0  0
 17 18  2  0  0  0
 18 19  1  0  0  0
 19 20  2  0  0  0
 20 21  1  0  0  0
 21 22  2  0  0  0
 22 23  1  0  0  0
 23 24  2  0  0  0
 24 25  1  0  0  0
 16  1  1  0  0  0
  1  2  1  0  0  0
  2  3  1  0  0  0
  3  4  1  0  0  0
  4  5  1  0  0  0
  5  6  1  0  0  0
  5  7  1  0  0  0
  7  8  2  0  0  0
  7  9  1  0  0  0
  9 11  1  0  0  0
 11 12  1  0  0  0
 12 13  1  0  0  0
 12 14  1  0  0  0
 22 17  1  0  0  0
 25 21  1  0  0  0
  6  1  1  0  0  0
 25 26  1  0  0  0
  9 10  1  0  0  0
M  END
>  <minimizedAffinity>
-6.75498

>  <minimizedRMSD>
1.46053

$$$$
CHEMBL2355791 ChemDiv-G756-0581 MCULE-1482288618 MolPort-007-879-277 PubChem-16030285


 34 37  0  0  0  0  0  0  0  0999 V2000
   16.4623   -9.7954   17.3639 C   0  0  0  0  0  0  0  0  0  0  0  0
   16.4384   -9.5137   15.9896 C   0  0  0  0  0  0  0  0  0  0  0  0
   17.3142  -10.1613   15.1126 C   0  0  0  0  0  0  0  0  0  0  0  0
   18.2258  -11.1012   15.6185 C   0  0  0  0  0  0  0  0  0  0  0  0
   18.2567  -11.3844   16.9861 C   0  0  0  0  0  0  0  0  0  0  0  0
   17.3779  -10.7318   17.8548 C   0  0  0  0  0  0  0  0  0  0  0  0
   14.8653   -7.9165   18.0729 C   0  0  0  0  0  0  0  0  0  0  0  0
   14.8841   -7.3512   16.9467 O   0  0  0  0  0  0  0  0  0  0  0  0
   15.5838   -9.1403   18.2879 N   0  0  0  0  0  0  0  0  0  0  0  0
   15.4602   -9.5756   19.1623 H   0  0  0  0  0  0  0  0  0  0  0  0
   14.0438   -7.3145   19.1817 C   0  0  0  0  0  0  0  0  0  0  0  0
   12.9403   -5.1261   19.6841 C   0  0  0  0  0  0  0  0  0  0  0  0
   14.2454   -5.8076   19.3195 C   0  0  0  0  0  0  0  0  0  0  0  0
   14.2276   -7.9860   20.4340 O   0  0  0  0  0  0  0  0  0  0  0  0
   15.0071   -7.5192   21.5050 C   0  0  0  0  0  0  0  0  0  0  0  0
   14.5590   -7.7478   22.8107 C   0  0  0  0  0  0  0  0  0  0  0  0
   15.3075   -7.3021   23.9043 C   0  0  0  0  0  0  0  0  0  0  0  0
   16.5120   -6.6240   23.6981 C   0  0  0  0  0  0  0  0  0  0  0  0
   16.9679   -6.3910   22.3982 C   0  0  0  0  0  0  0  0  0  0  0  0
   16.2188   -6.8357   21.3054 C   0  0  0  0  0  0  0  0  0  0  0  0
   17.2588   -9.8523   13.7512 O   0  0  0  0  0  0  0  0  0  0  0  0
   17.9760  -10.5861   12.7673 C   0  0  0  0  0  0  0  0  0  0  0  0
   17.6285  -10.0771   11.4146 C   0  0  0  0  0  0  0  0  0  0  0  0
   16.3764  -10.3429   10.8714 C   0  0  0  0  0  0  0  0  0  0  0  0
   16.0676   -9.8302    9.6131 C   0  0  0  0  0  0  0  0  0  0  0  0
   14.9337  -10.0764    9.1166 O   0  0  0  0  0  0  0  0  0  0  0  0
   16.9848   -9.0734    8.9335 N   0  0  0  0  0  0  0  0  0  0  0  0
   16.6742   -8.5743    7.7002 C   0  0  0  0  0  0  0  0  0  0  0  0
   17.5902   -7.7993    6.9893 C   0  0  0  0  0  0  0  0  0  0  0  0
   18.8368   -7.5318    7.5487 C   0  0  0  0  0  0  0  0  0  0  0  0
   19.1594   -8.0370    8.8068 C   0  0  0  0  0  0  0  0  0  0  0  0
   20.5003   -7.7371    9.3863 C   0  0  0  0  0  0  0  0  0  0  0  0
   18.2162   -8.8164    9.4980 C   0  0  0  0  0  0  0  0  0  0  0  0
   18.5171   -9.3174   10.7271 N   0  0  0  0  0  0  0  0  0  0  0  0
 12 13  1  0  0  0
 11 13  1  0  0  0
 11 14  1  0  0  0
 11  7  1  0  0  0
 14 15  1  0  0  0
 15 16  2  0  0  0
 16 17  1  0  0  0
 17 18  2  0  0  0
 18 19  1  0  0  0
 19 20  2  0  0  0
 20 15  1  0  0  0
  7  8  2  0  0  0
  7  9  1  0  0  0
  9  1  1  0  0  0
  1  2  2  0  0  0
  2  3  1  0  0  0
  3 21  1  0  0  0
  3  4  2  0  0  0
 21 22  1  0  0  0
 22 23  1  0  0  0
 23 24  2  0  0  0
 24 25  1  0  0  0
 25 26  2  0  0  0
 25 27  1  0  0  0
 27 28  1  0  0  0
 28 29  2  0  0  0
 29 30  1  0  0  0
 30 31  2  0  0  0
 31 32  1  0  0  0
 31 33  1  0  0  0
 33 34  2  0  0  0
 33 27  1  0  0  0
 34 23  1  0  0  0
  4  5  1  0  0  0
  5  6  2  0  0  0
  6  1  1  0  0  0
  9 10  1  0  0  0
M  END
>  <minimizedAffinity>
-5.80246

>  <minimizedRMSD>
1.46102

$$$$
CHEMBL1564898 8603795 ChemDiv-C679-5559 MCULE-3068551734 MolPort-007-656-132 PubChem-16009570 ZINC000008603795


 30 33  0  0  0  0  0  0  0  0999 V2000
   16.7123   -9.3452   15.0531 C   0  0  0  0  0  0  0  0  0  0  0  0
   17.3789  -10.3359   15.7911 C   0  0  0  0  0  0  0  0  0  0  0  0
   17.2802  -10.3604   17.1843 C   0  0  0  0  0  0  0  0  0  0  0  0
   16.5159   -9.3966   17.8473 C   0  0  0  0  0  0  0  0  0  0  0  0
   15.8461   -8.4038   17.1249 C   0  0  0  0  0  0  0  0  0  0  0  0
   15.9498   -8.3852   15.7256 C   0  0  0  0  0  0  0  0  0  0  0  0
   15.0719   -7.4332   17.8429 N   0  0  0  0  0  0  0  0  0  0  0  0
   13.7145   -7.5668   18.2901 C   0  0  0  0  0  0  0  0  0  0  0  0
   13.0769   -8.6296   18.0538 O   0  0  0  0  0  0  0  0  0  0  0  0
   15.5206   -6.5821   18.0520 H   0  0  0  0  0  0  0  0  0  0  0  0
   13.0378   -6.4672   19.0300 C   0  0  0  0  0  0  0  0  0  0  0  0
   12.1850   -5.6191   18.3024 C   0  0  0  0  0  0  0  0  0  0  0  0
   11.5135   -4.5640   18.9218 C   0  0  0  0  0  0  0  0  0  0  0  0
   11.6831   -4.3372   20.2861 C   0  0  0  0  0  0  0  0  0  0  0  0
   12.5235   -5.1659   21.0295 C   0  0  0  0  0  0  0  0  0  0  0  0
   13.2026   -6.2269   20.4206 C   0  0  0  0  0  0  0  0  0  0  0  0
   14.0758   -7.0595   21.2966 C   0  0  0  0  0  0  0  0  0  0  0  0
   16.7901   -9.2918   13.6592 O   0  0  0  0  0  0  0  0  0  0  0  0
   17.5377  -10.2293   12.8956 C   0  0  0  0  0  0  0  0  0  0  0  0
   17.5181   -9.0146    8.8548 N   0  0  0  0  0  0  0  0  0  0  0  0
   17.6768   -8.5293    7.5944 C   0  0  0  0  0  0  0  0  0  0  0  0
   18.8531   -7.7988    7.4420 C   0  0  0  0  0  0  0  0  0  0  0  0
   19.7061   -7.7580    8.9028 S   0  0  0  0  0  0  0  0  0  0  0  0
   18.5371   -8.6793    9.6775 C   0  0  0  0  0  0  0  0  0  0  0  0
   18.5616   -9.0674   10.9761 N   0  0  0  0  0  0  0  0  0  0  0  0
   17.5375   -9.8208   11.4661 C   0  0  0  0  0  0  0  0  0  0  0  0
   16.4613  -10.1774   10.6388 C   0  0  0  0  0  0  0  0  0  0  0  0
   16.4704   -9.7582    9.3040 C   0  0  0  0  0  0  0  0  0  0  0  0
   15.5186  -10.0679    8.5384 O   0  0  0  0  0  0  0  0  0  0  0  0
   19.2951   -7.1482    6.1813 C   0  0  0  0  0  0  0  0  0  0  0  0
 20 21  1  0  0  0
 21 22  2  0  0  0
 22 23  1  0  0  0
 23 24  1  0  0  0
 24 25  2  0  0  0
 25 26  1  0  0  0
 26 19  1  0  0  0
 19 18  1  0  0  0
 18  1  1  0  0  0
  1  2  2  0  0  0
  2  3  1  0  0  0
  3  4  2  0  0  0
  4  5  1  0  0  0
  5  6  2  0  0  0
  5  7  1  0  0  0
  7  8  1  0  0  0
  8  9  2  0  0  0
  8 11  1  0  0  0
 11 12  2  0  0  0
 12 13  1  0  0  0
 13 14  2  0  0  0
 14 15  1  0  0  0
 15 16  2  0  0  0
 16 17  1  0  0  0
 26 27  2  0  0  0
 27 28  1  0  0  0
 28 29  2  0  0  0
 22 30  1  0  0  0
 24 20  1  0  0  0
  6  1  1  0  0  0
 16 11  1  0  0  0
 28 20  1  0  0  0
  7 10  1  0  0  0
M  END
>  <minimizedAffinity>
-7.48385

>  <minimizedRMSD>
1.46107

$$$$
CHEMBL1457345 8583079 ChemDiv-K405-3790 LN01026016 MCULE-6350384587 MolPort-003-084-151 PubChem-15954999 ZINC000008583079 ZINC08583079


 32 35  0  0  0  0  0  0  0  0999 V2000
   17.1474   -9.4465   11.9354 N   0  0  0  0  0  0  0  0  0  0  0  0
   16.3264   -9.1599   12.3971 H   0  0  0  0  0  0  0  0  0  0  0  0
   17.1285   -9.4908   10.5040 C   0  0  0  0  0  0  0  0  0  0  0  0
   18.0414   -8.8002    9.7028 C   0  0  0  0  0  0  0  0  0  0  0  0
   19.1122   -7.9652    9.9655 C   0  0  0  0  0  0  0  0  0  0  0  0
   19.6288   -7.5864    8.7670 N   0  0  0  0  0  0  0  0  0  0  0  0
   18.9278   -8.1473    7.7855 N   0  0  0  0  0  0  0  0  0  0  0  0
   17.9590   -8.8882    8.3504 C   0  0  0  0  0  0  0  0  0  0  0  0
   17.0113   -9.6305    7.7273 N   0  0  0  0  0  0  0  0  0  0  0  0
   16.1136  -10.3098    8.5009 C   0  0  0  0  0  0  0  0  0  0  0  0
   16.1767  -10.2364    9.8683 N   0  0  0  0  0  0  0  0  0  0  0  0
   19.2093   -7.9533    6.3876 C   0  0  0  0  0  0  0  0  0  0  0  0
   20.3227   -7.1933    5.9979 C   0  0  0  0  0  0  0  0  0  0  0  0
   20.6091   -6.9961    4.6441 C   0  0  0  0  0  0  0  0  0  0  0  0
   22.0014   -6.0456    4.1745 Cl  0  0  0  0  0  0  0  0  0  0  0  0
   19.7843   -7.5573    3.6662 C   0  0  0  0  0  0  0  0  0  0  0  0
   18.6732   -8.3158    4.0421 C   0  0  0  0  0  0  0  0  0  0  0  0
   18.3873   -8.5127    5.3960 C   0  0  0  0  0  0  0  0  0  0  0  0
   18.2993   -9.7970   12.7530 C   0  0  0  0  0  0  0  0  0  0  0  0
   17.8880  -10.7723   13.8444 C   0  0  0  0  0  0  0  0  0  0  0  0
   15.8537   -8.7207   17.0186 C   0  0  0  0  0  0  0  0  0  0  0  0
   15.7704   -8.2417   15.7063 C   0  0  0  0  0  0  0  0  0  0  0  0
   16.4280   -8.9134   14.6716 C   0  0  0  0  0  0  0  0  0  0  0  0
   17.1707  -10.0673   14.9460 C   0  0  0  0  0  0  0  0  0  0  0  0
   17.2611  -10.5421   16.2594 C   0  0  0  0  0  0  0  0  0  0  0  0
   16.6031   -9.8699   17.2936 C   0  0  0  0  0  0  0  0  0  0  0  0
   16.2049   -7.2681   19.4418 N   0  0  0  0  0  0  0  0  0  0  0  0
   15.0385   -7.8719   18.3189 S   0  0  0  0  0  0  0  0  0  0  0  0
   14.2463   -6.7271   17.7538 O   0  0  0  0  0  0  0  0  0  0  0  0
   14.1151   -8.8142   19.0389 O   0  0  0  0  0  0  0  0  0  0  0  0
   15.7272   -6.7753   20.1963 H   0  0  0  0  0  0  0  0  0  0  0  0
   16.8371   -6.6264   18.9633 H   0  0  0  0  0  0  0  0  0  0  0  0
 27 28  1  0  0  0
 28 29  2  0  0  0
 28 30  2  0  0  0
 28 21  1  0  0  0
 21 22  2  0  0  0
 22 23  1  0  0  0
 23 24  2  0  0  0
 24 20  1  0  0  0
 24 25  1  0  0  0
 20 19  1  0  0  0
 19  1  1  0  0  0
  1  3  1  0  0  0
  3  4  2  0  0  0
  4  5  1  0  0  0
  5  6  2  0  0  0
  6  7  1  0  0  0
  7  8  1  0  0  0
  7 12  1  0  0  0
  8  9  2  0  0  0
  8  4  1  0  0  0
  9 10  1  0  0  0
 10 11  2  0  0  0
 11  3  1  0  0  0
 12 13  2  0  0  0
 13 14  1  0  0  0
 14 15  1  0  0  0
 14 16  2  0  0  0
 16 17  1  0  0  0
 17 18  2  0  0  0
 18 12  1  0  0  0
 25 26  2  0  0  0
 26 21  1  0  0  0
 27 31  1  0  0  0
 27 32  1  0  0  0
  1  2  1  0  0  0
M  END
>  <minimizedAffinity>
-7.34358

>  <minimizedRMSD>
1.46353

$$$$
CHEMBL3473590 67540135 MCULE-5164901783 MolPort-019-882-787 ZINC000067540135


 27 30  0  0  0  0  0  0  0  0999 V2000
   18.8025  -11.1896   15.0015 C   0  0  0  0  0  0  0  0  0  0  0  0
   17.3854  -11.0056   14.6779 N   0  0  0  0  0  0  0  0  0  0  0  0
   16.5785  -11.2968   15.8722 C   0  0  0  0  0  0  0  0  0  0  0  0
   16.8881  -10.3569   17.0456 C   0  0  0  0  0  0  0  0  0  0  0  0
   17.0907   -8.9798   16.6070 N   0  0  0  0  0  0  0  0  0  0  0  0
   17.2113   -8.6051   15.2332 C   0  0  0  0  0  0  0  0  0  0  0  0
   17.3529   -7.3877   14.9383 O   0  0  0  0  0  0  0  0  0  0  0  0
   17.0938   -9.6487   14.1465 C   0  0  0  0  0  0  0  0  0  0  0  0
   18.0520   -9.2931   12.9845 C   0  0  0  0  0  0  0  0  0  0  0  0
   17.8473  -10.2197   11.7881 C   0  0  0  0  0  0  0  0  0  0  0  0
   16.4452  -10.1883   11.3869 N   0  0  0  0  0  0  0  0  0  0  0  0
   15.4551  -10.5163   12.4068 C   0  0  0  0  0  0  0  0  0  0  0  0
   15.6472   -9.5996   13.6145 C   0  0  0  0  0  0  0  0  0  0  0  0
   16.0256   -9.8981   10.0401 C   0  0  0  0  0  0  0  0  0  0  0  0
   14.8296  -10.1199    9.7068 O   0  0  0  0  0  0  0  0  0  0  0  0
   17.1471   -8.2742   17.2913 H   0  0  0  0  0  0  0  0  0  0  0  0
   16.9412   -9.3378    9.0236 C   0  0  0  0  0  0  0  0  0  0  0  0
   16.8972   -9.7256    7.7203 N   0  0  0  0  0  0  0  0  0  0  0  0
   17.8546   -8.9760    7.1574 C   0  0  0  0  0  0  0  0  0  0  0  0
   18.2492   -8.9616    5.8220 C   0  0  0  0  0  0  0  0  0  0  0  0
   19.2855   -8.0792    5.4628 C   0  0  0  0  0  0  0  0  0  0  0  0
   19.7489   -8.0204    4.0523 C   0  0  0  0  0  0  0  0  0  0  0  0
   19.8875   -7.2484    6.4348 C   0  0  0  0  0  0  0  0  0  0  0  0
   19.4613   -7.2902    7.7756 C   0  0  0  0  0  0  0  0  0  0  0  0
   18.4348   -8.1761    8.0921 C   0  0  0  0  0  0  0  0  0  0  0  0
   17.8718   -8.3820    9.2902 N   0  0  0  0  0  0  0  0  0  0  0  0
   18.0797   -7.9493   10.1497 H   0  0  0  0  0  0  0  0  0  0  0  0
  1  2  1  0  0  0
  2  3  1  0  0  0
  3  4  1  0  0  0
  4  5  1  0  0  0
  5  6  1  0  0  0
  6  7  2  0  0  0
  6  8  1  0  0  0
  8  9  1  0  0  0
  9 10  1  0  0  0
 10 11  1  0  0  0
 11 12  1  0  0  0
 12 13  1  0  0  0
 11 14  1  0  0  0
 14 15  2  0  0  0
 14 17  1  0  0  0
 17 18  2  0  0  0
 18 19  1  0  0  0
 19 20  2  0  0  0
 20 21  1  0  0  0
 21 22  1  0  0  0
 21 23  2  0  0  0
 23 24  1  0  0  0
 24 25  2  0  0  0
 25 26  1  0  0  0
  8  2  1  0  0  0
 13  8  1  0  0  0
 26 17  1  0  0  0
 25 19  1  0  0  0
  5 16  1  0  0  0
 26 27  1  0  0  0
M  END
>  <minimizedAffinity>
-6.48249

>  <minimizedRMSD>
1.46419

$$$$
CHEMBL460913 PubChem-25181316 PubChem-25233253


 31 33  0  0  0  0  0  0  0  0999 V2000
   16.3386   -9.6908   13.9944 C   0  0  0  0  0  0  0  0  0  0  0  0
   15.7925   -9.7897   12.6977 O   0  0  0  0  0  0  0  0  0  0  0  0
   16.7300  -10.4679   11.8973 C   0  0  0  0  0  0  0  0  0  0  0  0
   18.0798  -10.4040   12.5635 C   0  0  0  0  0  0  0  0  0  0  0  0
   18.8195  -11.5566   12.2865 O   0  0  0  0  0  0  0  0  0  0  0  0
   17.7312  -10.2906   14.0196 C   0  0  0  0  0  0  0  0  0  0  0  0
   17.6672  -11.5500   14.6231 O   0  0  0  0  0  0  0  0  0  0  0  0
   18.3187  -12.3378   12.5692 H   0  0  0  0  0  0  0  0  0  0  0  0
   17.0211  -12.1008   14.1541 H   0  0  0  0  0  0  0  0  0  0  0  0
   16.7823   -9.8695   10.5666 N   0  0  0  0  0  0  0  0  0  0  0  0
   17.7815   -9.1843    9.9957 C   0  0  0  0  0  0  0  0  0  0  0  0
   18.9959   -8.8928   10.5225 N   0  0  0  0  0  0  0  0  0  0  0  0
   19.8693   -8.1724    9.7551 C   0  0  0  0  0  0  0  0  0  0  0  0
   19.5155   -7.7630    8.4937 N   0  0  0  0  0  0  0  0  0  0  0  0
   18.2893   -8.0598    7.9703 C   0  0  0  0  0  0  0  0  0  0  0  0
   17.9340   -7.6284    6.6613 N   0  0  0  0  0  0  0  0  0  0  0  0
   17.4097   -8.7913    8.7554 C   0  0  0  0  0  0  0  0  0  0  0  0
   16.1579   -9.2056    8.4799 N   0  0  0  0  0  0  0  0  0  0  0  0
   15.8081   -9.8633    9.6203 C   0  0  0  0  0  0  0  0  0  0  0  0
   14.4778  -10.5103    9.7986 C   0  0  0  0  0  0  0  0  0  0  0  0
   18.5750   -7.1104    6.1228 H   0  0  0  0  0  0  0  0  0  0  0  0
   17.0472   -7.8479    6.2944 H   0  0  0  0  0  0  0  0  0  0  0  0
   16.3879   -8.2154   14.4115 C   0  0  0  0  0  0  0  0  0  0  0  0
   16.6959   -8.0051   15.8318 N   0  0  0  0  0  0  0  0  0  0  0  0
   18.0556   -8.4408   16.1186 C   0  0  0  0  0  0  0  0  0  0  0  0
   15.7789   -8.7812   16.6573 C   0  0  0  0  0  0  0  0  0  0  0  0
   14.1407   -7.2608   17.4810 O   0  0  0  0  0  0  0  0  0  0  0  0
   15.1902   -7.9142   17.7151 C   0  0  0  0  0  0  0  0  0  0  0  0
   15.8350   -7.7940   18.9774 N   0  0  0  0  0  0  0  0  0  0  0  0
   15.4455   -7.2207   19.6766 H   0  0  0  0  0  0  0  0  0  0  0  0
   16.6708   -8.2842   19.1518 H   0  0  0  0  0  0  0  0  0  0  0  0
 27 28  2  0  0  0
 28 26  1  0  0  0
 26 24  1  0  0  0
 24 25  1  0  0  0
 24 23  1  0  0  0
  1 23  1  0  0  0
  1  2  1  0  0  0
  2  3  1  0  0  0
  3 10  1  0  0  0
 10 11  1  0  0  0
 11 12  2  0  0  0
 12 13  1  0  0  0
 13 14  2  0  0  0
 14 15  1  0  0  0
 15 16  1  0  0  0
 15 17  2  0  0  0
 17 18  1  0  0  0
 18 19  2  0  0  0
 19 20  1  0  0  0
  3  4  1  0  0  0
  4  5  1  0  0  0
  4  6  1  0  0  0
  6  7  1  0  0  0
 28 29  1  0  0  0
  6  1  1  0  0  0
 19 10  1  0  0  0
 17 11  1  0  0  0
 16 21  1  0  0  0
 16 22  1  0  0  0
  5  8  1  0  0  0
  7  9  1  0  0  0
 29 30  1  0  0  0
 29 31  1  0  0  0
M  END
>  <minimizedAffinity>
-6.11175

>  <minimizedRMSD>
1.46469

$$$$
CHEMBL3693599 PubChem-58293319


 27 30  0  0  0  0  0  0  0  0999 V2000
   17.4420   -8.1284   16.0548 O   0  0  0  0  0  0  0  0  0  0  0  0
   17.0691   -9.2493   16.4969 C   0  0  0  0  0  0  0  0  0  0  0  0
   16.3896   -9.3309   17.7541 N   0  0  0  0  0  0  0  0  0  0  0  0
   17.3235  -10.4446   15.7415 N   0  0  0  0  0  0  0  0  0  0  0  0
   16.8672  -11.7456   16.1876 C   0  0  0  0  0  0  0  0  0  0  0  0
   17.1580  -12.7015   15.0482 C   0  0  0  0  0  0  0  0  0  0  0  0
   18.0686  -11.9586   14.0807 C   0  0  0  0  0  0  0  0  0  0  0  0
   18.0079  -10.4869   14.4558 C   0  0  0  0  0  0  0  0  0  0  0  0
   19.4511   -9.9653   14.5960 C   0  0  0  0  0  0  0  0  0  0  0  0
   19.6955   -8.6695   13.8263 C   0  0  0  0  0  0  0  0  0  0  0  0
   19.3259   -8.8603   12.3573 C   0  0  0  0  0  0  0  0  0  0  0  0
   17.9955   -9.4628   12.2051 N   0  0  0  0  0  0  0  0  0  0  0  0
   17.1883   -9.7312   13.3978 C   0  0  0  0  0  0  0  0  0  0  0  0
   16.1275  -10.2180   18.0913 H   0  0  0  0  0  0  0  0  0  0  0  0
   17.4319   -9.7408   10.9066 C   0  0  0  0  0  0  0  0  0  0  0  0
   16.4210  -10.6555   10.7849 N   0  0  0  0  0  0  0  0  0  0  0  0
   15.8587  -10.9571    9.5742 C   0  0  0  0  0  0  0  0  0  0  0  0
   16.2986  -10.3467    8.4366 N   0  0  0  0  0  0  0  0  0  0  0  0
   17.2999   -9.4407    8.5363 C   0  0  0  0  0  0  0  0  0  0  0  0
   17.8436   -8.7671    7.5145 N   0  0  0  0  0  0  0  0  0  0  0  0
   18.7992   -7.9972    8.0906 C   0  0  0  0  0  0  0  0  0  0  0  0
   18.8552   -8.1885    9.4729 C   0  0  0  0  0  0  0  0  0  0  0  0
   17.8750   -9.1231    9.7275 C   0  0  0  0  0  0  0  0  0  0  0  0
   17.6037   -8.8191    6.5611 H   0  0  0  0  0  0  0  0  0  0  0  0
   16.0696   -8.1585   18.5553 C   0  0  0  0  0  0  0  0  0  0  0  0
   14.7640   -7.6205   18.1619 C   0  0  0  0  0  0  0  0  0  0  0  0
   13.7335   -7.1956   17.8508 N   0  0  0  0  0  0  0  0  0  0  0  0
  1  2  2  0  0  0
  2  3  1  0  0  0
  3 25  1  0  0  0
 25 26  1  0  0  0
 26 27  3  0  0  0
  2  4  1  0  0  0
  4  5  1  0  0  0
  5  6  1  0  0  0
  6  7  1  0  0  0
  7  8  1  0  0  0
  8  9  1  0  0  0
  9 10  1  0  0  0
 10 11  1  0  0  0
 11 12  1  0  0  0
 12 13  1  0  0  0
 12 15  1  0  0  0
 15 16  2  0  0  0
 16 17  1  0  0  0
 17 18  2  0  0  0
 18 19  1  0  0  0
 19 20  1  0  0  0
 20 21  1  0  0  0
 21 22  2  0  0  0
 22 23  1  0  0  0
  8  4  1  0  0  0
 23 15  1  0  0  0
 13  8  1  0  0  0
 23 19  2  0  0  0
  3 14  1  0  0  0
 20 24  1  0  0  0
M  END
>  <minimizedAffinity>
-0.30466

>  <minimizedRMSD>
1.46470

$$$$
CHEMBL4948161 MCULE-3687945980 MolPort-019-889-937


 28 30  0  0  0  0  0  0  0  0999 V2000
   16.4309  -10.7695   10.7009 N   0  0  0  0  0  0  0  0  0  0  0  0
   15.9635  -10.4130   12.0037 C   0  0  0  0  0  0  0  0  0  0  0  0
   14.9806   -9.6373   12.1444 O   0  0  0  0  0  0  0  0  0  0  0  0
   17.1730  -11.4119   10.6255 H   0  0  0  0  0  0  0  0  0  0  0  0
   15.8554  -10.2223    9.4807 C   0  0  0  0  0  0  0  0  0  0  0  0
   16.9177   -9.5155    7.3318 N   0  0  0  0  0  0  0  0  0  0  0  0
   17.9799   -8.7438    7.0550 C   0  0  0  0  0  0  0  0  0  0  0  0
   18.4798   -8.3845    5.8025 C   0  0  0  0  0  0  0  0  0  0  0  0
   17.8463   -8.8570    4.5411 C   0  0  0  0  0  0  0  0  0  0  0  0
   19.6129   -7.5516    5.7666 C   0  0  0  0  0  0  0  0  0  0  0  0
   20.2089   -7.1039    6.9665 C   0  0  0  0  0  0  0  0  0  0  0  0
   19.6787   -7.4834    8.2140 C   0  0  0  0  0  0  0  0  0  0  0  0
   18.5573   -8.3098    8.2101 C   0  0  0  0  0  0  0  0  0  0  0  0
   17.8895   -8.7846    9.2707 N   0  0  0  0  0  0  0  0  0  0  0  0
   16.9047   -9.5182    8.6900 C   0  0  0  0  0  0  0  0  0  0  0  0
   18.0675   -8.6386   10.2280 H   0  0  0  0  0  0  0  0  0  0  0  0
   16.6657  -10.9368   13.2047 C   0  0  0  0  0  0  0  0  0  0  0  0
   17.5522   -9.8521   13.7924 C   0  0  0  0  0  0  0  0  0  0  0  0
   16.9957   -9.3669   15.0995 C   0  0  0  0  0  0  0  0  0  0  0  0
   17.2390  -10.0552   16.3027 C   0  0  0  0  0  0  0  0  0  0  0  0
   18.0625  -11.2989   16.3371 C   0  0  0  0  0  0  0  0  0  0  0  0
   16.7289   -9.5785   17.4677 N   0  0  0  0  0  0  0  0  0  0  0  0
   15.9879   -8.4419   17.4977 C   0  0  0  0  0  0  0  0  0  0  0  0
   15.7488   -7.7556   16.3516 N   0  0  0  0  0  0  0  0  0  0  0  0
   16.2358   -8.1863   15.1591 C   0  0  0  0  0  0  0  0  0  0  0  0
   15.9411   -7.3890   13.9330 C   0  0  0  0  0  0  0  0  0  0  0  0
   15.4767   -7.9793   18.7023 O   0  0  0  0  0  0  0  0  0  0  0  0
   15.6416   -8.4528   19.4939 H   0  0  0  0  0  0  0  0  0  0  0  0
  6  7  1  0  0  0
  7  8  2  0  0  0
  8  9  1  0  0  0
  8 10  1  0  0  0
 10 11  2  0  0  0
 11 12  1  0  0  0
 12 13  2  0  0  0
 13 14  1  0  0  0
 14 15  1  0  0  0
 15  5  1  0  0  0
  5  1  1  0  0  0
  1  2  1  0  0  0
  2 17  1  0  0  0
 17 18  1  0  0  0
 18 19  1  0  0  0
 19 20  2  0  0  0
 20 21  1  0  0  0
 20 22  1  0  0  0
 22 23  2  0  0  0
 23 24  1  0  0  0
 24 25  2  0  0  0
 25 26  1  0  0  0
 23 27  1  0  0  0
  2  3  2  0  0  0
 15  6  2  0  0  0
 25 19  1  0  0  0
 13  7  1  0  0  0
 14 16  1  0  0  0
  1  4  1  0  0  0
 27 28  1  0  0  0
M  END
>  <minimizedAffinity>
-4.30986

>  <minimizedRMSD>
1.46852

$$$$
CHEMBL5193775 PubChem-164172189


 36 40  0  0  0  0  0  0  0  0999 V2000
   15.6932   -8.2536   18.5495 N   0  0  0  0  0  0  0  0  0  0  0  0
   15.5790   -8.2239   17.1183 C   0  0  0  0  0  0  0  0  0  0  0  0
   14.7476   -7.4600   16.5563 O   0  0  0  0  0  0  0  0  0  0  0  0
   16.3616   -8.8712   18.9251 H   0  0  0  0  0  0  0  0  0  0  0  0
   12.9345   -6.2508   20.1335 C   0  0  0  0  0  0  0  0  0  0  0  0
   13.5174   -5.9701   21.3765 C   0  0  0  0  0  0  0  0  0  0  0  0
   14.8035   -6.4359   21.6866 C   0  0  0  0  0  0  0  0  0  0  0  0
   15.5041   -7.1901   20.7336 C   0  0  0  0  0  0  0  0  0  0  0  0
   14.9366   -7.4787   19.4893 C   0  0  0  0  0  0  0  0  0  0  0  0
   13.6502   -7.0052   19.1961 C   0  0  0  0  0  0  0  0  0  0  0  0
   15.3953   -6.1445   22.9627 N   0  0  0  0  0  0  0  0  0  0  0  0
   16.4564   -6.7600   23.5143 C   0  0  0  0  0  0  0  0  0  0  0  0
   16.6853   -6.1674   24.7403 C   0  0  0  0  0  0  0  0  0  0  0  0
   15.7703   -5.1956   24.9373 N   0  0  0  0  0  0  0  0  0  0  0  0
   14.9949   -5.2032   23.8366 C   0  0  0  0  0  0  0  0  0  0  0  0
   10.8206   -6.7854   19.2394 F   0  0  0  0  0  0  0  0  0  0  0  0
   11.5584   -5.7559   19.7947 C   0  0  0  0  0  0  0  0  0  0  0  0
   11.6512   -4.7217   18.8811 F   0  0  0  0  0  0  0  0  0  0  0  0
   10.9023   -5.2957   20.9240 F   0  0  0  0  0  0  0  0  0  0  0  0
   16.4415   -9.0936   16.2992 C   0  0  0  0  0  0  0  0  0  0  0  0
   16.3967   -9.0222   14.8988 C   0  0  0  0  0  0  0  0  0  0  0  0
   17.2153   -9.8476   14.1219 C   0  0  0  0  0  0  0  0  0  0  0  0
   18.0847  -10.7505   14.7401 C   0  0  0  0  0  0  0  0  0  0  0  0
   18.1359  -10.8280   16.1344 C   0  0  0  0  0  0  0  0  0  0  0  0
   17.3172  -10.0026   16.9108 C   0  0  0  0  0  0  0  0  0  0  0  0
   17.1627   -9.7669   12.6901 C   0  0  0  0  0  0  0  0  0  0  0  0
   17.1187   -9.6980   11.4873 C   0  0  0  0  0  0  0  0  0  0  0  0
   17.0674   -9.6135   10.0532 C   0  0  0  0  0  0  0  0  0  0  0  0
   17.8715   -8.8658    9.2920 N   0  0  0  0  0  0  0  0  0  0  0  0
   18.8667   -8.0563    9.6484 N   0  0  0  0  0  0  0  0  0  0  0  0
   19.5520   -7.3901    8.6757 C   0  0  0  0  0  0  0  0  0  0  0  0
   19.1969   -7.5695    7.3241 C   0  0  0  0  0  0  0  0  0  0  0  0
   18.1420   -8.4308    6.9829 C   0  0  0  0  0  0  0  0  0  0  0  0
   17.4916   -9.0741    8.0288 C   0  0  0  0  0  0  0  0  0  0  0  0
   16.4603   -9.9367    7.9278 N   0  0  0  0  0  0  0  0  0  0  0  0
   16.1864  -10.2834    9.2152 C   0  0  0  0  0  0  0  0  0  0  0  0
 16 17  1  0  0  0
 17 18  1  0  0  0
 17 19  1  0  0  0
 17  5  1  0  0  0
  5  6  2  0  0  0
  6  7  1  0  0  0
  7 11  1  0  0  0
 11 12  1  0  0  0
 12 13  2  0  0  0
 13 14  1  0  0  0
 14 15  2  0  0  0
  7  8  2  0  0  0
  8  9  1  0  0  0
  9  1  1  0  0  0
  1  2  1  0  0  0
  2  3  2  0  0  0
  2 20  1  0  0  0
 20 21  2  0  0  0
 21 22  1  0  0  0
 22 23  2  0  0  0
 23 24  1  0  0  0
 24 25  2  0  0  0
 22 26  1  0  0  0
 26 27  3  0  0  0
 27 28  1  0  0  0
 28 29  1  0  0  0
 29 30  1  0  0  0
 30 31  2  0  0  0
 31 32  1  0  0  0
 32 33  2  0  0  0
 33 34  1  0  0  0
 34 35  2  0  0  0
 35 36  1  0  0  0
  9 10  2  0  0  0
 10  5  1  0  0  0
 15 11  1  0  0  0
 25 20  1  0  0  0
 36 28  2  0  0  0
 34 29  1  0  0  0
  1  4  1  0  0  0
M  END
>  <minimizedAffinity>
-12.64947

>  <minimizedRMSD>
1.46883

$$$$
CHEMBL2180439 PubChem-71452033


 34 38  0  0  0  0  0  0  0  0999 V2000
   16.2187   -9.0038   14.3617 C   0  0  0  0  0  0  0  0  0  0  0  0
   15.4738   -8.2362   15.1993 N   0  0  0  0  0  0  0  0  0  0  0  0
   15.5045   -8.4254   16.5459 C   0  0  0  0  0  0  0  0  0  0  0  0
   16.3166   -9.4281   17.0808 C   0  0  0  0  0  0  0  0  0  0  0  0
   17.0802  -10.2141   16.2125 C   0  0  0  0  0  0  0  0  0  0  0  0
   17.0137   -9.9838   14.8734 N   0  0  0  0  0  0  0  0  0  0  0  0
   17.9267  -11.2541   16.7212 N   0  0  0  0  0  0  0  0  0  0  0  0
   18.3440  -11.3493   18.1059 C   0  0  0  0  0  0  0  0  0  0  0  0
   19.3198  -12.5090   18.1600 C   0  0  0  0  0  0  0  0  0  0  0  0
   19.1748  -13.2568   16.8416 C   0  0  0  0  0  0  0  0  0  0  0  0
   18.4511  -12.3203   15.8933 C   0  0  0  0  0  0  0  0  0  0  0  0
   14.6853   -7.5787   17.4263 C   0  0  0  0  0  0  0  0  0  0  0  0
   13.6777   -6.9813   16.9594 O   0  0  0  0  0  0  0  0  0  0  0  0
   15.0309   -7.4308   18.8075 N   0  0  0  0  0  0  0  0  0  0  0  0
   15.8374   -7.8847   19.1433 H   0  0  0  0  0  0  0  0  0  0  0  0
   14.2390   -6.6370   19.7366 C   0  0  0  0  0  0  0  0  0  0  0  0
   12.9116   -6.2502   19.1054 C   0  0  0  0  0  0  0  0  0  0  0  0
   12.5830   -4.8169   19.4466 C   0  0  0  0  0  0  0  0  0  0  0  0
   11.1055   -4.8375   19.6974 C   0  0  0  0  0  0  0  0  0  0  0  0
   10.7225   -6.2868   19.5077 C   0  0  0  0  0  0  0  0  0  0  0  0
   11.8836   -7.0680   19.5971 O   0  0  0  0  0  0  0  0  0  0  0  0
   16.1446   -8.7509   12.8870 C   0  0  0  0  0  0  0  0  0  0  0  0
   16.5382   -9.9661   12.0592 C   0  0  0  0  0  0  0  0  0  0  0  0
   14.6482  -10.4946    9.8312 C   0  0  0  0  0  0  0  0  0  0  0  0
   15.9437   -9.7916    9.6042 C   0  0  0  0  0  0  0  0  0  0  0  0
   16.2591   -9.3766    8.3481 N   0  0  0  0  0  0  0  0  0  0  0  0
   17.4256   -8.7307    8.0921 C   0  0  0  0  0  0  0  0  0  0  0  0
   17.7360   -8.3098    6.7964 C   0  0  0  0  0  0  0  0  0  0  0  0
   18.9419   -7.6439    6.5518 C   0  0  0  0  0  0  0  0  0  0  0  0
   19.8360   -7.3987    7.6006 C   0  0  0  0  0  0  0  0  0  0  0  0
   19.5290   -7.8184    8.8994 C   0  0  0  0  0  0  0  0  0  0  0  0
   18.3259   -8.4843    9.1479 C   0  0  0  0  0  0  0  0  0  0  0  0
   18.0115   -8.8982   10.4020 N   0  0  0  0  0  0  0  0  0  0  0  0
   16.8454   -9.5508   10.6585 C   0  0  0  0  0  0  0  0  0  0  0  0
 24 25  1  0  0  0
 25 26  2  0  0  0
 26 27  1  0  0  0
 27 28  2  0  0  0
 28 29  1  0  0  0
 29 30  2  0  0  0
 30 31  1  0  0  0
 31 32  2  0  0  0
 32 33  1  0  0  0
 32 27  1  0  0  0
 33 34  2  0  0  0
 34 23  1  0  0  0
 34 25  1  0  0  0
 23 22  1  0  0  0
 22  1  1  0  0  0
  1  2  2  0  0  0
  2  3  1  0  0  0
  3 12  1  0  0  0
  3  4  2  0  0  0
 12 13  2  0  0  0
 12 14  1  0  0  0
 14 16  1  0  0  0
 17 16  1  0  0  0
 17 18  1  0  0  0
 18 19  1  0  0  0
 19 20  1  0  0  0
 20 21  1  0  0  0
 21 17  1  0  0  0
  4  5  1  0  0  0
  5  7  1  0  0  0
  5  6  2  0  0  0
  7  8  1  0  0  0
  8  9  1  0  0  0
  9 10  1  0  0  0
 10 11  1  0  0  0
 11  7  1  0  0  0
  6  1  1  0  0  0
 14 15  1  0  0  0
M  END
>  <minimizedAffinity>
-2.98547

>  <minimizedRMSD>
1.46897

$$$$
CHEMBL3798406 PubChem-127047270


 34 38  0  0  0  0  0  0  0  0999 V2000
   16.3451   -9.5573   12.6906 N   0  0  0  0  0  0  0  0  0  0  0  0
   17.7111   -9.8593   13.1245 C   0  0  0  0  0  0  0  0  0  0  0  0
   17.9303   -9.4667   14.5865 C   0  0  0  0  0  0  0  0  0  0  0  0
   16.8579  -10.0496   15.5525 C   0  0  0  0  0  0  0  0  0  0  0  0
   15.4669  -10.1661   14.8811 C   0  0  0  0  0  0  0  0  0  0  0  0
   15.3145   -9.2431   13.6767 C   0  0  0  0  0  0  0  0  0  0  0  0
   14.7367  -10.4123   11.0930 N   0  0  0  0  0  0  0  0  0  0  0  0
   14.3345  -10.7209    9.8215 C   0  0  0  0  0  0  0  0  0  0  0  0
   15.1437  -10.4564    8.7548 N   0  0  0  0  0  0  0  0  0  0  0  0
   16.3488   -9.8806    8.9802 C   0  0  0  0  0  0  0  0  0  0  0  0
   16.7700   -9.5566   10.2436 C   0  0  0  0  0  0  0  0  0  0  0  0
   15.9514   -9.8383   11.3428 C   0  0  0  0  0  0  0  0  0  0  0  0
   17.9843   -8.9265   10.0842 C   0  0  0  0  0  0  0  0  0  0  0  0
   18.2409   -8.9550    8.7222 C   0  0  0  0  0  0  0  0  0  0  0  0
   17.2285   -9.5204    8.0243 N   0  0  0  0  0  0  0  0  0  0  0  0
   19.4320   -8.2912    8.1030 C   0  0  0  0  0  0  0  0  0  0  0  0
   20.5158   -8.0351    9.1594 C   0  0  0  0  0  0  0  0  0  0  0  0
   19.9174   -7.3921   10.4179 C   0  0  0  0  0  0  0  0  0  0  0  0
   18.9153   -8.3345   11.0978 C   0  0  0  0  0  0  0  0  0  0  0  0
   17.1525   -9.6400    7.0501 H   0  0  0  0  0  0  0  0  0  0  0  0
   16.6820   -9.0711   16.6965 C   0  0  0  0  0  0  0  0  0  0  0  0
   17.6817   -8.4256   17.1170 O   0  0  0  0  0  0  0  0  0  0  0  0
   15.3823   -8.8460   17.2666 N   0  0  0  0  0  0  0  0  0  0  0  0
   14.6354   -9.3513   16.8715 H   0  0  0  0  0  0  0  0  0  0  0  0
   15.0570   -7.9641   18.3493 C   0  0  0  0  0  0  0  0  0  0  0  0
   15.9372   -7.8775   19.4336 C   0  0  0  0  0  0  0  0  0  0  0  0
   15.6565   -7.0269   20.5073 C   0  0  0  0  0  0  0  0  0  0  0  0
   14.4912   -6.2558   20.5018 C   0  0  0  0  0  0  0  0  0  0  0  0
   13.6070   -6.3351   19.4228 C   0  0  0  0  0  0  0  0  0  0  0  0
   13.8890   -7.1859   18.3501 C   0  0  0  0  0  0  0  0  0  0  0  0
   16.5144   -6.9504   21.5526 F   0  0  0  0  0  0  0  0  0  0  0  0
   17.2613  -11.3851   16.0712 N   0  0  0  0  0  0  0  0  0  0  0  0
   18.1069  -12.0976   15.1175 C   0  0  0  0  0  0  0  0  0  0  0  0
   18.0408  -11.2732   17.3026 C   0  0  0  0  0  0  0  0  0  0  0  0
  7  8  2  0  0  0
  8  9  1  0  0  0
  9 10  2  0  0  0
 10 11  1  0  0  0
 11 12  2  0  0  0
 12  1  1  0  0  0
  1  2  1  0  0  0
  2  3  1  0  0  0
  3  4  1  0  0  0
  4  5  1  0  0  0
  5  6  1  0  0  0
  4 32  1  0  0  0
 32 33  1  0  0  0
 32 34  1  0  0  0
  4 21  1  0  0  0
 21 22  2  0  0  0
 21 23  1  0  0  0
 23 25  1  0  0  0
 25 26  2  0  0  0
 26 27  1  0  0  0
 27 28  2  0  0  0
 28 29  1  0  0  0
 29 30  2  0  0  0
 27 31  1  0  0  0
 11 13  1  0  0  0
 13 14  2  0  0  0
 14 15  1  0  0  0
 14 16  1  0  0  0
 16 17  1  0  0  0
 17 18  1  0  0  0
 18 19  1  0  0  0
 12  7  1  0  0  0
  6  1  1  0  0  0
 30 25  1  0  0  0
 19 13  1  0  0  0
 15 10  1  0  0  0
 23 24  1  0  0  0
 15 20  1  0  0  0
M  END
>  <minimizedAffinity>
-0.96008

>  <minimizedRMSD>
1.47332

$$$$
CHEMBL2079588 590964 LN01342086 MCULE-2706634959 MCULE-6157972879 MCULE-6849264280 MolPort-016-633-360 MolPort-047-152-813 PubChem-10174079 PubChem-10239879 PubChem-10311744 PubChem-159056270 PubChem-160684431 PubChem-166465388 PubChem-87613062 PubChem-9808843 PubChem-9808844 PubChem-9870815 PubChem-9935325 PubChem-9936039 PubChem-9936487 PubChem-9956915 PubChem-9959987 ZINC000000590964


 31 34  0  0  0  0  0  0  0  0999 V2000
   17.2007   -9.7458   10.5046 C   0  0  0  0  0  0  0  0  0  0  0  0
   18.3187   -8.9977   10.1245 C   0  0  0  0  0  0  0  0  0  0  0  0
   19.3781   -8.6911   10.8254 O   0  0  0  0  0  0  0  0  0  0  0  0
   20.1608   -7.9355   10.0765 C   0  0  0  0  0  0  0  0  0  0  0  0
   19.5834   -7.7371    8.8210 C   0  0  0  0  0  0  0  0  0  0  0  0
   18.4028   -8.4488    8.8837 C   0  0  0  0  0  0  0  0  0  0  0  0
   17.3699   -8.6211    7.9593 C   0  0  0  0  0  0  0  0  0  0  0  0
   16.2766   -9.3294    8.3654 N   0  0  0  0  0  0  0  0  0  0  0  0
   16.1991   -9.8780    9.5872 N   0  0  0  0  0  0  0  0  0  0  0  0
   17.3842   -8.0278    6.6542 N   0  0  0  0  0  0  0  0  0  0  0  0
   16.5324   -7.6664    6.3179 H   0  0  0  0  0  0  0  0  0  0  0  0
   18.5243   -7.9127    5.7949 C   0  0  0  0  0  0  0  0  0  0  0  0
   18.5481   -8.6346    4.5967 C   0  0  0  0  0  0  0  0  0  0  0  0
   19.6654   -8.5736    3.7584 C   0  0  0  0  0  0  0  0  0  0  0  0
   20.7699   -7.7978    4.1211 C   0  0  0  0  0  0  0  0  0  0  0  0
   22.1677   -7.7204    3.0707 Cl  0  0  0  0  0  0  0  0  0  0  0  0
   20.7617   -7.0904    5.3262 C   0  0  0  0  0  0  0  0  0  0  0  0
   19.6447   -7.1521    6.1640 C   0  0  0  0  0  0  0  0  0  0  0  0
   17.0606  -10.3428   11.7626 O   0  0  0  0  0  0  0  0  0  0  0  0
   18.1453  -10.8963   12.4956 C   0  0  0  0  0  0  0  0  0  0  0  0
   16.8357   -9.7319   15.8452 C   0  0  0  0  0  0  0  0  0  0  0  0
   17.2456  -10.7576   16.6430 N   0  0  0  0  0  0  0  0  0  0  0  0
   17.9371  -11.8196   16.1484 C   0  0  0  0  0  0  0  0  0  0  0  0
   18.2485  -11.8807   14.7890 C   0  0  0  0  0  0  0  0  0  0  0  0
   17.8473  -10.8388   13.9511 C   0  0  0  0  0  0  0  0  0  0  0  0
   17.1311   -9.7614   14.4761 C   0  0  0  0  0  0  0  0  0  0  0  0
   15.0735   -7.4976   18.4498 C   0  0  0  0  0  0  0  0  0  0  0  0
   15.8092   -8.5847   17.8261 N   0  0  0  0  0  0  0  0  0  0  0  0
   16.0865   -8.6060   16.4243 C   0  0  0  0  0  0  0  0  0  0  0  0
   15.6898   -7.6621   15.6869 O   0  0  0  0  0  0  0  0  0  0  0  0
   16.1263   -9.3294   18.3866 H   0  0  0  0  0  0  0  0  0  0  0  0
 27 28  1  0  0  0
 28 29  1  0  0  0
 29 30  2  0  0  0
 29 21  1  0  0  0
 21 22  2  0  0  0
 22 23  1  0  0  0
 23 24  2  0  0  0
 24 25  1  0  0  0
 25 20  1  0  0  0
 20 19  1  0  0  0
 19  1  1  0  0  0
  1  2  2  0  0  0
  2  3  1  0  0  0
  3  4  1  0  0  0
  4  5  2  0  0  0
  5  6  1  0  0  0
  6  7  2  0  0  0
  7 10  1  0  0  0
 10 12  1  0  0  0
 12 13  2  0  0  0
 13 14  1  0  0  0
 14 15  2  0  0  0
 15 16  1  0  0  0
 15 17  1  0  0  0
 17 18  2  0  0  0
  7  8  1  0  0  0
  8  9  2  0  0  0
 25 26  2  0  0  0
 26 21  1  0  0  0
  9  1  1  0  0  0
  6  2  1  0  0  0
 18 12  1  0  0  0
 28 31  1  0  0  0
 10 11  1  0  0  0
M  END
>  <minimizedAffinity>
-9.25441

>  <minimizedRMSD>
1.47492

$$$$
CHEMBL4529137 CHEMBL4595400 PubChem-129067257 PubChem-135355990


 34 37  0  0  0  0  0  0  0  0999 V2000
   17.6819  -10.6252   14.5282 C   0  0  0  0  0  0  0  0  0  0  0  0
   17.1068   -9.4700   14.9161 N   0  0  0  0  0  0  0  0  0  0  0  0
   16.7756   -9.4898   16.2371 C   0  0  0  0  0  0  0  0  0  0  0  0
   17.0853  -10.6661   16.9248 C   0  0  0  0  0  0  0  0  0  0  0  0
   17.8014  -11.7012   15.8048 S   0  0  0  0  0  0  0  0  0  0  0  0
   16.1313   -8.3406   16.8856 C   0  0  0  0  0  0  0  0  0  0  0  0
   15.7319   -7.3707   16.1859 O   0  0  0  0  0  0  0  0  0  0  0  0
   15.9619   -8.3214   18.3064 N   0  0  0  0  0  0  0  0  0  0  0  0
   16.3223   -9.0707   18.8336 H   0  0  0  0  0  0  0  0  0  0  0  0
   15.2798   -7.2419   19.0068 C   0  0  0  0  0  0  0  0  0  0  0  0
   13.7996   -7.4020   18.8902 C   0  0  0  0  0  0  0  0  0  0  0  0
   13.0580   -7.9795   19.9308 C   0  0  0  0  0  0  0  0  0  0  0  0
   11.6788   -8.1344   19.7811 C   0  0  0  0  0  0  0  0  0  0  0  0
   11.0574   -7.7181   18.6032 C   0  0  0  0  0  0  0  0  0  0  0  0
   11.8279   -7.1520   17.5860 C   0  0  0  0  0  0  0  0  0  0  0  0
   13.1708   -7.0087   17.7487 N   0  0  0  0  0  0  0  0  0  0  0  0
    9.7198   -7.8635   18.4474 F   0  0  0  0  0  0  0  0  0  0  0  0
   13.6617   -8.3880   21.0746 F   0  0  0  0  0  0  0  0  0  0  0  0
   18.1542  -10.8933   13.1411 C   0  0  0  0  0  0  0  0  0  0  0  0
   17.8384   -9.7640   12.2797 N   0  0  0  0  0  0  0  0  0  0  0  0
   18.0440   -8.8900   12.7636 H   0  0  0  0  0  0  0  0  0  0  0  0
   16.4190   -9.8323   11.9614 C   0  0  0  0  0  0  0  0  0  0  0  0
   16.1746  -10.7673   10.7829 C   0  0  0  0  0  0  0  0  0  0  0  0
   15.5803  -10.0251    9.5932 C   0  0  0  0  0  0  0  0  0  0  0  0
   19.5847   -7.8996    5.7941 C   0  0  0  0  0  0  0  0  0  0  0  0
   20.1040   -7.2793    6.9527 C   0  0  0  0  0  0  0  0  0  0  0  0
   19.4816   -7.4621    8.2016 C   0  0  0  0  0  0  0  0  0  0  0  0
   18.3477   -8.2695    8.2389 C   0  0  0  0  0  0  0  0  0  0  0  0
   17.8471   -8.8674    7.1224 C   0  0  0  0  0  0  0  0  0  0  0  0
   18.4367   -8.7103    5.8706 C   0  0  0  0  0  0  0  0  0  0  0  0
   16.7612   -9.5901    7.4302 N   0  0  0  0  0  0  0  0  0  0  0  0
   16.6475   -9.3871    8.7692 C   0  0  0  0  0  0  0  0  0  0  0  0
   17.6027   -8.5846    9.3074 N   0  0  0  0  0  0  0  0  0  0  0  0
   16.1909  -10.1306    6.8371 H   0  0  0  0  0  0  0  0  0  0  0  0
 25 26  2  0  0  0
 26 27  1  0  0  0
 27 28  2  0  0  0
 28 29  1  0  0  0
 29 30  2  0  0  0
 29 31  1  0  0  0
 31 32  1  0  0  0
 32 33  2  0  0  0
 32 24  1  0  0  0
 24 23  1  0  0  0
 23 22  1  0  0  0
 22 20  1  0  0  0
 20 19  1  0  0  0
 19  1  1  0  0  0
  1  2  2  0  0  0
  2  3  1  0  0  0
  3  4  2  0  0  0
  4  5  1  0  0  0
  3  6  1  0  0  0
  6  7  2  0  0  0
  6  8  1  0  0  0
  8 10  1  0  0  0
 10 11  1  0  0  0
 11 12  2  0  0  0
 12 13  1  0  0  0
 13 14  2  0  0  0
 14 15  1  0  0  0
 15 16  2  0  0  0
 14 17  1  0  0  0
 12 18  1  0  0  0
 30 25  1  0  0  0
 33 28  1  0  0  0
  5  1  1  0  0  0
 16 11  1  0  0  0
 31 34  1  0  0  0
 20 21  1  0  0  0
  8  9  1  0  0  0
M  END
>  <minimizedAffinity>
-7.83115

>  <minimizedRMSD>
1.47860

$$$$
CHEMBL3951623 PubChem-127053796


 36 40  0  0  0  0  0  0  0  0999 V2000
   15.8707   -8.8935   17.2161 C   0  0  0  0  0  0  0  0  0  0  0  0
   15.6836   -8.9197   15.8303 C   0  0  0  0  0  0  0  0  0  0  0  0
   16.3799   -9.8375   15.0430 C   0  0  0  0  0  0  0  0  0  0  0  0
   17.2776  -10.7537   15.6167 C   0  0  0  0  0  0  0  0  0  0  0  0
   17.4687  -10.7167   17.0172 C   0  0  0  0  0  0  0  0  0  0  0  0
   18.3503  -11.5410   17.6346 F   0  0  0  0  0  0  0  0  0  0  0  0
   16.7687   -9.7938   17.8000 C   0  0  0  0  0  0  0  0  0  0  0  0
   15.0882   -8.0987   19.4698 N   0  0  0  0  0  0  0  0  0  0  0  0
   15.1361   -7.9272   18.0509 C   0  0  0  0  0  0  0  0  0  0  0  0
   14.5470   -6.9487   17.5147 O   0  0  0  0  0  0  0  0  0  0  0  0
   15.5574   -8.8643   19.8736 H   0  0  0  0  0  0  0  0  0  0  0  0
   14.4516   -7.6480   21.7761 C   0  0  0  0  0  0  0  0  0  0  0  0
   14.3679   -7.1775   20.3354 C   0  0  0  0  0  0  0  0  0  0  0  0
   12.9468   -7.0464   19.8891 C   0  0  0  0  0  0  0  0  0  0  0  0
   12.3410   -5.7852   19.9010 C   0  0  0  0  0  0  0  0  0  0  0  0
   11.0160   -5.6377   19.4794 C   0  0  0  0  0  0  0  0  0  0  0  0
   10.2927   -6.7514   19.0426 C   0  0  0  0  0  0  0  0  0  0  0  0
   10.8938   -8.0134   19.0262 C   0  0  0  0  0  0  0  0  0  0  0  0
   12.2185   -8.1619   19.4475 C   0  0  0  0  0  0  0  0  0  0  0  0
   17.9858  -11.6986   14.7749 N   0  0  0  0  0  0  0  0  0  0  0  0
   17.9542  -13.1258   15.0569 C   0  0  0  0  0  0  0  0  0  0  0  0
   18.7541  -11.3024   13.5923 C   0  0  0  0  0  0  0  0  0  0  0  0
   19.3482   -9.9072   13.7435 C   0  0  0  0  0  0  0  0  0  0  0  0
   19.0914   -9.1931   12.4295 C   0  0  0  0  0  0  0  0  0  0  0  0
   18.1883  -10.0432   11.6743 N   0  0  0  0  0  0  0  0  0  0  0  0
   17.9040  -11.3015   12.3348 C   0  0  0  0  0  0  0  0  0  0  0  0
   17.6139   -9.7009   10.4007 C   0  0  0  0  0  0  0  0  0  0  0  0
   16.4052  -10.2261   10.0346 N   0  0  0  0  0  0  0  0  0  0  0  0
   15.8219   -9.9245    8.8335 C   0  0  0  0  0  0  0  0  0  0  0  0
   16.4391   -9.0796    7.9577 N   0  0  0  0  0  0  0  0  0  0  0  0
   17.6364   -8.5510    8.3062 C   0  0  0  0  0  0  0  0  0  0  0  0
   18.3631   -7.7089    7.5605 N   0  0  0  0  0  0  0  0  0  0  0  0
   19.4623   -7.4573    8.3138 C   0  0  0  0  0  0  0  0  0  0  0  0
   19.4250   -8.1410    9.5316 C   0  0  0  0  0  0  0  0  0  0  0  0
   18.2360   -8.8352    9.4928 C   0  0  0  0  0  0  0  0  0  0  0  0
   18.1482   -7.3533    6.6680 H   0  0  0  0  0  0  0  0  0  0  0  0
 13 12  1  0  0  0
 13  8  1  0  0  0
  8  9  1  0  0  0
  9 10  2  0  0  0
  9  1  1  0  0  0
  1  2  2  0  0  0
  2  3  1  0  0  0
  3  4  2  0  0  0
  4 20  1  0  0  0
 20 21  1  0  0  0
 22 20  1  0  0  0
 22 23  1  0  0  0
 23 24  1  0  0  0
 24 25  1  0  0  0
 25 26  1  0  0  0
 25 27  1  0  0  0
 27 28  2  0  0  0
 28 29  1  0  0  0
 29 30  2  0  0  0
 30 31  1  0  0  0
 31 32  1  0  0  0
 32 33  1  0  0  0
 33 34  2  0  0  0
 34 35  1  0  0  0
  4  5  1  0  0  0
  5  6  1  0  0  0
  5  7  2  0  0  0
 13 14  1  0  0  0
 14 15  2  0  0  0
 15 16  1  0  0  0
 16 17  2  0  0  0
 17 18  1  0  0  0
 18 19  2  0  0  0
  7  1  1  0  0  0
 19 14  1  0  0  0
 26 22  1  0  0  0
 35 27  1  0  0  0
 35 31  2  0  0  0
  8 11  1  0  0  0
 32 36  1  0  0  0
M  END
>  <minimizedAffinity>
-7.19546

>  <minimizedRMSD>
1.48018

$$$$
CHEMBL1881576 ChemDiv-G756-0119 MCULE-4978438094 MolPort-007-878-990 PubChem-16030536 ZINC000008619685 ZINC08619685


 30 33  0  0  0  0  0  0  0  0999 V2000
   15.8439   -8.4726   17.1075 C   0  0  0  0  0  0  0  0  0  0  0  0
   15.9704   -8.4118   15.7114 C   0  0  0  0  0  0  0  0  0  0  0  0
   16.7277   -9.3631   15.0208 C   0  0  0  0  0  0  0  0  0  0  0  0
   17.3649  -10.3883   15.7374 C   0  0  0  0  0  0  0  0  0  0  0  0
   17.2420  -10.4556   17.1272 C   0  0  0  0  0  0  0  0  0  0  0  0
   16.4832   -9.5003   17.8084 C   0  0  0  0  0  0  0  0  0  0  0  0
   13.6885   -7.6201   18.2118 C   0  0  0  0  0  0  0  0  0  0  0  0
   13.0037   -8.6073   17.8278 O   0  0  0  0  0  0  0  0  0  0  0  0
   15.0709   -7.5144   17.8429 N   0  0  0  0  0  0  0  0  0  0  0  0
   15.5393   -6.6957   18.1250 H   0  0  0  0  0  0  0  0  0  0  0  0
   14.4264   -7.4072   21.4513 Br  0  0  0  0  0  0  0  0  0  0  0  0
   13.2848   -6.3119   20.3691 C   0  0  0  0  0  0  0  0  0  0  0  0
   13.0316   -6.5471   18.9936 C   0  0  0  0  0  0  0  0  0  0  0  0
   12.1097   -5.7233   18.3273 C   0  0  0  0  0  0  0  0  0  0  0  0
   11.4640   -4.6805   18.9933 C   0  0  0  0  0  0  0  0  0  0  0  0
   11.7275   -4.4479   20.3421 C   0  0  0  0  0  0  0  0  0  0  0  0
   12.6299   -5.2635   21.0253 C   0  0  0  0  0  0  0  0  0  0  0  0
   16.8296   -9.2670   13.6308 O   0  0  0  0  0  0  0  0  0  0  0  0
   17.8858   -9.8701   12.8949 C   0  0  0  0  0  0  0  0  0  0  0  0
   17.7011   -9.5990   11.4448 C   0  0  0  0  0  0  0  0  0  0  0  0
   16.5713  -10.0748   10.7862 C   0  0  0  0  0  0  0  0  0  0  0  0
   16.4098   -9.7830    9.4326 C   0  0  0  0  0  0  0  0  0  0  0  0
   15.3884  -10.2172    8.8324 O   0  0  0  0  0  0  0  0  0  0  0  0
   17.3488   -9.0351    8.7739 N   0  0  0  0  0  0  0  0  0  0  0  0
   17.1893   -8.7495    7.4469 C   0  0  0  0  0  0  0  0  0  0  0  0
   18.1354   -7.9859    6.7610 C   0  0  0  0  0  0  0  0  0  0  0  0
   19.2542   -7.5112    7.4429 C   0  0  0  0  0  0  0  0  0  0  0  0
   19.4165   -7.8026    8.7960 C   0  0  0  0  0  0  0  0  0  0  0  0
   18.4527   -8.5699    9.4542 C   0  0  0  0  0  0  0  0  0  0  0  0
   18.6130   -8.8524   10.7730 N   0  0  0  0  0  0  0  0  0  0  0  0
 11 12  1  0  0  0
 12 13  2  0  0  0
 13 14  1  0  0  0
 13  7  1  0  0  0
 14 15  2  0  0  0
 15 16  1  0  0  0
 16 17  2  0  0  0
 17 12  1  0  0  0
  7  8  2  0  0  0
  7  9  1  0  0  0
  9  1  1  0  0  0
  1  2  2  0  0  0
  2  3  1  0  0  0
  3 18  1  0  0  0
  3  4  2  0  0  0
 18 19  1  0  0  0
 19 20  1  0  0  0
 20 21  2  0  0  0
 21 22  1  0  0  0
 22 23  2  0  0  0
 22 24  1  0  0  0
 24 25  1  0  0  0
 25 26  2  0  0  0
 26 27  1  0  0  0
 27 28  2  0  0  0
 28 29  1  0  0  0
 29 30  2  0  0  0
 29 24  1  0  0  0
 30 20  1  0  0  0
  4  5  1  0  0  0
  5  6  2  0  0  0
  6  1  1  0  0  0
  9 10  1  0  0  0
M  END
>  <minimizedAffinity>
-8.53271

>  <minimizedRMSD>
1.48906

$$$$
CHEMBL3315203 PubChem-118708038


 33 36  0  0  0  0  0  0  0  0999 V2000
   16.9558   -9.4976   12.4049 C   0  0  0  0  0  0  0  0  0  0  0  0
   16.6756   -8.2835   13.0824 C   0  0  0  0  0  0  0  0  0  0  0  0
   16.8126   -8.1783   14.4770 C   0  0  0  0  0  0  0  0  0  0  0  0
   17.2283   -9.3140   15.1692 C   0  0  0  0  0  0  0  0  0  0  0  0
   17.4889  -10.4927   14.5331 C   0  0  0  0  0  0  0  0  0  0  0  0
   17.3603  -10.6262   13.1538 C   0  0  0  0  0  0  0  0  0  0  0  0
   17.8561  -11.4279   15.4812 C   0  0  0  0  0  0  0  0  0  0  0  0
   17.7956  -10.7373   16.6960 C   0  0  0  0  0  0  0  0  0  0  0  0
   17.4202   -9.4542   16.4881 N   0  0  0  0  0  0  0  0  0  0  0  0
   16.7814   -9.6153   10.9314 C   0  0  0  0  0  0  0  0  0  0  0  0
   15.6978  -10.3666   10.4487 C   0  0  0  0  0  0  0  0  0  0  0  0
   15.4734  -10.5008    9.1154 N   0  0  0  0  0  0  0  0  0  0  0  0
   16.2835   -9.9221    8.1935 C   0  0  0  0  0  0  0  0  0  0  0  0
   17.3828   -9.1715    8.6024 C   0  0  0  0  0  0  0  0  0  0  0  0
   17.6479   -9.0122    9.9844 C   0  0  0  0  0  0  0  0  0  0  0  0
   18.7840   -8.2808   10.3684 C   0  0  0  0  0  0  0  0  0  0  0  0
   19.6226   -7.7062    9.4095 C   0  0  0  0  0  0  0  0  0  0  0  0
   19.3408   -7.8599    8.0506 C   0  0  0  0  0  0  0  0  0  0  0  0
   18.2234   -8.5936    7.6471 C   0  0  0  0  0  0  0  0  0  0  0  0
   17.1980   -8.4545   17.5231 C   0  0  0  0  0  0  0  0  0  0  0  0
   15.7454   -8.3634   17.8390 C   0  0  0  0  0  0  0  0  0  0  0  0
   14.9128   -8.9714   17.1151 O   0  0  0  0  0  0  0  0  0  0  0  0
   15.3171   -7.6225   18.9877 N   0  0  0  0  0  0  0  0  0  0  0  0
   16.0045   -7.1404   19.5018 H   0  0  0  0  0  0  0  0  0  0  0  0
   13.9317   -7.5296   19.4536 C   0  0  0  0  0  0  0  0  0  0  0  0
   12.9490   -7.5173   18.3190 C   0  0  0  0  0  0  0  0  0  0  0  0
   11.9797   -8.3217   18.2869 O   0  0  0  0  0  0  0  0  0  0  0  0
   13.1002   -6.5918   17.2944 O   0  0  0  0  0  0  0  0  0  0  0  0
   13.8177   -5.9894   17.3093 H   0  0  0  0  0  0  0  0  0  0  0  0
   13.7276   -6.3244   20.3677 C   0  0  0  0  0  0  0  0  0  0  0  0
   12.3815   -6.3887   21.0712 C   0  0  0  0  0  0  0  0  0  0  0  0
   12.5747   -6.1070   22.5458 C   0  0  0  0  0  0  0  0  0  0  0  0
   11.4350   -5.3573   20.4872 C   0  0  0  0  0  0  0  0  0  0  0  0
  1  2  2  0  0  0
  2  3  1  0  0  0
  3  4  2  0  0  0
  4  5  1  0  0  0
  5  6  2  0  0  0
  5  7  1  0  0  0
  7  8  2  0  0  0
  8  9  1  0  0  0
  9 20  1  0  0  0
 20 21  1  0  0  0
 21 22  2  0  0  0
 21 23  1  0  0  0
 23 25  1  0  0  0
 25 26  1  0  0  0
 26 27  2  0  0  0
 26 28  1  0  0  0
 25 30  1  0  0  0
 30 31  1  0  0  0
 31 32  1  0  0  0
 31 33  1  0  0  0
  1 10  1  0  0  0
 10 11  2  0  0  0
 11 12  1  0  0  0
 12 13  2  0  0  0
 13 14  1  0  0  0
 14 15  2  0  0  0
 15 16  1  0  0  0
 16 17  2  0  0  0
 17 18  1  0  0  0
 18 19  2  0  0  0
  6  1  1  0  0  0
 15 10  1  0  0  0
  9  4  1  0  0  0
 19 14  1  0  0  0
 23 24  1  0  0  0
 28 29  1  0  0  0
M  END
>  <minimizedAffinity>
-7.14066

>  <minimizedRMSD>
1.49189

$$$$
CHEMBL1642565 PubChem-53321174


 36 40  0  0  0  0  0  0  0  0999 V2000
   17.6390  -10.3703   13.0315 C   0  0  0  0  0  0  0  0  0  0  0  0
   17.5879  -11.7040   13.4603 C   0  0  0  0  0  0  0  0  0  0  0  0
   17.6311  -12.0117   14.8254 C   0  0  0  0  0  0  0  0  0  0  0  0
   17.7261  -10.9856   15.7692 C   0  0  0  0  0  0  0  0  0  0  0  0
   17.7632   -9.6447   15.3480 C   0  0  0  0  0  0  0  0  0  0  0  0
   17.7238   -9.3433   13.9805 C   0  0  0  0  0  0  0  0  0  0  0  0
   17.2956   -9.0563    6.9822 C   0  0  0  0  0  0  0  0  0  0  0  0
   16.5870   -9.7561    7.9323 N   0  0  0  0  0  0  0  0  0  0  0  0
   17.0133   -9.7595    9.2375 C   0  0  0  0  0  0  0  0  0  0  0  0
   16.3473  -10.5848   10.5350 S   0  0  0  0  0  0  0  0  0  0  0  0
   17.5703  -10.0443   11.5969 C   0  0  0  0  0  0  0  0  0  0  0  0
   18.4757   -9.2431   10.9711 N   0  0  0  0  0  0  0  0  0  0  0  0
   18.1542   -9.0907    9.6583 C   0  0  0  0  0  0  0  0  0  0  0  0
   18.8679   -8.3795    8.6947 C   0  0  0  0  0  0  0  0  0  0  0  0
   18.4481   -8.3600    7.3897 C   0  0  0  0  0  0  0  0  0  0  0  0
   19.3055   -7.6446    6.6355 N   0  0  0  0  0  0  0  0  0  0  0  0
   20.2543   -7.2440    7.5359 C   0  0  0  0  0  0  0  0  0  0  0  0
   20.0086   -7.6874    8.7945 N   0  0  0  0  0  0  0  0  0  0  0  0
   20.7875   -7.3907    9.9857 C   0  0  0  0  0  0  0  0  0  0  0  0
   16.9007   -9.0710    5.6073 N   0  0  0  0  0  0  0  0  0  0  0  0
   15.9777   -8.8233    5.3707 H   0  0  0  0  0  0  0  0  0  0  0  0
   18.1503   -8.2311    3.7152 C   0  0  0  0  0  0  0  0  0  0  0  0
   17.8262   -9.4418    4.5518 C   0  0  0  0  0  0  0  0  0  0  0  0
   17.8703   -8.5277   16.3390 C   0  0  0  0  0  0  0  0  0  0  0  0
   19.2452   -8.4825   16.9787 C   0  0  0  0  0  0  0  0  0  0  0  0
   16.8327   -8.6340   17.3683 N   0  0  0  0  0  0  0  0  0  0  0  0
   15.5465   -8.0140   17.2161 C   0  0  0  0  0  0  0  0  0  0  0  0
   15.2774   -7.3494   16.1698 O   0  0  0  0  0  0  0  0  0  0  0  0
   17.0229   -9.1452   18.1879 H   0  0  0  0  0  0  0  0  0  0  0  0
   14.5423   -8.1142   18.3223 C   0  0  0  0  0  0  0  0  0  0  0  0
   13.2944   -7.2780   18.0051 C   0  0  0  0  0  0  0  0  0  0  0  0
   12.7864   -6.5335   19.2449 C   0  0  0  0  0  0  0  0  0  0  0  0
   12.8094   -7.4306   20.3930 N   0  0  0  0  0  0  0  0  0  0  0  0
   14.1986   -7.6921   20.8015 C   0  0  0  0  0  0  0  0  0  0  0  0
   15.2013   -7.7094   19.6391 C   0  0  0  0  0  0  0  0  0  0  0  0
   12.3598   -8.3112   20.1423 H   0  0  0  0  0  0  0  0  0  0  0  0
 22 23  1  0  0  0
 23 20  1  0  0  0
 20  7  1  0  0  0
  7  8  2  0  0  0
  8  9  1  0  0  0
  9 10  1  0  0  0
 10 11  1  0  0  0
 11  1  1  0  0  0
 11 12  2  0  0  0
  1  2  2  0  0  0
  2  3  1  0  0  0
  3  4  2  0  0  0
  4  5  1  0  0  0
  5  6  2  0  0  0
 24  5  1  0  0  0
 24 25  1  0  0  0
 24 26  1  0  0  0
 26 27  1  0  0  0
 27 28  2  0  0  0
 27 30  1  0  0  0
 30 31  1  0  0  0
 31 32  1  0  0  0
 32 33  1  0  0  0
 33 34  1  0  0  0
 34 35  1  0  0  0
 35 30  1  0  0  0
  6  1  1  0  0  0
 12 13  1  0  0  0
 13 14  1  0  0  0
 13  9  2  0  0  0
 14 15  2  0  0  0
 15 16  1  0  0  0
 15  7  1  0  0  0
 16 17  2  0  0  0
 17 18  1  0  0  0
 18 19  1  0  0  0
 18 14  1  0  0  0
 20 21  1  0  0  0
 26 29  1  0  0  0
 33 36  1  0  0  0
M  END
>  <minimizedAffinity>
-0.40663

>  <minimizedRMSD>
1.49527

$$$$
CHEMBL5081099 PubChem-72949557


 36 41  0  0  0  0  0  0  0  0999 V2000
   14.3613   -6.3599   20.6170 C   0  0  0  0  0  0  0  0  0  0  0  0
   15.4719   -7.1722   20.3084 C   0  0  0  0  0  0  0  0  0  0  0  0
   15.4961   -7.7780   19.0556 C   0  0  0  0  0  0  0  0  0  0  0  0
   14.4995   -7.6007   18.1466 C   0  0  0  0  0  0  0  0  0  0  0  0
   13.3884   -6.8042   18.4121 C   0  0  0  0  0  0  0  0  0  0  0  0
   13.3287   -6.1764   19.6706 C   0  0  0  0  0  0  0  0  0  0  0  0
   14.7677   -8.2835   17.0250 N   0  0  0  0  0  0  0  0  0  0  0  0
   15.9626   -8.8673   17.3133 C   0  0  0  0  0  0  0  0  0  0  0  0
   16.4431   -8.5814   18.5543 N   0  0  0  0  0  0  0  0  0  0  0  0
   17.2775   -8.8882   18.9772 H   0  0  0  0  0  0  0  0  0  0  0  0
   16.6821   -9.7261   16.3583 C   0  0  0  0  0  0  0  0  0  0  0  0
   16.5868   -9.4883   14.9811 C   0  0  0  0  0  0  0  0  0  0  0  0
   17.2770  -10.2937   14.0691 C   0  0  0  0  0  0  0  0  0  0  0  0
   18.0745  -11.3530   14.5386 C   0  0  0  0  0  0  0  0  0  0  0  0
   18.1708  -11.5904   15.9130 C   0  0  0  0  0  0  0  0  0  0  0  0
   17.4787  -10.7823   16.8187 C   0  0  0  0  0  0  0  0  0  0  0  0
   18.9703  -12.3934   13.4399 Cl  0  0  0  0  0  0  0  0  0  0  0  0
   17.1622  -10.0086   12.6636 C   0  0  0  0  0  0  0  0  0  0  0  0
   17.0654   -9.7700   11.4858 C   0  0  0  0  0  0  0  0  0  0  0  0
   16.9522   -9.4893   10.0812 C   0  0  0  0  0  0  0  0  0  0  0  0
   15.9263   -9.8896    9.2361 C   0  0  0  0  0  0  0  0  0  0  0  0
   16.1891   -9.4282    7.9825 N   0  0  0  0  0  0  0  0  0  0  0  0
   17.3563   -8.7660    8.1109 C   0  0  0  0  0  0  0  0  0  0  0  0
   17.8324   -8.7914    9.3576 N   0  0  0  0  0  0  0  0  0  0  0  0
   18.9656   -8.2037    9.7370 N   0  0  0  0  0  0  0  0  0  0  0  0
   19.7030   -7.5354    8.8053 C   0  0  0  0  0  0  0  0  0  0  0  0
   19.2569   -7.4824    7.4696 C   0  0  0  0  0  0  0  0  0  0  0  0
   18.0564   -8.1126    7.1028 C   0  0  0  0  0  0  0  0  0  0  0  0
   14.2819   -5.6611   21.9340 C   0  0  0  0  0  0  0  0  0  0  0  0
    9.5823   -3.2916   23.4680 C   0  0  0  0  0  0  0  0  0  0  0  0
   10.6815   -4.0502   22.9005 N   0  0  0  0  0  0  0  0  0  0  0  0
   11.3053   -4.7830   24.0063 C   0  0  0  0  0  0  0  0  0  0  0  0
   12.6992   -5.3101   23.6307 C   0  0  0  0  0  0  0  0  0  0  0  0
   12.9252   -5.2026   22.1889 N   0  0  0  0  0  0  0  0  0  0  0  0
   12.8787   -3.7877   21.8042 C   0  0  0  0  0  0  0  0  0  0  0  0
   11.6347   -3.0798   22.3659 C   0  0  0  0  0  0  0  0  0  0  0  0
 30 31  1  0  0  0
 31 32  1  0  0  0
 32 33  1  0  0  0
 33 34  1  0  0  0
 34 35  1  0  0  0
 34 29  1  0  0  0
 35 36  1  0  0  0
 36 31  1  0  0  0
 29  1  1  0  0  0
  1  2  2  0  0  0
  2  3  1  0  0  0
  3  4  2  0  0  0
  4  5  1  0  0  0
  4  7  1  0  0  0
  5  6  2  0  0  0
  6  1  1  0  0  0
  7  8  2  0  0  0
  8  9  1  0  0  0
  8 11  1  0  0  0
  9  3  1  0  0  0
 11 12  2  0  0  0
 12 13  1  0  0  0
 13 14  2  0  0  0
 13 18  1  0  0  0
 14 15  1  0  0  0
 14 17  1  0  0  0
 15 16  2  0  0  0
 16 11  1  0  0  0
 18 19  3  0  0  0
 19 20  1  0  0  0
 20 21  2  0  0  0
 21 22  1  0  0  0
 22 23  2  0  0  0
 23 24  1  0  0  0
 24 25  1  0  0  0
 24 20  1  0  0  0
 25 26  2  0  0  0
 26 27  1  0  0  0
 27 28  2  0  0  0
 28 23  1  0  0  0
  9 10  1  0  0  0
M  END
>  <minimizedAffinity>
-9.88899

>  <minimizedRMSD>
1.49644

$$$$
CHEMBL1717396


 31 33  0  0  0  0  0  0  0  0999 V2000
   16.4634  -10.3708   12.0679 C   0  0  0  0  0  0  0  0  0  0  0  0
   15.3853   -9.8199   12.4175 O   0  0  0  0  0  0  0  0  0  0  0  0
   17.4657  -10.7050   13.0357 N   0  0  0  0  0  0  0  0  0  0  0  0
   18.3163  -11.0582   12.6879 H   0  0  0  0  0  0  0  0  0  0  0  0
   17.3552  -10.5771   14.4597 C   0  0  0  0  0  0  0  0  0  0  0  0
   18.0758  -11.4573   15.2733 C   0  0  0  0  0  0  0  0  0  0  0  0
   17.9831  -11.3697   16.6659 C   0  0  0  0  0  0  0  0  0  0  0  0
   17.1633  -10.4017   17.2534 C   0  0  0  0  0  0  0  0  0  0  0  0
   16.4327   -9.5220   16.4490 C   0  0  0  0  0  0  0  0  0  0  0  0
   16.5299   -9.6111   15.0564 C   0  0  0  0  0  0  0  0  0  0  0  0
   15.4035   -8.3020   17.1767 S   0  0  0  0  0  0  0  0  0  0  0  0
   16.0497   -7.8249   18.7055 N   0  0  0  0  0  0  0  0  0  0  0  0
   14.0249   -8.8641   17.3836 O   0  0  0  0  0  0  0  0  0  0  0  0
   15.3291   -7.1025   16.2742 O   0  0  0  0  0  0  0  0  0  0  0  0
   16.1017   -8.6366   19.3210 H   0  0  0  0  0  0  0  0  0  0  0  0
   15.4451   -7.1185   19.1248 H   0  0  0  0  0  0  0  0  0  0  0  0
   16.7302  -10.6830   10.6280 C   0  0  0  0  0  0  0  0  0  0  0  0
   15.6013   -9.8139    9.4873 S   0  0  0  0  0  0  0  0  0  0  0  0
   20.3588   -7.4441    3.6112 C   0  0  0  0  0  0  0  0  0  0  0  0
   19.5872   -7.8279    4.8260 C   0  0  0  0  0  0  0  0  0  0  0  0
   18.0652   -8.5668    4.7920 S   0  0  0  0  0  0  0  0  0  0  0  0
   17.9268   -8.6442    6.4621 C   0  0  0  0  0  0  0  0  0  0  0  0
   16.8906   -9.1553    7.1683 N   0  0  0  0  0  0  0  0  0  0  0  0
   16.9503   -9.1359    8.5299 C   0  0  0  0  0  0  0  0  0  0  0  0
   18.0379   -8.6054    9.1658 N   0  0  0  0  0  0  0  0  0  0  0  0
   19.0903   -8.0898    8.4691 C   0  0  0  0  0  0  0  0  0  0  0  0
   20.1797   -7.5651    9.1535 O   0  0  0  0  0  0  0  0  0  0  0  0
   19.0442   -8.1056    7.0710 C   0  0  0  0  0  0  0  0  0  0  0  0
   19.9963   -7.6374    6.1494 C   0  0  0  0  0  0  0  0  0  0  0  0
   21.2977   -7.0069    6.5218 C   0  0  0  0  0  0  0  0  0  0  0  0
   20.1887   -7.5651   10.0904 H   0  0  0  0  0  0  0  0  0  0  0  0
 19 20  1  0  0  0
 20 21  1  0  0  0
 21 22  1  0  0  0
 22 23  2  0  0  0
 23 24  1  0  0  0
 24 18  1  0  0  0
 24 25  2  0  0  0
 18 17  1  0  0  0
 17  1  1  0  0  0
  1  2  2  0  0  0
  1  3  1  0  0  0
  3  5  1  0  0  0
  5  6  2  0  0  0
  6  7  1  0  0  0
  7  8  2  0  0  0
  8  9  1  0  0  0
  9 11  1  0  0  0
  9 10  2  0  0  0
 11 12  1  0  0  0
 11 13  2  0  0  0
 11 14  2  0  0  0
 10  5  1  0  0  0
 25 26  1  0  0  0
 26 27  1  0  0  0
 26 28  2  0  0  0
 28 29  1  0  0  0
 28 22  1  0  0  0
 29 30  1  0  0  0
 29 20  2  0  0  0
  3  4  1  0  0  0
 12 15  1  0  0  0
 12 16  1  0  0  0
 27 31  1  0  0  0
M  END
>  <minimizedAffinity>
-3.49990

>  <minimizedRMSD>
1.49771

$$$$
CHEMBL3685216 PubChem-66763063


 37 41  0  0  0  0  0  0  0  0999 V2000
   16.4397   -9.1945   17.3217 C   0  0  0  0  0  0  0  0  0  0  0  0
   16.7544  -10.5266   17.6059 C   0  0  0  0  0  0  0  0  0  0  0  0
   17.3645  -11.3321   16.6409 C   0  0  0  0  0  0  0  0  0  0  0  0
   17.6760  -10.8113   15.3821 C   0  0  0  0  0  0  0  0  0  0  0  0
   18.2681  -11.7254   14.3492 C   0  0  0  0  0  0  0  0  0  0  0  0
   18.9761  -10.9454   13.2483 C   0  0  0  0  0  0  0  0  0  0  0  0
   18.1092   -9.8659   12.7851 N   0  0  0  0  0  0  0  0  0  0  0  0
   17.6943   -8.8546   13.7557 C   0  0  0  0  0  0  0  0  0  0  0  0
   17.3440   -9.4728   15.0799 C   0  0  0  0  0  0  0  0  0  0  0  0
   16.7410   -8.6735   16.0549 C   0  0  0  0  0  0  0  0  0  0  0  0
   17.5627   -9.8379   11.4525 C   0  0  0  0  0  0  0  0  0  0  0  0
   16.3555  -10.4257   11.2312 N   0  0  0  0  0  0  0  0  0  0  0  0
   15.7852  -10.4474   10.0013 C   0  0  0  0  0  0  0  0  0  0  0  0
   16.4133   -9.8682    8.9490 N   0  0  0  0  0  0  0  0  0  0  0  0
   17.6151   -9.2485    9.0922 C   0  0  0  0  0  0  0  0  0  0  0  0
   18.2498   -8.6292    7.9857 C   0  0  0  0  0  0  0  0  0  0  0  0
   19.4717   -7.9718    8.1880 C   0  0  0  0  0  0  0  0  0  0  0  0
   20.0615   -7.9216    9.4497 C   0  0  0  0  0  0  0  0  0  0  0  0
   19.4403   -8.5358   10.5341 C   0  0  0  0  0  0  0  0  0  0  0  0
   18.2252   -9.2127   10.3711 C   0  0  0  0  0  0  0  0  0  0  0  0
   17.6781   -8.6368    6.6153 C   0  0  0  0  0  0  0  0  0  0  0  0
   16.7852   -9.4615    6.2860 O   0  0  0  0  0  0  0  0  0  0  0  0
   18.1396   -7.7022    5.6429 N   0  0  0  0  0  0  0  0  0  0  0  0
   18.8371   -7.0491    5.8800 H   0  0  0  0  0  0  0  0  0  0  0  0
   17.7609   -7.7099    4.7342 H   0  0  0  0  0  0  0  0  0  0  0  0
   14.6260   -7.6095   18.2099 C   0  0  0  0  0  0  0  0  0  0  0  0
   14.0062   -7.5590   17.1127 O   0  0  0  0  0  0  0  0  0  0  0  0
   15.8174   -8.4006   18.3409 N   0  0  0  0  0  0  0  0  0  0  0  0
   16.2530   -8.3975   19.2237 H   0  0  0  0  0  0  0  0  0  0  0  0
   13.1619   -5.3985   21.5794 C   0  0  0  0  0  0  0  0  0  0  0  0
   12.5783   -5.2333   20.3195 C   0  0  0  0  0  0  0  0  0  0  0  0
   13.0550   -5.9535   19.2206 C   0  0  0  0  0  0  0  0  0  0  0  0
   14.1233   -6.8499   19.3684 C   0  0  0  0  0  0  0  0  0  0  0  0
   14.7079   -7.0152   20.6315 C   0  0  0  0  0  0  0  0  0  0  0  0
   14.2316   -6.2952   21.7305 C   0  0  0  0  0  0  0  0  0  0  0  0
   13.3193   -4.6057   23.9170 C   0  0  0  0  0  0  0  0  0  0  0  0
   12.6626   -4.6638   22.6582 O   0  0  0  0  0  0  0  0  0  0  0  0
 36 37  1  0  0  0
 37 30  1  0  0  0
 30 31  2  0  0  0
 31 32  1  0  0  0
 32 33  2  0  0  0
 33 34  1  0  0  0
 34 35  2  0  0  0
 33 26  1  0  0  0
 26 27  2  0  0  0
 26 28  1  0  0  0
 28  1  1  0  0  0
  1  2  2  0  0  0
  2  3  1  0  0  0
  3  4  2  0  0  0
  4  5  1  0  0  0
  5  6  1  0  0  0
  6  7  1  0  0  0
  7  8  1  0  0  0
  8  9  1  0  0  0
  9 10  2  0  0  0
  7 11  1  0  0  0
 11 12  2  0  0  0
 12 13  1  0  0  0
 13 14  2  0  0  0
 14 15  1  0  0  0
 15 16  2  0  0  0
 16 17  1  0  0  0
 17 18  2  0  0  0
 18 19  1  0  0  0
 19 20  2  0  0  0
 16 21  1  0  0  0
 21 22  2  0  0  0
 21 23  1  0  0  0
 35 30  1  0  0  0
 10  1  1  0  0  0
 20 11  1  0  0  0
  9  4  1  0  0  0
 20 15  1  0  0  0
 28 29  1  0  0  0
 23 24  1  0  0  0
 23 25  1  0  0  0
M  END
>  <minimizedAffinity>
-7.65195

>  <minimizedRMSD>
1.49785

$$$$
CHEMBL1572980 8607158 ChemDiv-G357-0274 MCULE-8579535441 MolPort-007-847-121 PubChem-16027490 ZINC000008607158 ZINC08607158


 34 37  0  0  0  0  0  0  0  0999 V2000
   17.9366  -10.7914   14.1176 C   0  0  0  0  0  0  0  0  0  0  0  0
   18.4291  -11.9093   14.4358 O   0  0  0  0  0  0  0  0  0  0  0  0
   17.2669   -9.9645   15.1343 C   0  0  0  0  0  0  0  0  0  0  0  0
   16.6513   -8.7610   14.7671 C   0  0  0  0  0  0  0  0  0  0  0  0
   16.0144   -7.9725   15.7291 C   0  0  0  0  0  0  0  0  0  0  0  0
   15.9841   -8.3774   17.0718 C   0  0  0  0  0  0  0  0  0  0  0  0
   16.5995   -9.5789   17.4372 C   0  0  0  0  0  0  0  0  0  0  0  0
   17.2369  -10.3687   16.4762 C   0  0  0  0  0  0  0  0  0  0  0  0
   15.3419   -7.5954   18.0880 N   0  0  0  0  0  0  0  0  0  0  0  0
   13.9314   -7.3956   18.2656 C   0  0  0  0  0  0  0  0  0  0  0  0
   13.1141   -7.9544   17.4834 O   0  0  0  0  0  0  0  0  0  0  0  0
   15.9330   -7.1464   18.7347 H   0  0  0  0  0  0  0  0  0  0  0  0
   13.4099   -6.5460   19.3700 C   0  0  0  0  0  0  0  0  0  0  0  0
   13.7202   -6.7491   20.7413 C   0  0  0  0  0  0  0  0  0  0  0  0
   14.6214   -7.8348   21.2231 C   0  0  0  0  0  0  0  0  0  0  0  0
   13.1793   -5.8982   21.7114 C   0  0  0  0  0  0  0  0  0  0  0  0
   12.3361   -4.8482   21.3481 C   0  0  0  0  0  0  0  0  0  0  0  0
   12.0271   -4.6382   20.0057 C   0  0  0  0  0  0  0  0  0  0  0  0
   12.5603   -5.4797   19.0283 C   0  0  0  0  0  0  0  0  0  0  0  0
   18.0237  -10.3330   12.8012 O   0  0  0  0  0  0  0  0  0  0  0  0
   16.9815   -9.5816   12.1965 C   0  0  0  0  0  0  0  0  0  0  0  0
   18.9957   -7.8866    6.7211 C   0  0  0  0  0  0  0  0  0  0  0  0
   18.0456   -8.8489    6.8090 N   0  0  0  0  0  0  0  0  0  0  0  0
   17.7144   -9.1145    8.0705 N   0  0  0  0  0  0  0  0  0  0  0  0
   18.3857   -8.3794    8.9818 C   0  0  0  0  0  0  0  0  0  0  0  0
   19.4664   -7.3194    8.2556 S   0  0  0  0  0  0  0  0  0  0  0  0
   18.1686   -8.5211   10.3122 N   0  0  0  0  0  0  0  0  0  0  0  0
   17.2533   -9.4352   10.7423 C   0  0  0  0  0  0  0  0  0  0  0  0
   16.5335  -10.2084    9.8166 C   0  0  0  0  0  0  0  0  0  0  0  0
   16.7865  -10.0316    8.4519 C   0  0  0  0  0  0  0  0  0  0  0  0
   16.1606  -10.7124    7.5967 O   0  0  0  0  0  0  0  0  0  0  0  0
   21.0431   -7.2259    5.5000 C   0  0  0  0  0  0  0  0  0  0  0  0
   19.5399   -7.4061    5.4165 C   0  0  0  0  0  0  0  0  0  0  0  0
   19.1975   -8.3792    4.3053 C   0  0  0  0  0  0  0  0  0  0  0  0
 32 33  1  0  0  0
 33 34  1  0  0  0
 33 22  1  0  0  0
 22 23  2  0  0  0
 23 24  1  0  0  0
 24 25  1  0  0  0
 25 26  1  0  0  0
 25 27  2  0  0  0
 26 22  1  0  0  0
 27 28  1  0  0  0
 28 21  1  0  0  0
 28 29  2  0  0  0
 21 20  1  0  0  0
 20  1  1  0  0  0
  1  2  2  0  0  0
  1  3  1  0  0  0
  3  4  2  0  0  0
  4  5  1  0  0  0
  5  6  2  0  0  0
  6  9  1  0  0  0
  6  7  1  0  0  0
  9 10  1  0  0  0
 10 11  2  0  0  0
 10 13  1  0  0  0
 13 14  2  0  0  0
 14 15  1  0  0  0
 14 16  1  0  0  0
 16 17  2  0  0  0
 17 18  1  0  0  0
 18 19  2  0  0  0
 19 13  1  0  0  0
  7  8  2  0  0  0
  8  3  1  0  0  0
 29 30  1  0  0  0
 30 31  2  0  0  0
 30 24  1  0  0  0
  9 12  1  0  0  0
M  END
>  <minimizedAffinity>
-8.79460

>  <minimizedRMSD>
1.49807

$$$$
CHEMBL1902069 8603793 ChemDiv-C679-5548 MCULE-5706815220 MolPort-007-656-131 PubChem-16009568 ZINC000008603793


 30 33  0  0  0  0  0  0  0  0999 V2000
   16.7079   -9.3378   15.0526 C   0  0  0  0  0  0  0  0  0  0  0  0
   17.3799  -10.3224   15.7939 C   0  0  0  0  0  0  0  0  0  0  0  0
   17.2823  -10.3419   17.1871 C   0  0  0  0  0  0  0  0  0  0  0  0
   16.5141   -9.3792   17.8472 C   0  0  0  0  0  0  0  0  0  0  0  0
   15.8401   -8.3917   17.1215 C   0  0  0  0  0  0  0  0  0  0  0  0
   15.9415   -8.3787   15.7220 C   0  0  0  0  0  0  0  0  0  0  0  0
   15.0595   -7.4240   17.8360 N   0  0  0  0  0  0  0  0  0  0  0  0
   13.7012   -7.5641   18.2772 C   0  0  0  0  0  0  0  0  0  0  0  0
   13.0501   -8.6076   17.9966 O   0  0  0  0  0  0  0  0  0  0  0  0
   15.5035   -6.5710   18.0467 H   0  0  0  0  0  0  0  0  0  0  0  0
   13.0284   -6.4725   19.0229 C   0  0  0  0  0  0  0  0  0  0  0  0
   12.1489   -5.6397   18.3113 C   0  0  0  0  0  0  0  0  0  0  0  0
   11.4891   -4.5829   18.9407 C   0  0  0  0  0  0  0  0  0  0  0  0
   11.6958   -4.3439   20.2981 C   0  0  0  0  0  0  0  0  0  0  0  0
   12.5564   -5.1656   21.0260 C   0  0  0  0  0  0  0  0  0  0  0  0
   13.2246   -6.2279   20.4067 C   0  0  0  0  0  0  0  0  0  0  0  0
   14.2303   -7.2350   21.4396 Cl  0  0  0  0  0  0  0  0  0  0  0  0
   16.7839   -9.2898   13.6584 O   0  0  0  0  0  0  0  0  0  0  0  0
   17.5357  -10.2263   12.8977 C   0  0  0  0  0  0  0  0  0  0  0  0
   17.5224   -9.0173    8.8554 N   0  0  0  0  0  0  0  0  0  0  0  0
   17.6831   -8.5340    7.5944 C   0  0  0  0  0  0  0  0  0  0  0  0
   18.8592   -7.8029    7.4430 C   0  0  0  0  0  0  0  0  0  0  0  0
   19.7094   -7.7591    8.9053 S   0  0  0  0  0  0  0  0  0  0  0  0
   18.5397   -8.6801    9.6794 C   0  0  0  0  0  0  0  0  0  0  0  0
   18.5621   -9.0663   10.9785 N   0  0  0  0  0  0  0  0  0  0  0  0
   17.5377   -9.8198   11.4678 C   0  0  0  0  0  0  0  0  0  0  0  0
   16.4633  -10.1785   10.6390 C   0  0  0  0  0  0  0  0  0  0  0  0
   16.4746   -9.7611    9.3038 C   0  0  0  0  0  0  0  0  0  0  0  0
   15.5244  -10.0727    8.5368 O   0  0  0  0  0  0  0  0  0  0  0  0
   19.3031   -7.1543    6.1821 C   0  0  0  0  0  0  0  0  0  0  0  0
 20 21  1  0  0  0
 21 22  2  0  0  0
 22 23  1  0  0  0
 23 24  1  0  0  0
 24 25  2  0  0  0
 25 26  1  0  0  0
 26 19  1  0  0  0
 19 18  1  0  0  0
 18  1  1  0  0  0
  1  2  2  0  0  0
  2  3  1  0  0  0
  3  4  2  0  0  0
  4  5  1  0  0  0
  5  6  2  0  0  0
  5  7  1  0  0  0
  7  8  1  0  0  0
  8  9  2  0  0  0
  8 11  1  0  0  0
 11 12  2  0  0  0
 12 13  1  0  0  0
 13 14  2  0  0  0
 14 15  1  0  0  0
 15 16  2  0  0  0
 16 17  1  0  0  0
 26 27  2  0  0  0
 27 28  1  0  0  0
 28 29  2  0  0  0
 22 30  1  0  0  0
 24 20  1  0  0  0
  6  1  1  0  0  0
 16 11  1  0  0  0
 28 20  1  0  0  0
  7 10  1  0  0  0
M  END
>  <minimizedAffinity>
-7.45103

>  <minimizedRMSD>
1.49940

$$$$
CHEMBL409890 PubChem-24799619


 38 42  0  0  0  0  0  0  0  0999 V2000
   17.7694   -9.1752   16.7178 C   0  0  0  0  0  0  0  0  0  0  0  0
   18.6006   -9.1844   17.9847 C   0  0  0  0  0  0  0  0  0  0  0  0
   18.8453   -8.1020   16.9405 C   0  0  0  0  0  0  0  0  0  0  0  0
   20.1418   -8.3525   16.2269 C   0  0  0  0  0  0  0  0  0  0  0  0
   20.1902   -9.1899   15.2869 O   0  0  0  0  0  0  0  0  0  0  0  0
   21.3011   -7.5900   16.5613 N   0  0  0  0  0  0  0  0  0  0  0  0
   22.4716   -7.7847   15.9103 O   0  0  0  0  0  0  0  0  0  0  0  0
   21.2486   -6.9137   17.2747 H   0  0  0  0  0  0  0  0  0  0  0  0
   22.3585   -8.4790   15.2424 H   0  0  0  0  0  0  0  0  0  0  0  0
   18.0048  -10.3415   15.7952 C   0  0  0  0  0  0  0  0  0  0  0  0
   18.1912  -10.1193   14.4251 C   0  0  0  0  0  0  0  0  0  0  0  0
   18.3607  -11.1979   13.5429 C   0  0  0  0  0  0  0  0  0  0  0  0
   18.3215  -12.5042   14.0399 C   0  0  0  0  0  0  0  0  0  0  0  0
   18.1107  -12.7347   15.4019 C   0  0  0  0  0  0  0  0  0  0  0  0
   17.9453  -11.6574   16.2760 C   0  0  0  0  0  0  0  0  0  0  0  0
   18.5687  -10.9991   12.1761 O   0  0  0  0  0  0  0  0  0  0  0  0
   18.7587   -9.7088   11.6100 C   0  0  0  0  0  0  0  0  0  0  0  0
   17.7711   -9.4923   10.5113 C   0  0  0  0  0  0  0  0  0  0  0  0
   16.4825  -10.0119   10.6551 C   0  0  0  0  0  0  0  0  0  0  0  0
   15.5486   -9.8433    9.6310 C   0  0  0  0  0  0  0  0  0  0  0  0
   15.8918   -9.1820    8.4936 N   0  0  0  0  0  0  0  0  0  0  0  0
   17.1383   -8.6697    8.3155 C   0  0  0  0  0  0  0  0  0  0  0  0
   18.1162   -8.8165    9.3271 C   0  0  0  0  0  0  0  0  0  0  0  0
   19.3992   -8.2850    9.1264 C   0  0  0  0  0  0  0  0  0  0  0  0
   19.7060   -7.6170    7.9374 C   0  0  0  0  0  0  0  0  0  0  0  0
   18.7353   -7.4748    6.9416 C   0  0  0  0  0  0  0  0  0  0  0  0
   17.4538   -8.0000    7.1299 C   0  0  0  0  0  0  0  0  0  0  0  0
   14.1761  -10.3915    9.7836 C   0  0  0  0  0  0  0  0  0  0  0  0
   16.3604   -8.7325   16.9376 C   0  0  0  0  0  0  0  0  0  0  0  0
   15.5231   -8.8455   16.0026 O   0  0  0  0  0  0  0  0  0  0  0  0
   15.9741   -8.2215   18.2210 N   0  0  0  0  0  0  0  0  0  0  0  0
   16.6778   -8.1768   18.9080 H   0  0  0  0  0  0  0  0  0  0  0  0
   14.6696   -7.7691   18.6074 C   0  0  0  0  0  0  0  0  0  0  0  0
   13.7264   -7.3281   17.6660 C   0  0  0  0  0  0  0  0  0  0  0  0
   12.4640   -6.8937   18.0803 C   0  0  0  0  0  0  0  0  0  0  0  0
   12.1358   -6.8969   19.4385 C   0  0  0  0  0  0  0  0  0  0  0  0
   13.0699   -7.3342   20.3813 C   0  0  0  0  0  0  0  0  0  0  0  0
   14.3323   -7.7686   19.9656 C   0  0  0  0  0  0  0  0  0  0  0  0
  1  2  1  0  0  0
  2  3  1  0  0  0
  3  4  1  0  0  0
  4  5  2  0  0  0
  4  6  1  0  0  0
  6  7  1  0  0  0
  1 29  1  0  0  0
 29 30  2  0  0  0
 29 31  1  0  0  0
 31 33  1  0  0  0
 33 34  2  0  0  0
 34 35  1  0  0  0
 35 36  2  0  0  0
 36 37  1  0  0  0
 37 38  2  0  0  0
  1 10  1  0  0  0
 10 11  2  0  0  0
 11 12  1  0  0  0
 12 13  2  0  0  0
 13 14  1  0  0  0
 14 15  2  0  0  0
 12 16  1  0  0  0
 16 17  1  0  0  0
 17 18  1  0  0  0
 18 19  2  0  0  0
 19 20  1  0  0  0
 20 21  2  0  0  0
 21 22  1  0  0  0
 22 23  2  0  0  0
 23 24  1  0  0  0
 24 25  2  0  0  0
 25 26  1  0  0  0
 26 27  2  0  0  0
 20 28  1  0  0  0
  3  1  1  0  0  0
 38 33  1  0  0  0
 15 10  1  0  0  0
 23 18  1  0  0  0
 27 22  1  0  0  0
  6  8  1  0  0  0
  7  9  1  0  0  0
 31 32  1  0  0  0
M  END
>  <minimizedAffinity>
-6.23411

>  <minimizedRMSD>
1.50084

$$$$
CHEMBL2336011 PubChem-71625292 ZINC000095592772


 38 42  0  0  0  0  0  0  0  0999 V2000
   15.6607   -8.4670   18.5002 N   0  0  0  0  0  0  0  0  0  0  0  0
   15.6729   -8.3245   17.0713 C   0  0  0  0  0  0  0  0  0  0  0  0
   15.0260   -7.3967   16.5131 O   0  0  0  0  0  0  0  0  0  0  0  0
   16.1672   -9.2252   18.8716 H   0  0  0  0  0  0  0  0  0  0  0  0
   16.4442   -9.2738   16.2496 C   0  0  0  0  0  0  0  0  0  0  0  0
   17.0558  -10.3873   16.8402 C   0  0  0  0  0  0  0  0  0  0  0  0
   17.7888  -11.2866   16.0623 C   0  0  0  0  0  0  0  0  0  0  0  0
   17.9199  -11.0850   14.6853 C   0  0  0  0  0  0  0  0  0  0  0  0
   18.7109  -12.0694   13.8905 C   0  0  0  0  0  0  0  0  0  0  0  0
   17.3081   -9.9689   14.0831 C   0  0  0  0  0  0  0  0  0  0  0  0
   16.5763   -9.0726   14.8686 C   0  0  0  0  0  0  0  0  0  0  0  0
   17.4159   -9.7206   12.6685 C   0  0  0  0  0  0  0  0  0  0  0  0
   17.5069   -9.5129   11.4842 C   0  0  0  0  0  0  0  0  0  0  0  0
   17.6160   -9.2656   10.0749 C   0  0  0  0  0  0  0  0  0  0  0  0
   16.7067   -9.8517    9.1725 C   0  0  0  0  0  0  0  0  0  0  0  0
   16.8112   -9.6138    7.8319 N   0  0  0  0  0  0  0  0  0  0  0  0
   17.8053   -8.8040    7.3919 C   0  0  0  0  0  0  0  0  0  0  0  0
   18.0838   -8.4383    6.0949 C   0  0  0  0  0  0  0  0  0  0  0  0
   19.2003   -7.6066    6.2551 C   0  0  0  0  0  0  0  0  0  0  0  0
   19.5356   -7.5063    7.5656 N   0  0  0  0  0  0  0  0  0  0  0  0
   18.6730   -8.2428    8.2344 N   0  0  0  0  0  0  0  0  0  0  0  0
   18.6279   -8.4357    9.5739 C   0  0  0  0  0  0  0  0  0  0  0  0
   13.2152   -6.0574   20.0411 C   0  0  0  0  0  0  0  0  0  0  0  0
   13.7336   -5.9762   21.3367 C   0  0  0  0  0  0  0  0  0  0  0  0
   14.8678   -6.7128   21.6907 C   0  0  0  0  0  0  0  0  0  0  0  0
   15.4954   -7.5270   20.7429 C   0  0  0  0  0  0  0  0  0  0  0  0
   14.9884   -7.6213   19.4432 C   0  0  0  0  0  0  0  0  0  0  0  0
   13.8467   -6.8832   19.0974 C   0  0  0  0  0  0  0  0  0  0  0  0
   11.7584   -4.9399   18.3842 C   0  0  0  0  0  0  0  0  0  0  0  0
   12.0796   -5.3102   19.7181 O   0  0  0  0  0  0  0  0  0  0  0  0
   15.4287   -6.6018   23.0671 C   0  0  0  0  0  0  0  0  0  0  0  0
   16.3492   -5.4785   23.1423 N   0  0  0  0  0  0  0  0  0  0  0  0
   16.0855   -4.7910   24.4022 C   0  0  0  0  0  0  0  0  0  0  0  0
   17.0615   -3.6210   24.5659 C   0  0  0  0  0  0  0  0  0  0  0  0
   18.4631   -4.0601   24.5155 N   0  0  0  0  0  0  0  0  0  0  0  0
   18.7887   -4.7915   25.7336 C   0  0  0  0  0  0  0  0  0  0  0  0
   18.7204   -4.9131   23.3467 C   0  0  0  0  0  0  0  0  0  0  0  0
   17.6916   -6.0422   23.2194 C   0  0  0  0  0  0  0  0  0  0  0  0
 29 30  1  0  0  0
 30 23  1  0  0  0
 23 24  2  0  0  0
 24 25  1  0  0  0
 25 31  1  0  0  0
 25 26  2  0  0  0
 31 32  1  0  0  0
 32 33  1  0  0  0
 33 34  1  0  0  0
 34 35  1  0  0  0
 35 36  1  0  0  0
 35 37  1  0  0  0
 37 38  1  0  0  0
 38 32  1  0  0  0
 26 27  1  0  0  0
 27  1  1  0  0  0
 27 28  2  0  0  0
  1  2  1  0  0  0
  2  3  2  0  0  0
  2  5  1  0  0  0
  5  6  2  0  0  0
  6  7  1  0  0  0
  7  8  2  0  0  0
  8  9  1  0  0  0
  8 10  1  0  0  0
 10 12  1  0  0  0
 10 11  2  0  0  0
 12 13  3  0  0  0
 13 14  1  0  0  0
 14 15  1  0  0  0
 15 16  2  0  0  0
 16 17  1  0  0  0
 17 18  2  0  0  0
 18 19  1  0  0  0
 19 20  2  0  0  0
 20 21  1  0  0  0
 21 22  1  0  0  0
 21 17  1  0  0  0
 22 14  2  0  0  0
 11  5  1  0  0  0
 28 23  1  0  0  0
  1  4  1  0  0  0
M  END
>  <minimizedAffinity>
-12.33160

>  <minimizedRMSD>
1.50322

$$$$
CHEMBL3680528 PubChem-68081620


 40 43  0  0  0  0  0  0  0  0999 V2000
   16.6104   -9.2715   16.7782 C   0  0  0  0  0  0  0  0  0  0  0  0
   17.3842  -10.4189   16.9844 C   0  0  0  0  0  0  0  0  0  0  0  0
   17.8519  -11.1621   15.8968 C   0  0  0  0  0  0  0  0  0  0  0  0
   17.5423  -10.7630   14.5928 C   0  0  0  0  0  0  0  0  0  0  0  0
   16.7730   -9.6146   14.3758 C   0  0  0  0  0  0  0  0  0  0  0  0
   16.3072   -8.8744   15.4665 C   0  0  0  0  0  0  0  0  0  0  0  0
   14.9307   -7.7591   17.9893 C   0  0  0  0  0  0  0  0  0  0  0  0
   14.2405   -7.5431   16.9556 O   0  0  0  0  0  0  0  0  0  0  0  0
   16.1224   -8.5550   17.9186 N   0  0  0  0  0  0  0  0  0  0  0  0
   16.6614   -8.6151   18.7403 H   0  0  0  0  0  0  0  0  0  0  0  0
   13.7270   -6.1637   21.7503 C   0  0  0  0  0  0  0  0  0  0  0  0
   14.9065   -6.8267   21.6156 N   0  0  0  0  0  0  0  0  0  0  0  0
   15.3088   -7.3398   20.4222 C   0  0  0  0  0  0  0  0  0  0  0  0
   14.5105   -7.1920   19.2821 C   0  0  0  0  0  0  0  0  0  0  0  0
   13.2938   -6.5113   19.4005 C   0  0  0  0  0  0  0  0  0  0  0  0
   12.8964   -5.9956   20.6340 C   0  0  0  0  0  0  0  0  0  0  0  0
   13.3568   -5.6476   23.0328 N   0  0  0  0  0  0  0  0  0  0  0  0
   13.0768   -6.2889   23.7254 H   0  0  0  0  0  0  0  0  0  0  0  0
   13.3687   -4.2302   23.3776 C   0  0  0  0  0  0  0  0  0  0  0  0
   14.6574   -3.8647   24.0977 C   0  0  0  0  0  0  0  0  0  0  0  0
   16.5895   -4.8879   24.3851 C   0  0  0  0  0  0  0  0  0  0  0  0
   15.2271   -5.0049   24.6656 O   0  0  0  0  0  0  0  0  0  0  0  0
   16.4214   -9.1900   12.9917 C   0  0  0  0  0  0  0  0  0  0  0  0
   17.3059   -9.8304   12.0316 N   0  0  0  0  0  0  0  0  0  0  0  0
   18.0660  -10.3608   12.3635 H   0  0  0  0  0  0  0  0  0  0  0  0
   17.1060   -9.7136   10.6189 C   0  0  0  0  0  0  0  0  0  0  0  0
   16.0180  -10.2840   10.0346 N   0  0  0  0  0  0  0  0  0  0  0  0
   15.8149  -10.2053    8.6952 C   0  0  0  0  0  0  0  0  0  0  0  0
   16.7102   -9.5569    7.9063 N   0  0  0  0  0  0  0  0  0  0  0  0
   17.8211   -8.9706    8.4273 C   0  0  0  0  0  0  0  0  0  0  0  0
   18.0407   -9.0347    9.8234 C   0  0  0  0  0  0  0  0  0  0  0  0
   19.1831   -8.4470   10.3811 C   0  0  0  0  0  0  0  0  0  0  0  0
   20.1072   -7.8013    9.5633 C   0  0  0  0  0  0  0  0  0  0  0  0
   19.8988   -7.7383    8.1849 C   0  0  0  0  0  0  0  0  0  0  0  0
   18.7620   -8.3147    7.5957 C   0  0  0  0  0  0  0  0  0  0  0  0
   18.6016   -8.2059    6.1244 C   0  0  0  0  0  0  0  0  0  0  0  0
   17.6434   -8.7697    5.5296 O   0  0  0  0  0  0  0  0  0  0  0  0
   19.5310   -7.4379    5.3598 N   0  0  0  0  0  0  0  0  0  0  0  0
   20.2853   -6.9905    5.8070 H   0  0  0  0  0  0  0  0  0  0  0  0
   19.4175   -7.3557    4.3853 H   0  0  0  0  0  0  0  0  0  0  0  0
 21 22  1  0  0  0
 22 20  1  0  0  0
 20 19  1  0  0  0
 19 17  1  0  0  0
 17 11  1  0  0  0
 11 12  2  0  0  0
 12 13  1  0  0  0
 13 14  2  0  0  0
 14 15  1  0  0  0
 14  7  1  0  0  0
 15 16  2  0  0  0
 16 11  1  0  0  0
  7  8  2  0  0  0
  7  9  1  0  0  0
  9  1  1  0  0  0
  1  2  2  0  0  0
  2  3  1  0  0  0
  3  4  2  0  0  0
  4  5  1  0  0  0
  5  6  2  0  0  0
  5 23  1  0  0  0
  6  1  1  0  0  0
 23 24  1  0  0  0
 24 26  1  0  0  0
 26 27  2  0  0  0
 27 28  1  0  0  0
 28 29  2  0  0  0
 29 30  1  0  0  0
 30 31  2  0  0  0
 31 32  1  0  0  0
 31 26  1  0  0  0
 32 33  2  0  0  0
 33 34  1  0  0  0
 34 35  2  0  0  0
 35 36  1  0  0  0
 35 30  1  0  0  0
 36 37  2  0  0  0
 36 38  1  0  0  0
 17 18  1  0  0  0
  9 10  1  0  0  0
 24 25  1  0  0  0
 38 39  1  0  0  0
 38 40  1  0  0  0
M  END
>  <minimizedAffinity>
-9.03052

>  <minimizedRMSD>
1.50720

$$$$
CHEMBL4104458 PubChem-72545683


 25 26  0  0  0  0  0  0  0  0999 V2000
   17.3140   -9.5007   12.9934 N   0  0  0  0  0  0  0  0  0  0  0  0
   16.9304   -8.8832   13.6574 H   0  0  0  0  0  0  0  0  0  0  0  0
   20.0730   -7.8094    8.7971 C   0  0  0  0  0  0  0  0  0  0  0  0
   18.7365   -8.4259    9.0007 C   0  0  0  0  0  0  0  0  0  0  0  0
   18.3085   -8.7528   10.2899 C   0  0  0  0  0  0  0  0  0  0  0  0
   17.0523   -9.3410   10.4985 C   0  0  0  0  0  0  0  0  0  0  0  0
   16.2174   -9.5817    9.3827 C   0  0  0  0  0  0  0  0  0  0  0  0
   16.6513   -9.2541    8.0947 C   0  0  0  0  0  0  0  0  0  0  0  0
   17.9098   -8.6788    7.9039 C   0  0  0  0  0  0  0  0  0  0  0  0
   14.9858  -10.1217    9.5587 N   0  0  0  0  0  0  0  0  0  0  0  0
   14.5339  -10.4342   10.7985 C   0  0  0  0  0  0  0  0  0  0  0  0
   15.3161  -10.2150   11.8862 N   0  0  0  0  0  0  0  0  0  0  0  0
   16.5653   -9.6887   11.7805 C   0  0  0  0  0  0  0  0  0  0  0  0
   18.5821  -10.1294   13.3422 C   0  0  0  0  0  0  0  0  0  0  0  0
   18.4409  -11.6467   13.3529 C   0  0  0  0  0  0  0  0  0  0  0  0
   18.1887  -12.1674   14.7590 C   0  0  0  0  0  0  0  0  0  0  0  0
   18.6009  -11.1306   15.7911 C   0  0  0  0  0  0  0  0  0  0  0  0
   17.4628  -10.8689   16.7665 C   0  0  0  0  0  0  0  0  0  0  0  0
   16.2407  -10.2975   16.0571 C   0  0  0  0  0  0  0  0  0  0  0  0
   16.0184   -8.8701   16.4292 C   0  0  0  0  0  0  0  0  0  0  0  0
   16.1155   -7.9751   15.5488 O   0  0  0  0  0  0  0  0  0  0  0  0
   15.6857   -8.5251   17.7726 N   0  0  0  0  0  0  0  0  0  0  0  0
   15.4783   -7.2356   18.1272 O   0  0  0  0  0  0  0  0  0  0  0  0
   15.6060   -9.2343   18.4508 H   0  0  0  0  0  0  0  0  0  0  0  0
   15.5934   -6.6645   17.3516 H   0  0  0  0  0  0  0  0  0  0  0  0
  3  4  1  0  0  0
  4  5  2  0  0  0
  5  6  1  0  0  0
  6  7  2  0  0  0
  7  8  1  0  0  0
  7 10  1  0  0  0
  8  9  2  0  0  0
  9  4  1  0  0  0
 10 11  2  0  0  0
 11 12  1  0  0  0
 12 13  2  0  0  0
 13  1  1  0  0  0
 13  6  1  0  0  0
  1 14  1  0  0  0
 14 15  1  0  0  0
 15 16  1  0  0  0
 16 17  1  0  0  0
 17 18  1  0  0  0
 18 19  1  0  0  0
 19 20  1  0  0  0
 20 21  2  0  0  0
 20 22  1  0  0  0
 22 23  1  0  0  0
  1  2  1  0  0  0
 22 24  1  0  0  0
 23 25  1  0  0  0
M  END
>  <minimizedAffinity>
-6.94407

>  <minimizedRMSD>
1.50737

$$$$
CHEMBL3680806 PubChem-161053798 PubChem-84973084


 39 43  0  0  0  0  0  0  0  0999 V2000
   17.1009   -9.1696   15.4085 C   0  0  0  0  0  0  0  0  0  0  0  0
   17.0388   -9.1542   14.0069 C   0  0  0  0  0  0  0  0  0  0  0  0
   17.9560   -9.8909   13.2499 C   0  0  0  0  0  0  0  0  0  0  0  0
   18.9362  -10.6543   13.8911 C   0  0  0  0  0  0  0  0  0  0  0  0
   19.0039  -10.6765   15.2865 C   0  0  0  0  0  0  0  0  0  0  0  0
   18.0906   -9.9356   16.0421 C   0  0  0  0  0  0  0  0  0  0  0  0
   15.9622   -8.6853   17.5975 N   0  0  0  0  0  0  0  0  0  0  0  0
   16.1434   -8.3840   16.2072 C   0  0  0  0  0  0  0  0  0  0  0  0
   15.4818   -7.4613   15.6602 O   0  0  0  0  0  0  0  0  0  0  0  0
   16.4408   -9.4715   17.9470 H   0  0  0  0  0  0  0  0  0  0  0  0
   11.5414   -4.7905   22.2382 C   0  0  0  0  0  0  0  0  0  0  0  0
   12.4848   -5.7902   21.7718 N   0  0  0  0  0  0  0  0  0  0  0  0
   13.8176   -5.3483   22.2001 C   0  0  0  0  0  0  0  0  0  0  0  0
   14.8891   -6.3936   21.8382 C   0  0  0  0  0  0  0  0  0  0  0  0
   14.6849   -6.8887   20.4378 C   0  0  0  0  0  0  0  0  0  0  0  0
   13.5130   -6.6338   19.7486 C   0  0  0  0  0  0  0  0  0  0  0  0
   12.4187   -5.7809   20.3053 C   0  0  0  0  0  0  0  0  0  0  0  0
   13.6147   -7.3140   18.2181 S   0  0  0  0  0  0  0  0  0  0  0  0
   15.1535   -7.9554   18.5284 C   0  0  0  0  0  0  0  0  0  0  0  0
   15.5989   -7.6348   19.7649 N   0  0  0  0  0  0  0  0  0  0  0  0
   17.8762   -9.8737   11.7645 C   0  0  0  0  0  0  0  0  0  0  0  0
   16.4960  -10.0527   11.3409 N   0  0  0  0  0  0  0  0  0  0  0  0
   16.0235   -9.8960    9.9964 C   0  0  0  0  0  0  0  0  0  0  0  0
   14.8211  -10.1759    9.7506 O   0  0  0  0  0  0  0  0  0  0  0  0
   15.8369  -10.3001   12.0292 H   0  0  0  0  0  0  0  0  0  0  0  0
   16.8810   -9.4266    8.8881 C   0  0  0  0  0  0  0  0  0  0  0  0
   17.9139   -8.4965    8.9803 C   0  0  0  0  0  0  0  0  0  0  0  0
   18.3902   -8.3617    7.7355 N   0  0  0  0  0  0  0  0  0  0  0  0
   19.3913   -7.5647    7.2861 C   0  0  0  0  0  0  0  0  0  0  0  0
   19.7008   -7.5946    5.9142 C   0  0  0  0  0  0  0  0  0  0  0  0
   18.9585   -8.4464    5.0667 C   0  0  0  0  0  0  0  0  0  0  0  0
   17.9261   -9.2500    5.5774 C   0  0  0  0  0  0  0  0  0  0  0  0
   17.6727   -9.1717    6.9441 C   0  0  0  0  0  0  0  0  0  0  0  0
   16.7225   -9.8510    7.6089 N   0  0  0  0  0  0  0  0  0  0  0  0
   20.7795   -6.7497    5.3715 C   0  0  0  0  0  0  0  0  0  0  0  0
   21.9800   -7.1295    5.4327 O   0  0  0  0  0  0  0  0  0  0  0  0
   20.4783   -5.4939    4.7706 N   0  0  0  0  0  0  0  0  0  0  0  0
   19.5450   -5.1854    4.7163 H   0  0  0  0  0  0  0  0  0  0  0  0
   21.2035   -4.9345    4.4095 H   0  0  0  0  0  0  0  0  0  0  0  0
 11 12  1  0  0  0
 12 13  1  0  0  0
 13 14  1  0  0  0
 14 15  1  0  0  0
 15 16  2  0  0  0
 16 17  1  0  0  0
 16 18  1  0  0  0
 17 12  1  0  0  0
 18 19  1  0  0  0
 19 20  2  0  0  0
 19  7  1  0  0  0
 20 15  1  0  0  0
  7  8  1  0  0  0
  8  9  2  0  0  0
  8  1  1  0  0  0
  1  2  2  0  0  0
  2  3  1  0  0  0
  3  4  2  0  0  0
  3 21  1  0  0  0
  4  5  1  0  0  0
  5  6  2  0  0  0
  6  1  1  0  0  0
 21 22  1  0  0  0
 22 23  1  0  0  0
 23 24  2  0  0  0
 23 26  1  0  0  0
 26 27  2  0  0  0
 27 28  1  0  0  0
 28 29  1  0  0  0
 29 30  2  0  0  0
 30 31  1  0  0  0
 30 35  1  0  0  0
 31 32  2  0  0  0
 32 33  1  0  0  0
 33 34  2  0  0  0
 33 28  1  0  0  0
 34 26  1  0  0  0
 35 36  2  0  0  0
 35 37  1  0  0  0
  7 10  1  0  0  0
 22 25  1  0  0  0
 37 38  1  0  0  0
 37 39  1  0  0  0
M  END
>  <minimizedAffinity>
-10.31812

>  <minimizedRMSD>
1.51036

$$$$
CHEMBL3582394


 34 38  0  0  0  0  0  0  0  0999 V2000
   16.2732   -8.7848   17.4310 C   0  0  0  0  0  0  0  0  0  0  0  0
   16.8429   -9.8889   18.0728 C   0  0  0  0  0  0  0  0  0  0  0  0
   17.3721  -10.9499   17.3382 C   0  0  0  0  0  0  0  0  0  0  0  0
   17.3389  -10.9213   15.9445 C   0  0  0  0  0  0  0  0  0  0  0  0
   17.8580  -11.9630   15.2468 F   0  0  0  0  0  0  0  0  0  0  0  0
   16.7729   -9.8244   15.2800 C   0  0  0  0  0  0  0  0  0  0  0  0
   16.2387   -8.7533   16.0176 C   0  0  0  0  0  0  0  0  0  0  0  0
   15.6989   -7.7059   15.3467 F   0  0  0  0  0  0  0  0  0  0  0  0
   15.7523   -7.7370   18.2625 N   0  0  0  0  0  0  0  0  0  0  0  0
   16.4102   -7.1028   18.6287 H   0  0  0  0  0  0  0  0  0  0  0  0
   13.5300   -6.3642   17.8372 O   0  0  0  0  0  0  0  0  0  0  0  0
   14.0953   -7.4614   18.6954 S   0  0  0  0  0  0  0  0  0  0  0  0
   13.2991   -8.7239   18.5206 O   0  0  0  0  0  0  0  0  0  0  0  0
   14.0194   -6.9701   20.3771 C   0  0  0  0  0  0  0  0  0  0  0  0
   15.1242   -7.1416   21.2147 C   0  0  0  0  0  0  0  0  0  0  0  0
   15.0485   -6.7558   22.5541 C   0  0  0  0  0  0  0  0  0  0  0  0
   13.8603   -6.2033   23.0380 C   0  0  0  0  0  0  0  0  0  0  0  0
   12.7930   -6.0466   22.2087 N   0  0  0  0  0  0  0  0  0  0  0  0
   12.8475   -6.4165   20.9007 C   0  0  0  0  0  0  0  0  0  0  0  0
   16.7407   -9.7966   13.8394 C   0  0  0  0  0  0  0  0  0  0  0  0
   16.7133   -9.7720   12.6343 C   0  0  0  0  0  0  0  0  0  0  0  0
   16.6810   -9.7416   11.2002 C   0  0  0  0  0  0  0  0  0  0  0  0
   15.7578  -10.5502   10.4953 C   0  0  0  0  0  0  0  0  0  0  0  0
   15.7145  -10.5290    9.1281 N   0  0  0  0  0  0  0  0  0  0  0  0
   16.5759   -9.7204    8.4632 C   0  0  0  0  0  0  0  0  0  0  0  0
   16.6616   -9.5624    7.1323 N   0  0  0  0  0  0  0  0  0  0  0  0
   17.6233   -8.6680    6.9124 N   0  0  0  0  0  0  0  0  0  0  0  0
   18.1452   -8.2742    8.1013 C   0  0  0  0  0  0  0  0  0  0  0  0
   17.4771   -8.9313    9.1074 C   0  0  0  0  0  0  0  0  0  0  0  0
   17.5661   -8.9057   10.4944 C   0  0  0  0  0  0  0  0  0  0  0  0
   16.1181  -10.0198    6.4506 H   0  0  0  0  0  0  0  0  0  0  0  0
   19.2080   -7.2338    8.2604 C   0  0  0  0  0  0  0  0  0  0  0  0
   20.4556   -7.8608    8.8555 C   0  0  0  0  0  0  0  0  0  0  0  0
   20.3956   -7.5635    7.3746 C   0  0  0  0  0  0  0  0  0  0  0  0
 11 12  2  0  0  0
 12 13  2  0  0  0
 12  9  1  0  0  0
  9  1  1  0  0  0
  1  2  2  0  0  0
  2  3  1  0  0  0
  3  4  2  0  0  0
  4  5  1  0  0  0
  4  6  1  0  0  0
  6 20  1  0  0  0
 20 21  3  0  0  0
 21 22  1  0  0  0
 22 23  2  0  0  0
 23 24  1  0  0  0
 24 25  2  0  0  0
 25 26  1  0  0  0
 26 27  1  0  0  0
 27 28  2  0  0  0
 28 32  1  0  0  0
 32 33  1  0  0  0
 33 34  1  0  0  0
 28 29  1  0  0  0
 29 30  2  0  0  0
  6  7  2  0  0  0
  7  8  1  0  0  0
 12 14  1  0  0  0
 14 15  2  0  0  0
 15 16  1  0  0  0
 16 17  2  0  0  0
 17 18  1  0  0  0
 18 19  2  0  0  0
  7  1  1  0  0  0
 19 14  1  0  0  0
 30 22  1  0  0  0
 29 25  1  0  0  0
 34 32  1  0  0  0
  9 10  1  0  0  0
 26 31  1  0  0  0
M  END
>  <minimizedAffinity>
-6.22798

>  <minimizedRMSD>
1.51629

$$$$
CHEMBL1884010 8583001 LN01059960 MCULE-3663123971 MolPort-004-901-648 PubChem-16033913 ZINC000008583001


 32 35  0  0  0  0  0  0  0  0999 V2000
   18.9526   -8.1520    7.7700 N   0  0  0  0  0  0  0  0  0  0  0  0
   19.6550   -7.5980    8.7543 N   0  0  0  0  0  0  0  0  0  0  0  0
   19.1340   -7.9771    9.9508 C   0  0  0  0  0  0  0  0  0  0  0  0
   18.0588   -8.8052    9.6839 C   0  0  0  0  0  0  0  0  0  0  0  0
   17.1409   -9.4931   10.4815 C   0  0  0  0  0  0  0  0  0  0  0  0
   16.1860  -10.2314    9.8420 N   0  0  0  0  0  0  0  0  0  0  0  0
   16.1250  -10.3006    8.4743 C   0  0  0  0  0  0  0  0  0  0  0  0
   17.0279   -9.6243    7.7043 N   0  0  0  0  0  0  0  0  0  0  0  0
   17.9783   -8.8888    8.3311 C   0  0  0  0  0  0  0  0  0  0  0  0
   19.2376   -7.9559    6.3731 C   0  0  0  0  0  0  0  0  0  0  0  0
   18.3968   -8.4817    5.3790 C   0  0  0  0  0  0  0  0  0  0  0  0
   18.6862   -8.2833    4.0260 C   0  0  0  0  0  0  0  0  0  0  0  0
   19.8198   -7.5567    3.6538 C   0  0  0  0  0  0  0  0  0  0  0  0
   20.6636   -7.0288    4.6340 C   0  0  0  0  0  0  0  0  0  0  0  0
   20.3735   -7.2277    5.9870 C   0  0  0  0  0  0  0  0  0  0  0  0
   20.1279   -7.3455    2.2155 C   0  0  0  0  0  0  0  0  0  0  0  0
   17.1573   -9.4527   11.9130 N   0  0  0  0  0  0  0  0  0  0  0  0
   16.3315   -9.1797   12.3744 H   0  0  0  0  0  0  0  0  0  0  0  0
   18.3131   -9.7883   12.7310 C   0  0  0  0  0  0  0  0  0  0  0  0
   17.9037  -10.7243   13.8577 C   0  0  0  0  0  0  0  0  0  0  0  0
   17.1404  -10.0008   14.9181 C   0  0  0  0  0  0  0  0  0  0  0  0
   16.4050   -8.8482   14.6120 C   0  0  0  0  0  0  0  0  0  0  0  0
   15.6817   -8.1915   15.6116 C   0  0  0  0  0  0  0  0  0  0  0  0
   15.6871   -8.6852   16.9207 C   0  0  0  0  0  0  0  0  0  0  0  0
   16.4102   -9.8443   17.2238 C   0  0  0  0  0  0  0  0  0  0  0  0
   17.1339  -10.5011   16.2242 C   0  0  0  0  0  0  0  0  0  0  0  0
   14.7705   -7.8675   18.1729 S   0  0  0  0  0  0  0  0  0  0  0  0
   13.2182   -8.6082   18.3291 N   0  0  0  0  0  0  0  0  0  0  0  0
   14.6012   -6.4184   17.8121 O   0  0  0  0  0  0  0  0  0  0  0  0
   15.5046   -7.9603   19.4809 O   0  0  0  0  0  0  0  0  0  0  0  0
   12.7204   -8.5450   17.4411 H   0  0  0  0  0  0  0  0  0  0  0  0
   12.6838   -8.1284   19.0534 H   0  0  0  0  0  0  0  0  0  0  0  0
  1 10  1  0  0  0
 10 11  2  0  0  0
 11 12  1  0  0  0
 12 13  2  0  0  0
 13 14  1  0  0  0
 14 15  2  0  0  0
 13 16  1  0  0  0
  1  2  1  0  0  0
  2  3  2  0  0  0
  3  4  1  0  0  0
  4  5  2  0  0  0
  5 17  1  0  0  0
 17 19  1  0  0  0
 19 20  1  0  0  0
 20 21  1  0  0  0
 21 22  2  0  0  0
 22 23  1  0  0  0
 23 24  2  0  0  0
 24 25  1  0  0  0
 25 26  2  0  0  0
 24 27  1  0  0  0
 27 28  1  0  0  0
 27 29  2  0  0  0
 27 30  2  0  0  0
  5  6  1  0  0  0
  6  7  2  0  0  0
  7  8  1  0  0  0
  8  9  2  0  0  0
  9  1  1  0  0  0
 15 10  1  0  0  0
  9  4  1  0  0  0
 26 21  1  0  0  0
 17 18  1  0  0  0
 28 31  1  0  0  0
 28 32  1  0  0  0
M  END
>  <minimizedAffinity>
-6.36979

>  <minimizedRMSD>
1.52014

$$$$
CHEMBL3671307


 27 30  0  0  0  0  0  0  0  0999 V2000
   17.2414   -9.4856   14.1675 C   0  0  0  0  0  0  0  0  0  0  0  0
   18.6185   -9.6224   13.9384 C   0  0  0  0  0  0  0  0  0  0  0  0
   19.1106   -9.8255   12.6477 C   0  0  0  0  0  0  0  0  0  0  0  0
   18.2354   -9.8995   11.5626 C   0  0  0  0  0  0  0  0  0  0  0  0
   16.8580   -9.7489   11.7802 C   0  0  0  0  0  0  0  0  0  0  0  0
   16.3553   -9.5450   13.0683 C   0  0  0  0  0  0  0  0  0  0  0  0
   14.8771   -9.4344   13.2358 C   0  0  0  0  0  0  0  0  0  0  0  0
   17.7208  -11.4521   16.3606 C   0  0  0  0  0  0  0  0  0  0  0  0
   17.0134  -10.1545   16.6016 C   0  0  0  0  0  0  0  0  0  0  0  0
   16.7653   -9.2481   15.5512 C   0  0  0  0  0  0  0  0  0  0  0  0
   16.0699   -8.0697   15.8381 C   0  0  0  0  0  0  0  0  0  0  0  0
   15.6469   -7.8207   17.1034 N   0  0  0  0  0  0  0  0  0  0  0  0
   15.8807   -8.6790   18.0962 N   0  0  0  0  0  0  0  0  0  0  0  0
   16.5510   -9.8413   17.8879 C   0  0  0  0  0  0  0  0  0  0  0  0
   16.7474  -10.6266   18.8536 O   0  0  0  0  0  0  0  0  0  0  0  0
   15.5599   -8.4649   19.0020 H   0  0  0  0  0  0  0  0  0  0  0  0
   18.7640  -10.0818   10.2783 O   0  0  0  0  0  0  0  0  0  0  0  0
   18.8639   -9.0823    9.3012 C   0  0  0  0  0  0  0  0  0  0  0  0
   20.0698   -8.4796    9.0759 N   0  0  0  0  0  0  0  0  0  0  0  0
   20.2352   -7.5096    8.1212 C   0  0  0  0  0  0  0  0  0  0  0  0
   19.1552   -7.1038    7.3169 C   0  0  0  0  0  0  0  0  0  0  0  0
   17.9375   -7.7339    7.5441 C   0  0  0  0  0  0  0  0  0  0  0  0
   16.7856   -7.5549    6.8836 N   0  0  0  0  0  0  0  0  0  0  0  0
   15.9037   -8.4011    7.4077 N   0  0  0  0  0  0  0  0  0  0  0  0
   16.4822   -9.1249    8.3986 C   0  0  0  0  0  0  0  0  0  0  0  0
   17.7869   -8.6925    8.4979 C   0  0  0  0  0  0  0  0  0  0  0  0
   14.9668   -8.4894    7.1185 H   0  0  0  0  0  0  0  0  0  0  0  0
  8  9  1  0  0  0
  9 10  2  0  0  0
 10 11  1  0  0  0
 11 12  2  0  0  0
 12 13  1  0  0  0
 13 14  1  0  0  0
 14 15  2  0  0  0
 10  1  1  0  0  0
  1  2  2  0  0  0
  2  3  1  0  0  0
  3  4  2  0  0  0
  4 17  1  0  0  0
 17 18  1  0  0  0
 18 19  2  0  0  0
 19 20  1  0  0  0
 20 21  2  0  0  0
 21 22  1  0  0  0
 22 23  2  0  0  0
 23 24  1  0  0  0
 24 25  1  0  0  0
 25 26  2  0  0  0
  4  5  1  0  0  0
  5  6  2  0  0  0
  6  7  1  0  0  0
 14  9  1  0  0  0
  6  1  1  0  0  0
 26 18  1  0  0  0
 26 22  1  0  0  0
 13 16  1  0  0  0
 24 27  1  0  0  0
M  END
>  <minimizedAffinity>
0.67780

>  <minimizedRMSD>
1.52015

$$$$
CHEMBL270754 PubChem-11749561 PubChem-143083786


 30 33  0  0  0  0  0  0  0  0999 V2000
   18.1595   -9.3109   11.3146 O   0  0  0  0  0  0  0  0  0  0  0  0
   19.3363   -8.0024    7.4796 C   0  0  0  0  0  0  0  0  0  0  0  0
   18.5279   -8.2853    6.3670 C   0  0  0  0  0  0  0  0  0  0  0  0
   17.3347   -9.0060    6.5390 C   0  0  0  0  0  0  0  0  0  0  0  0
   16.9463   -9.4432    7.8063 C   0  0  0  0  0  0  0  0  0  0  0  0
   17.7563   -9.1617    8.9277 C   0  0  0  0  0  0  0  0  0  0  0  0
   18.9447   -8.4433    8.7543 C   0  0  0  0  0  0  0  0  0  0  0  0
   17.3573   -9.6099   10.1973 C   0  0  0  0  0  0  0  0  0  0  0  0
   16.1511  -10.3170   10.3129 C   0  0  0  0  0  0  0  0  0  0  0  0
   15.3790  -10.5745    9.1789 C   0  0  0  0  0  0  0  0  0  0  0  0
   15.7885  -10.1374    7.9592 N   0  0  0  0  0  0  0  0  0  0  0  0
   18.9289   -7.8412    5.1022 O   0  0  0  0  0  0  0  0  0  0  0  0
   18.4811   -8.4459    3.8965 C   0  0  0  0  0  0  0  0  0  0  0  0
   20.5225   -7.2835    7.2959 O   0  0  0  0  0  0  0  0  0  0  0  0
   21.1446   -7.1366    6.0265 C   0  0  0  0  0  0  0  0  0  0  0  0
   17.7849   -9.3679   12.6669 C   0  0  0  0  0  0  0  0  0  0  0  0
   18.2621  -10.3530   13.5434 C   0  0  0  0  0  0  0  0  0  0  0  0
   17.8766  -10.3606   14.8859 C   0  0  0  0  0  0  0  0  0  0  0  0
   16.9983   -9.3647   15.3851 C   0  0  0  0  0  0  0  0  0  0  0  0
   16.5356   -8.3798   14.4986 C   0  0  0  0  0  0  0  0  0  0  0  0
   16.9262   -8.3812   13.1577 C   0  0  0  0  0  0  0  0  0  0  0  0
   16.6176   -9.3893   16.7544 C   0  0  0  0  0  0  0  0  0  0  0  0
   17.1283  -10.4077   17.5751 C   0  0  0  0  0  0  0  0  0  0  0  0
   17.9917  -11.3810   17.0720 C   0  0  0  0  0  0  0  0  0  0  0  0
   18.3650  -11.3572   15.7303 C   0  0  0  0  0  0  0  0  0  0  0  0
   15.7035   -8.3944   17.3776 C   0  0  0  0  0  0  0  0  0  0  0  0
   14.9140   -7.7073   16.6742 O   0  0  0  0  0  0  0  0  0  0  0  0
   15.7177   -8.2123   18.7969 N   0  0  0  0  0  0  0  0  0  0  0  0
   14.8485   -7.2565   19.4622 C   0  0  0  0  0  0  0  0  0  0  0  0
   16.3364   -8.7520   19.3402 H   0  0  0  0  0  0  0  0  0  0  0  0
  2  3  2  0  0  0
  3  4  1  0  0  0
  4  5  2  0  0  0
  5  6  1  0  0  0
  6  7  2  0  0  0
  6  8  1  0  0  0
  8  9  2  0  0  0
  9 10  1  0  0  0
 10 11  2  0  0  0
  8  1  1  0  0  0
  1 16  1  0  0  0
 16 17  2  0  0  0
 17 18  1  0  0  0
 18 19  2  0  0  0
 19 20  1  0  0  0
 20 21  2  0  0  0
 19 22  1  0  0  0
 22 23  2  0  0  0
 23 24  1  0  0  0
 24 25  2  0  0  0
 22 26  1  0  0  0
 26 27  2  0  0  0
 26 28  1  0  0  0
 28 29  1  0  0  0
  3 12  1  0  0  0
 12 13  1  0  0  0
  2 14  1  0  0  0
 14 15  1  0  0  0
  7  2  1  0  0  0
 21 16  1  0  0  0
 11  5  1  0  0  0
 25 18  1  0  0  0
 28 30  1  0  0  0
M  END
>  <minimizedAffinity>
-4.70443

>  <minimizedRMSD>
1.52026

$$$$
CHEMBL272838 PubChem-24799620


 39 43  0  0  0  0  0  0  0  0999 V2000
   17.9716   -8.3543   16.5544 C   0  0  0  0  0  0  0  0  0  0  0  0
   17.2908   -7.2516   15.7625 C   0  0  0  0  0  0  0  0  0  0  0  0
   16.6021   -7.8193   16.9933 C   0  0  0  0  0  0  0  0  0  0  0  0
   18.4382  -10.9551   13.7865 C   0  0  0  0  0  0  0  0  0  0  0  0
   18.4063  -12.1364   14.5320 C   0  0  0  0  0  0  0  0  0  0  0  0
   18.2294  -12.0934   15.9181 C   0  0  0  0  0  0  0  0  0  0  0  0
   18.0789  -10.8659   16.5652 C   0  0  0  0  0  0  0  0  0  0  0  0
   18.0951   -9.6731   15.8320 C   0  0  0  0  0  0  0  0  0  0  0  0
   18.2882   -9.7246   14.4429 C   0  0  0  0  0  0  0  0  0  0  0  0
   18.6265  -11.0290   12.4040 O   0  0  0  0  0  0  0  0  0  0  0  0
   18.9536   -9.8933   11.6134 C   0  0  0  0  0  0  0  0  0  0  0  0
   14.2510  -10.4621   10.0247 C   0  0  0  0  0  0  0  0  0  0  0  0
   15.6232   -9.9243    9.8140 C   0  0  0  0  0  0  0  0  0  0  0  0
   16.6135  -10.1550   10.7708 C   0  0  0  0  0  0  0  0  0  0  0  0
   17.9069   -9.6651   10.5675 C   0  0  0  0  0  0  0  0  0  0  0  0
   18.1851   -8.9262    9.4051 C   0  0  0  0  0  0  0  0  0  0  0  0
   19.4595   -8.3929    9.1580 C   0  0  0  0  0  0  0  0  0  0  0  0
   19.7045   -7.6646    7.9887 C   0  0  0  0  0  0  0  0  0  0  0  0
   18.6804   -7.4627    7.0591 C   0  0  0  0  0  0  0  0  0  0  0  0
   17.4057   -7.9865    7.2951 C   0  0  0  0  0  0  0  0  0  0  0  0
   17.1510   -8.7156    8.4623 C   0  0  0  0  0  0  0  0  0  0  0  0
   15.9084   -9.2175    8.6909 N   0  0  0  0  0  0  0  0  0  0  0  0
   15.4436   -8.6842   16.5928 C   0  0  0  0  0  0  0  0  0  0  0  0
   14.4417   -8.7862   17.3492 O   0  0  0  0  0  0  0  0  0  0  0  0
   15.5068   -9.4423   15.3862 N   0  0  0  0  0  0  0  0  0  0  0  0
   14.4979  -10.2706   15.0318 O   0  0  0  0  0  0  0  0  0  0  0  0
   16.2960   -9.3615   14.8031 H   0  0  0  0  0  0  0  0  0  0  0  0
   13.8007  -10.2375   15.7054 H   0  0  0  0  0  0  0  0  0  0  0  0
   19.1616   -7.8707   17.3339 C   0  0  0  0  0  0  0  0  0  0  0  0
   20.3076   -7.9727   16.8154 O   0  0  0  0  0  0  0  0  0  0  0  0
   19.0320   -7.3742   18.6783 N   0  0  0  0  0  0  0  0  0  0  0  0
   20.2169   -7.2085   19.5043 C   0  0  0  0  0  0  0  0  0  0  0  0
   17.7358   -7.1848   19.3219 C   0  0  0  0  0  0  0  0  0  0  0  0
   17.8755   -6.5624   20.6780 C   0  0  0  0  0  0  0  0  0  0  0  0
   19.0719   -5.9453   21.0750 C   0  0  0  0  0  0  0  0  0  0  0  0
   19.1963   -5.4142   22.3634 C   0  0  0  0  0  0  0  0  0  0  0  0
   18.1315   -5.5122   23.2640 C   0  0  0  0  0  0  0  0  0  0  0  0
   16.9442   -6.1444   22.8785 C   0  0  0  0  0  0  0  0  0  0  0  0
   16.8202   -6.6734   21.5899 C   0  0  0  0  0  0  0  0  0  0  0  0
 12 13  1  0  0  0
 13 14  2  0  0  0
 14 15  1  0  0  0
 15 11  1  0  0  0
 15 16  2  0  0  0
 11 10  1  0  0  0
 10  4  1  0  0  0
  4  5  2  0  0  0
  5  6  1  0  0  0
  6  7  2  0  0  0
  7  8  1  0  0  0
  8  9  2  0  0  0
  1  8  1  0  0  0
  1 29  1  0  0  0
  1  2  1  0  0  0
 29 30  2  0  0  0
 29 31  1  0  0  0
 31 32  1  0  0  0
 31 33  1  0  0  0
 33 34  1  0  0  0
 34 35  2  0  0  0
 35 36  1  0  0  0
 36 37  2  0  0  0
 37 38  1  0  0  0
 38 39  2  0  0  0
 39 34  1  0  0  0
  2  3  1  0  0  0
  3 23  1  0  0  0
  3  1  1  0  0  0
 23 24  2  0  0  0
 23 25  1  0  0  0
 25 26  1  0  0  0
  9  4  1  0  0  0
 16 17  1  0  0  0
 17 18  2  0  0  0
 18 19  1  0  0  0
 19 20  2  0  0  0
 20 21  1  0  0  0
 21 22  2  0  0  0
 21 16  1  0  0  0
 22 13  1  0  0  0
 25 27  1  0  0  0
 26 28  1  0  0  0
M  END
>  <minimizedAffinity>
2.86356

>  <minimizedRMSD>
1.52357

$$$$
CHEMBL4469983 PubChem-75201899


 27 30  0  0  0  0  0  0  0  0999 V2000
   16.4843   -9.0704   15.1179 C   0  0  0  0  0  0  0  0  0  0  0  0
   17.0217  -10.3490   14.8871 C   0  0  0  0  0  0  0  0  0  0  0  0
   17.1609  -10.8237   13.5796 C   0  0  0  0  0  0  0  0  0  0  0  0
   16.7771  -10.0338   12.4922 C   0  0  0  0  0  0  0  0  0  0  0  0
   16.2315   -8.7619   12.7246 C   0  0  0  0  0  0  0  0  0  0  0  0
   16.0907   -8.2827   14.0286 C   0  0  0  0  0  0  0  0  0  0  0  0
   17.4239  -11.1288   15.9216 F   0  0  0  0  0  0  0  0  0  0  0  0
   13.8144   -8.4420   16.1979 C   0  0  0  0  0  0  0  0  0  0  0  0
   15.0533   -8.2572   17.0198 C   0  0  0  0  0  0  0  0  0  0  0  0
   16.3290   -8.5444   16.4938 C   0  0  0  0  0  0  0  0  0  0  0  0
   17.4559   -8.3125   17.3062 C   0  0  0  0  0  0  0  0  0  0  0  0
   17.2874   -7.8314   18.5645 N   0  0  0  0  0  0  0  0  0  0  0  0
   16.0784   -7.5641   19.0576 N   0  0  0  0  0  0  0  0  0  0  0  0
   14.9531   -7.7605   18.3260 C   0  0  0  0  0  0  0  0  0  0  0  0
   13.8301   -7.4907   18.8298 O   0  0  0  0  0  0  0  0  0  0  0  0
   18.8409   -8.6077   16.8346 C   0  0  0  0  0  0  0  0  0  0  0  0
   16.0001   -7.2158   19.9751 H   0  0  0  0  0  0  0  0  0  0  0  0
   16.9120  -10.5533   11.1982 O   0  0  0  0  0  0  0  0  0  0  0  0
   17.0591   -9.7838   10.0365 C   0  0  0  0  0  0  0  0  0  0  0  0
   16.0876   -9.8252    9.0765 N   0  0  0  0  0  0  0  0  0  0  0  0
   16.1802   -9.1080    7.9129 C   0  0  0  0  0  0  0  0  0  0  0  0
   17.3037   -8.3040    7.6559 C   0  0  0  0  0  0  0  0  0  0  0  0
   18.2966   -8.2842    8.6291 C   0  0  0  0  0  0  0  0  0  0  0  0
   18.1891   -8.9957    9.7855 C   0  0  0  0  0  0  0  0  0  0  0  0
   19.3484   -8.7956   10.5062 C   0  0  0  0  0  0  0  0  0  0  0  0
   20.0928   -7.9249    9.7063 C   0  0  0  0  0  0  0  0  0  0  0  0
   19.4333   -7.6432    8.5963 O   0  0  0  0  0  0  0  0  0  0  0  0
  8  9  1  0  0  0
  9 10  2  0  0  0
 10 11  1  0  0  0
 11 12  2  0  0  0
 12 13  1  0  0  0
 13 14  1  0  0  0
 14 15  2  0  0  0
 11 16  1  0  0  0
 10  1  1  0  0  0
  1  2  2  0  0  0
  2  3  1  0  0  0
  3  4  2  0  0  0
  4  5  1  0  0  0
  5  6  2  0  0  0
  4 18  1  0  0  0
 18 19  1  0  0  0
 19 20  2  0  0  0
 20 21  1  0  0  0
 21 22  2  0  0  0
 22 23  1  0  0  0
 23 24  2  0  0  0
 24 25  1  0  0  0
 25 26  2  0  0  0
 26 27  1  0  0  0
  2  7  1  0  0  0
 14  9  1  0  0  0
  6  1  1  0  0  0
 24 19  1  0  0  0
 27 23  1  0  0  0
 13 17  1  0  0  0
M  END
>  <minimizedAffinity>
-2.16761

>  <minimizedRMSD>
1.52483

$$$$
CHEMBL3961527 PubChem-57509633


 36 41  0  0  0  0  0  0  0  0999 V2000
   16.1804   -8.9322   18.0685 C   0  0  0  0  0  0  0  0  0  0  0  0
   16.0482   -8.7014   16.6920 C   0  0  0  0  0  0  0  0  0  0  0  0
   16.6669   -9.5503   15.7708 C   0  0  0  0  0  0  0  0  0  0  0  0
   17.4338  -10.6393   16.2090 C   0  0  0  0  0  0  0  0  0  0  0  0
   17.5530  -10.8739   17.5867 C   0  0  0  0  0  0  0  0  0  0  0  0
   16.9338  -10.0247   18.5081 C   0  0  0  0  0  0  0  0  0  0  0  0
   13.8997   -7.1122   17.7056 O   0  0  0  0  0  0  0  0  0  0  0  0
   14.4461   -7.2041   18.8380 C   0  0  0  0  0  0  0  0  0  0  0  0
   15.5615   -8.0834   19.0447 N   0  0  0  0  0  0  0  0  0  0  0  0
   13.9494   -6.4234   19.9289 N   0  0  0  0  0  0  0  0  0  0  0  0
   12.8203   -5.5014   19.8162 C   0  0  0  0  0  0  0  0  0  0  0  0
   12.7103   -4.9567   21.1881 C   0  0  0  0  0  0  0  0  0  0  0  0
   11.7919   -4.0206   21.6620 C   0  0  0  0  0  0  0  0  0  0  0  0
   11.8661   -3.6399   23.0115 C   0  0  0  0  0  0  0  0  0  0  0  0
   12.8470   -4.1957   23.8547 C   0  0  0  0  0  0  0  0  0  0  0  0
   13.7616   -5.1369   23.3553 C   0  0  0  0  0  0  0  0  0  0  0  0
   13.6689   -5.4999   22.0122 C   0  0  0  0  0  0  0  0  0  0  0  0
   14.5174   -6.4632   21.2752 C   0  0  0  0  0  0  0  0  0  0  0  0
   15.9418   -8.1062   19.9525 H   0  0  0  0  0  0  0  0  0  0  0  0
   18.0732  -11.5659   15.2458 C   0  0  0  0  0  0  0  0  0  0  0  0
   18.3355  -12.7428   15.6186 O   0  0  0  0  0  0  0  0  0  0  0  0
   18.3877  -11.1720   13.8980 N   0  0  0  0  0  0  0  0  0  0  0  0
   18.7525   -9.7835   13.5897 C   0  0  0  0  0  0  0  0  0  0  0  0
   19.2261   -9.6425   12.1454 C   0  0  0  0  0  0  0  0  0  0  0  0
   18.3024  -10.3434   11.2520 N   0  0  0  0  0  0  0  0  0  0  0  0
   17.9326  -11.7321   11.5543 C   0  0  0  0  0  0  0  0  0  0  0  0
   18.5427  -12.2066   12.8738 C   0  0  0  0  0  0  0  0  0  0  0  0
   17.6958   -9.6911   10.1164 C   0  0  0  0  0  0  0  0  0  0  0  0
   16.4087  -10.0007    9.7638 N   0  0  0  0  0  0  0  0  0  0  0  0
   15.7739   -9.4194    8.6994 C   0  0  0  0  0  0  0  0  0  0  0  0
   16.4323   -8.4635    7.9115 C   0  0  0  0  0  0  0  0  0  0  0  0
   17.7378   -8.1489    8.2674 C   0  0  0  0  0  0  0  0  0  0  0  0
   18.5348   -7.2966    7.6822 O   0  0  0  0  0  0  0  0  0  0  0  0
   19.6839   -7.2984    8.3326 C   0  0  0  0  0  0  0  0  0  0  0  0
   19.6338   -8.1992    9.3979 C   0  0  0  0  0  0  0  0  0  0  0  0
   18.3622   -8.7340    9.3304 C   0  0  0  0  0  0  0  0  0  0  0  0
  7  8  2  0  0  0
  8  9  1  0  0  0
  9  1  1  0  0  0
  1  2  2  0  0  0
  2  3  1  0  0  0
  3  4  2  0  0  0
  4  5  1  0  0  0
  5  6  2  0  0  0
  4 20  1  0  0  0
 20 21  2  0  0  0
 20 22  1  0  0  0
 22 23  1  0  0  0
 23 24  1  0  0  0
 24 25  1  0  0  0
 25 26  1  0  0  0
 26 27  1  0  0  0
 25 28  1  0  0  0
 28 29  2  0  0  0
 29 30  1  0  0  0
 30 31  2  0  0  0
 31 32  1  0  0  0
 32 33  1  0  0  0
 33 34  1  0  0  0
 34 35  2  0  0  0
 35 36  1  0  0  0
  8 10  1  0  0  0
 10 11  1  0  0  0
 11 12  1  0  0  0
 12 13  2  0  0  0
 13 14  1  0  0  0
 14 15  2  0  0  0
 15 16  1  0  0  0
 16 17  2  0  0  0
 17 18  1  0  0  0
  6  1  1  0  0  0
 27 22  1  0  0  0
 36 28  1  0  0  0
 18 10  1  0  0  0
 36 32  2  0  0  0
 17 12  1  0  0  0
  9 19  1  0  0  0
M  END
>  <minimizedAffinity>
-2.53299

>  <minimizedRMSD>
1.52501

$$$$
CHEMBL1405432


 31 34  0  0  0  0  0  0  0  0999 V2000
   18.2955  -10.9348   15.1456 S   0  0  0  0  0  0  0  0  0  0  0  0
   17.3326  -10.4604   13.7149 C   0  0  0  0  0  0  0  0  0  0  0  0
   17.8074  -10.3845   12.4963 O   0  0  0  0  0  0  0  0  0  0  0  0
   16.7866  -10.0056   11.7654 C   0  0  0  0  0  0  0  0  0  0  0  0
   15.6790   -9.8455   12.5145 N   0  0  0  0  0  0  0  0  0  0  0  0
   16.0273  -10.1363   13.7583 N   0  0  0  0  0  0  0  0  0  0  0  0
   16.8383   -9.7821   10.3167 C   0  0  0  0  0  0  0  0  0  0  0  0
   15.9690  -10.3221    9.4299 N   0  0  0  0  0  0  0  0  0  0  0  0
   16.2949   -9.9199    8.2039 N   0  0  0  0  0  0  0  0  0  0  0  0
   17.3723   -9.1240    8.3177 C   0  0  0  0  0  0  0  0  0  0  0  0
   17.7446   -9.0118    9.6268 C   0  0  0  0  0  0  0  0  0  0  0  0
   18.8346   -8.2429   10.0288 C   0  0  0  0  0  0  0  0  0  0  0  0
   19.5537   -7.5724    9.0216 C   0  0  0  0  0  0  0  0  0  0  0  0
   19.1702   -7.6872    7.6657 C   0  0  0  0  0  0  0  0  0  0  0  0
   18.0621   -8.4739    7.2976 C   0  0  0  0  0  0  0  0  0  0  0  0
   15.2173  -10.9164    9.6557 H   0  0  0  0  0  0  0  0  0  0  0  0
   18.7004   -9.2117   15.5703 C   0  0  0  0  0  0  0  0  0  0  0  0
   17.4711   -8.4622   15.9539 C   0  0  0  0  0  0  0  0  0  0  0  0
   17.0621   -7.5321   15.2101 O   0  0  0  0  0  0  0  0  0  0  0  0
   16.7843   -8.8022   17.1658 N   0  0  0  0  0  0  0  0  0  0  0  0
   17.1873   -9.5108   17.7180 H   0  0  0  0  0  0  0  0  0  0  0  0
   15.5708   -8.2164   17.6563 C   0  0  0  0  0  0  0  0  0  0  0  0
   15.4651   -7.9312   19.0201 C   0  0  0  0  0  0  0  0  0  0  0  0
   14.2974   -7.3628   19.5358 C   0  0  0  0  0  0  0  0  0  0  0  0
   13.2156   -7.0533   18.6926 C   0  0  0  0  0  0  0  0  0  0  0  0
   13.3183   -7.3712   17.3268 C   0  0  0  0  0  0  0  0  0  0  0  0
   14.4863   -7.9395   16.8128 C   0  0  0  0  0  0  0  0  0  0  0  0
   11.9225   -6.5019   19.2635 C   0  0  0  0  0  0  0  0  0  0  0  0
   11.4452   -5.2825   18.4888 C   0  0  0  0  0  0  0  0  0  0  0  0
   10.8484   -7.5704   19.1903 C   0  0  0  0  0  0  0  0  0  0  0  0
   12.0878   -6.0810   20.7161 C   0  0  0  0  0  0  0  0  0  0  0  0
  1  2  1  0  0  0
  2  3  1  0  0  0
  3  4  1  0  0  0
  4  5  2  0  0  0
  5  6  1  0  0  0
  4  7  1  0  0  0
  7  8  1  0  0  0
  8  9  1  0  0  0
  9 10  2  0  0  0
 10 11  1  0  0  0
 11 12  1  0  0  0
 12 13  2  0  0  0
 13 14  1  0  0  0
 14 15  2  0  0  0
  1 17  1  0  0  0
 17 18  1  0  0  0
 18 19  2  0  0  0
 18 20  1  0  0  0
 20 22  1  0  0  0
 22 23  2  0  0  0
 23 24  1  0  0  0
 24 25  2  0  0  0
 25 28  1  0  0  0
 28 29  1  0  0  0
 28 30  1  0  0  0
 28 31  1  0  0  0
 25 26  1  0  0  0
 26 27  2  0  0  0
  6  2  2  0  0  0
 11  7  2  0  0  0
 27 22  1  0  0  0
 15 10  1  0  0  0
  8 16  1  0  0  0
 20 21  1  0  0  0
M  END
>  <minimizedAffinity>
-10.23503

>  <minimizedRMSD>
1.52626

$$$$
CHEMBL323079 PubChem-44336698


 40 43  0  0  0  0  0  0  0  0999 V2000
   15.7901  -10.0169   12.8966 N   0  0  0  0  0  0  0  0  0  0  0  0
   16.7803  -10.8115   12.4135 C   0  0  0  0  0  0  0  0  0  0  0  0
   17.7500  -11.0812   13.3271 N   0  0  0  0  0  0  0  0  0  0  0  0
   17.3220  -10.4219   14.4207 C   0  0  0  0  0  0  0  0  0  0  0  0
   17.9435  -10.3503   15.6635 C   0  0  0  0  0  0  0  0  0  0  0  0
   17.3129   -9.5819   16.6595 C   0  0  0  0  0  0  0  0  0  0  0  0
   16.0937   -8.9069   16.3996 C   0  0  0  0  0  0  0  0  0  0  0  0
   15.4970   -9.0044   15.1241 C   0  0  0  0  0  0  0  0  0  0  0  0
   16.1479   -9.7769   14.1642 C   0  0  0  0  0  0  0  0  0  0  0  0
   15.4544   -8.1041   17.4562 C   0  0  0  0  0  0  0  0  0  0  0  0
   14.7922   -7.0748   17.1514 O   0  0  0  0  0  0  0  0  0  0  0  0
   15.5871   -8.4942   18.8300 N   0  0  0  0  0  0  0  0  0  0  0  0
   16.1114   -9.3043   19.0251 H   0  0  0  0  0  0  0  0  0  0  0  0
   15.0023   -7.7787   19.9609 C   0  0  0  0  0  0  0  0  0  0  0  0
   13.6531   -7.2246   19.6034 C   0  0  0  0  0  0  0  0  0  0  0  0
   13.4156   -5.9897   19.6847 O   0  0  0  0  0  0  0  0  0  0  0  0
   12.6624   -8.0830   19.1461 O   0  0  0  0  0  0  0  0  0  0  0  0
   12.8316   -9.0024   19.0829 H   0  0  0  0  0  0  0  0  0  0  0  0
   15.9695   -6.7243   20.4922 C   0  0  0  0  0  0  0  0  0  0  0  0
   15.8455   -6.5922   22.3014 P   0  0  0  0  0  0  0  0  0  0  0  0
   15.2104   -5.2742   22.6813 O   0  0  0  0  0  0  0  0  0  0  0  0
   17.3944   -6.6804   22.9739 O   0  0  0  0  0  0  0  0  0  0  0  0
   14.9038   -7.8641   22.8981 O   0  0  0  0  0  0  0  0  0  0  0  0
   17.9368   -5.9519   22.6333 H   0  0  0  0  0  0  0  0  0  0  0  0
   14.0144   -7.8159   22.5139 H   0  0  0  0  0  0  0  0  0  0  0  0
   14.6258   -9.4875   12.1934 C   0  0  0  0  0  0  0  0  0  0  0  0
   13.5358   -9.9158   10.0146 C   0  0  0  0  0  0  0  0  0  0  0  0
   13.9980  -10.5518   11.3078 C   0  0  0  0  0  0  0  0  0  0  0  0
   12.8090  -11.1812   12.0076 C   0  0  0  0  0  0  0  0  0  0  0  0
   16.8514  -11.2927   11.0013 C   0  0  0  0  0  0  0  0  0  0  0  0
   17.4073  -10.2245   10.1242 C   0  0  0  0  0  0  0  0  0  0  0  0
   16.9697  -10.0224    8.8539 N   0  0  0  0  0  0  0  0  0  0  0  0
   17.6906   -8.9606    8.4683 C   0  0  0  0  0  0  0  0  0  0  0  0
   17.6527   -8.3095    7.2379 C   0  0  0  0  0  0  0  0  0  0  0  0
   18.5037   -7.2016    7.0666 C   0  0  0  0  0  0  0  0  0  0  0  0
   19.3540   -6.7805    8.1141 C   0  0  0  0  0  0  0  0  0  0  0  0
   19.3639   -7.4631    9.3449 C   0  0  0  0  0  0  0  0  0  0  0  0
   18.5108   -8.5559    9.4771 C   0  0  0  0  0  0  0  0  0  0  0  0
   18.3487   -9.3421   10.5504 N   0  0  0  0  0  0  0  0  0  0  0  0
   18.7977   -9.2928   11.4252 H   0  0  0  0  0  0  0  0  0  0  0  0
 27 28  1  0  0  0
 28 29  1  0  0  0
 28 26  1  0  0  0
 26  1  1  0  0  0
  1  2  1  0  0  0
  2 30  1  0  0  0
  2  3  2  0  0  0
 30 31  1  0  0  0
 31 32  2  0  0  0
 32 33  1  0  0  0
 33 34  2  0  0  0
 34 35  1  0  0  0
 35 36  2  0  0  0
 36 37  1  0  0  0
 37 38  2  0  0  0
 38 39  1  0  0  0
 38 33  1  0  0  0
 39 31  1  0  0  0
  3  4  1  0  0  0
  4  5  2  0  0  0
  5  6  1  0  0  0
  6  7  2  0  0  0
  7 10  1  0  0  0
  7  8  1  0  0  0
 10 11  2  0  0  0
 10 12  1  0  0  0
 14 12  1  0  0  0
 14 19  1  0  0  0
 14 15  1  0  0  0
 19 20  1  0  0  0
 20 21  2  0  0  0
 20 22  1  0  0  0
 20 23  1  0  0  0
 15 16  2  0  0  0
 15 17  1  0  0  0
  8  9  2  0  0  0
  9  1  1  0  0  0
  9  4  1  0  0  0
 39 40  1  0  0  0
 12 13  1  0  0  0
 22 24  1  0  0  0
 23 25  1  0  0  0
 17 18  1  0  0  0
M  END
>  <minimizedAffinity>
-3.38640

>  <minimizedRMSD>
1.52776

$$$$
CHEMBL5188987 PubChem-155926924


 39 43  0  0  0  0  0  0  0  0999 V2000
   15.5918   -8.2712   17.0931 C   0  0  0  0  0  0  0  0  0  0  0  0
   14.8005   -7.4717   16.5222 O   0  0  0  0  0  0  0  0  0  0  0  0
   15.6890   -8.3013   18.5241 N   0  0  0  0  0  0  0  0  0  0  0  0
   16.3212   -8.9456   18.9170 H   0  0  0  0  0  0  0  0  0  0  0  0
   18.8687  -11.8542   13.9634 C   0  0  0  0  0  0  0  0  0  0  0  0
   18.0110  -10.9157   14.7443 C   0  0  0  0  0  0  0  0  0  0  0  0
   17.1926   -9.9607   14.1113 C   0  0  0  0  0  0  0  0  0  0  0  0
   16.4058   -9.1013   14.8848 C   0  0  0  0  0  0  0  0  0  0  0  0
   16.4228   -9.1804   16.2844 C   0  0  0  0  0  0  0  0  0  0  0  0
   17.2400  -10.1339   16.9057 C   0  0  0  0  0  0  0  0  0  0  0  0
   18.0288  -10.9957   16.1397 C   0  0  0  0  0  0  0  0  0  0  0  0
   17.1421   -9.8420   12.6769 C   0  0  0  0  0  0  0  0  0  0  0  0
   17.1001   -9.7422   11.4764 C   0  0  0  0  0  0  0  0  0  0  0  0
   17.0511   -9.6210   10.0449 C   0  0  0  0  0  0  0  0  0  0  0  0
   16.1625  -10.2586    9.1898 C   0  0  0  0  0  0  0  0  0  0  0  0
   16.4426   -9.8839    7.9115 N   0  0  0  0  0  0  0  0  0  0  0  0
   17.4849   -9.0375    8.0349 C   0  0  0  0  0  0  0  0  0  0  0  0
   17.8658   -8.8653    9.3032 N   0  0  0  0  0  0  0  0  0  0  0  0
   18.8715   -8.0785    9.6804 N   0  0  0  0  0  0  0  0  0  0  0  0
   19.5670   -7.3977    8.7251 C   0  0  0  0  0  0  0  0  0  0  0  0
   19.2114   -7.5389    7.3692 C   0  0  0  0  0  0  0  0  0  0  0  0
   18.1453   -8.3774    7.0057 C   0  0  0  0  0  0  0  0  0  0  0  0
   14.9485   -7.4778   19.4321 C   0  0  0  0  0  0  0  0  0  0  0  0
   15.4509   -7.2577   20.7136 C   0  0  0  0  0  0  0  0  0  0  0  0
   14.7245   -6.4504   21.5977 C   0  0  0  0  0  0  0  0  0  0  0  0
   13.5464   -5.9070   21.1836 N   0  0  0  0  0  0  0  0  0  0  0  0
   13.0690   -6.1305   19.9318 C   0  0  0  0  0  0  0  0  0  0  0  0
   13.7677   -6.9099   19.0666 N   0  0  0  0  0  0  0  0  0  0  0  0
   11.7809   -5.5225   19.5089 C   0  0  0  0  0  0  0  0  0  0  0  0
   15.2031   -6.2039   22.9304 N   0  0  0  0  0  0  0  0  0  0  0  0
   14.5486   -5.2019   23.7701 C   0  0  0  0  0  0  0  0  0  0  0  0
   14.5391   -5.6792   25.2201 C   0  0  0  0  0  0  0  0  0  0  0  0
   15.8997   -6.0089   25.6442 N   0  0  0  0  0  0  0  0  0  0  0  0
   16.3552   -7.1562   24.8619 C   0  0  0  0  0  0  0  0  0  0  0  0
   16.4727   -6.7677   23.3902 C   0  0  0  0  0  0  0  0  0  0  0  0
   15.8204   -6.4521   27.0268 C   0  0  0  0  0  0  0  0  0  0  0  0
   15.4620   -5.2866   27.9329 C   0  0  0  0  0  0  0  0  0  0  0  0
   16.4642   -4.3178   27.8791 O   0  0  0  0  0  0  0  0  0  0  0  0
   17.3033   -4.7038   28.1754 H   0  0  0  0  0  0  0  0  0  0  0  0
  5  6  1  0  0  0
  6  7  2  0  0  0
  7  8  1  0  0  0
  8  9  2  0  0  0
  9 10  1  0  0  0
 10 11  2  0  0  0
  9  1  1  0  0  0
  1  2  2  0  0  0
  1  3  1  0  0  0
  3 23  1  0  0  0
 23 24  2  0  0  0
 24 25  1  0  0  0
 25 26  2  0  0  0
 26 27  1  0  0  0
 27 28  2  0  0  0
 27 29  1  0  0  0
 25 30  1  0  0  0
 30 31  1  0  0  0
 31 32  1  0  0  0
 32 33  1  0  0  0
 33 34  1  0  0  0
 34 35  1  0  0  0
 33 36  1  0  0  0
 36 37  1  0  0  0
 37 38  1  0  0  0
  7 12  1  0  0  0
 12 13  3  0  0  0
 13 14  1  0  0  0
 14 15  2  0  0  0
 15 16  1  0  0  0
 16 17  2  0  0  0
 17 18  1  0  0  0
 18 19  1  0  0  0
 19 20  2  0  0  0
 20 21  1  0  0  0
 21 22  2  0  0  0
 11  6  1  0  0  0
 28 23  1  0  0  0
 35 30  1  0  0  0
 18 14  1  0  0  0
 22 17  1  0  0  0
  3  4  1  0  0  0
 38 39  1  0  0  0
M  END
>  <minimizedAffinity>
-12.27697

>  <minimizedRMSD>
1.53119

$$$$
CHEMBL3582386 PubChem-122179521


 31 34  0  0  0  0  0  0  0  0999 V2000
   17.0404   -9.6947   16.4682 C   0  0  0  0  0  0  0  0  0  0  0  0
   17.4841  -10.9566   16.8767 C   0  0  0  0  0  0  0  0  0  0  0  0
   17.9516  -11.8865   15.9482 C   0  0  0  0  0  0  0  0  0  0  0  0
   17.9819  -11.5662   14.5916 C   0  0  0  0  0  0  0  0  0  0  0  0
   18.4397  -12.4837   13.7029 F   0  0  0  0  0  0  0  0  0  0  0  0
   17.5410  -10.3076   14.1593 C   0  0  0  0  0  0  0  0  0  0  0  0
   17.0680   -9.3682   15.0926 C   0  0  0  0  0  0  0  0  0  0  0  0
   16.6437   -8.1611   14.6440 F   0  0  0  0  0  0  0  0  0  0  0  0
   16.5760   -8.7983   17.4889 N   0  0  0  0  0  0  0  0  0  0  0  0
   17.2434   -8.5096   18.1526 H   0  0  0  0  0  0  0  0  0  0  0  0
   13.9608   -9.2165   17.3238 O   0  0  0  0  0  0  0  0  0  0  0  0
   14.9729   -8.1660   17.6856 S   0  0  0  0  0  0  0  0  0  0  0  0
   14.8006   -6.9495   16.8195 O   0  0  0  0  0  0  0  0  0  0  0  0
   14.7469   -7.7085   19.3620 C   0  0  0  0  0  0  0  0  0  0  0  0
   13.4788   -7.7924   19.9447 C   0  0  0  0  0  0  0  0  0  0  0  0
   13.3165   -7.4254   21.2815 C   0  0  0  0  0  0  0  0  0  0  0  0
   14.4157   -6.9816   22.0191 C   0  0  0  0  0  0  0  0  0  0  0  0
   15.6670   -6.9121   21.4024 C   0  0  0  0  0  0  0  0  0  0  0  0
   15.8059   -7.2740   20.0984 N   0  0  0  0  0  0  0  0  0  0  0  0
   17.5723   -9.9793   12.7563 C   0  0  0  0  0  0  0  0  0  0  0  0
   17.5983   -9.7034   11.5829 C   0  0  0  0  0  0  0  0  0  0  0  0
   17.6295   -9.3738   10.1867 C   0  0  0  0  0  0  0  0  0  0  0  0
   16.6713   -9.9292    9.3060 C   0  0  0  0  0  0  0  0  0  0  0  0
   16.6903   -9.6219    7.9731 N   0  0  0  0  0  0  0  0  0  0  0  0
   17.6457   -8.7752    7.5165 C   0  0  0  0  0  0  0  0  0  0  0  0
   17.8159   -8.3646    6.2541 N   0  0  0  0  0  0  0  0  0  0  0  0
   18.8662   -7.5469    6.2643 N   0  0  0  0  0  0  0  0  0  0  0  0
   19.3661   -7.4334    7.5234 C   0  0  0  0  0  0  0  0  0  0  0  0
   18.5815   -8.2234    8.3304 C   0  0  0  0  0  0  0  0  0  0  0  0
   18.6135   -8.4970    9.6921 C   0  0  0  0  0  0  0  0  0  0  0  0
   17.2722   -8.6171    5.4732 H   0  0  0  0  0  0  0  0  0  0  0  0
 11 12  2  0  0  0
 12 13  2  0  0  0
 12  9  1  0  0  0
  9  1  1  0  0  0
  1  2  2  0  0  0
  2  3  1  0  0  0
  3  4  2  0  0  0
  4  5  1  0  0  0
  4  6  1  0  0  0
  6 20  1  0  0  0
 20 21  3  0  0  0
 21 22  1  0  0  0
 22 23  2  0  0  0
 23 24  1  0  0  0
 24 25  2  0  0  0
 25 26  1  0  0  0
 26 27  1  0  0  0
 27 28  2  0  0  0
 28 29  1  0  0  0
 29 30  2  0  0  0
  6  7  2  0  0  0
  7  8  1  0  0  0
 12 14  1  0  0  0
 14 15  2  0  0  0
 15 16  1  0  0  0
 16 17  2  0  0  0
 17 18  1  0  0  0
 18 19  2  0  0  0
  7  1  1  0  0  0
 19 14  1  0  0  0
 30 22  1  0  0  0
 29 25  1  0  0  0
  9 10  1  0  0  0
 26 31  1  0  0  0
M  END
>  <minimizedAffinity>
-9.67202

>  <minimizedRMSD>
1.53154

$$$$
CHEMBL3110109


 36 39  0  0  0  0  0  0  0  0999 V2000
   16.7286   -9.1354   17.0745 C   0  0  0  0  0  0  0  0  0  0  0  0
   16.0253  -10.4032   16.5767 C   0  0  0  0  0  0  0  0  0  0  0  0
   15.3029  -10.1646   15.2516 C   0  0  0  0  0  0  0  0  0  0  0  0
   16.2805   -9.6358   14.2036 C   0  0  0  0  0  0  0  0  0  0  0  0
   16.8816   -8.3183   14.6802 C   0  0  0  0  0  0  0  0  0  0  0  0
   17.6306   -8.5215   15.9971 C   0  0  0  0  0  0  0  0  0  0  0  0
   15.6766   -8.0241   19.0808 N   0  0  0  0  0  0  0  0  0  0  0  0
   15.7707   -8.1425   17.6581 C   0  0  0  0  0  0  0  0  0  0  0  0
   15.0891   -7.3935   16.9060 O   0  0  0  0  0  0  0  0  0  0  0  0
   16.3821   -8.4520   19.6179 H   0  0  0  0  0  0  0  0  0  0  0  0
   13.2777   -7.4496   19.4283 C   0  0  0  0  0  0  0  0  0  0  0  0
   12.3098   -6.7496   20.1690 C   0  0  0  0  0  0  0  0  0  0  0  0
   12.6811   -5.9690   21.2653 C   0  0  0  0  0  0  0  0  0  0  0  0
   14.0228   -5.8863   21.6388 C   0  0  0  0  0  0  0  0  0  0  0  0
   14.9944   -6.5711   20.9064 C   0  0  0  0  0  0  0  0  0  0  0  0
   14.6387   -7.3331   19.7879 C   0  0  0  0  0  0  0  0  0  0  0  0
   11.5494   -8.4484   17.9597 C   0  0  0  0  0  0  0  0  0  0  0  0
   12.9005   -8.2801   18.3665 O   0  0  0  0  0  0  0  0  0  0  0  0
   15.5892   -9.4178   12.9420 N   0  0  0  0  0  0  0  0  0  0  0  0
   16.0476   -9.9569   11.7003 C   0  0  0  0  0  0  0  0  0  0  0  0
   17.1070  -10.6373   11.6477 O   0  0  0  0  0  0  0  0  0  0  0  0
   14.7683   -8.8742   12.9439 H   0  0  0  0  0  0  0  0  0  0  0  0
   15.2845   -9.6799   10.4498 C   0  0  0  0  0  0  0  0  0  0  0  0
   15.9548  -10.3457    9.2522 C   0  0  0  0  0  0  0  0  0  0  0  0
   17.0418   -9.5174    8.6323 C   0  0  0  0  0  0  0  0  0  0  0  0
   17.1559   -9.4906    7.2782 N   0  0  0  0  0  0  0  0  0  0  0  0
   18.1222   -8.7553    6.6709 C   0  0  0  0  0  0  0  0  0  0  0  0
   18.2237   -8.7445    5.2769 C   0  0  0  0  0  0  0  0  0  0  0  0
   19.2209   -7.9872    4.6543 C   0  0  0  0  0  0  0  0  0  0  0  0
   20.1187   -7.2393    5.4231 C   0  0  0  0  0  0  0  0  0  0  0  0
   20.0231   -7.2453    6.8180 C   0  0  0  0  0  0  0  0  0  0  0  0
   19.0256   -8.0022    7.4486 C   0  0  0  0  0  0  0  0  0  0  0  0
   18.8881   -8.0395    8.8418 C   0  0  0  0  0  0  0  0  0  0  0  0
   19.6667   -7.3852    9.5862 O   0  0  0  0  0  0  0  0  0  0  0  0
   17.9028   -8.7907    9.3988 N   0  0  0  0  0  0  0  0  0  0  0  0
   17.8087   -8.8105   10.3785 H   0  0  0  0  0  0  0  0  0  0  0  0
 17 18  1  0  0  0
 18 11  1  0  0  0
 11 12  2  0  0  0
 12 13  1  0  0  0
 13 14  2  0  0  0
 14 15  1  0  0  0
 15 16  2  0  0  0
 16  7  1  0  0  0
 16 11  1  0  0  0
  7  8  1  0  0  0
  8  9  2  0  0  0
  1  8  1  0  0  0
  1  2  1  0  0  0
  2  3  1  0  0  0
  3  4  1  0  0  0
  4 19  1  0  0  0
  4  5  1  0  0  0
 19 20  1  0  0  0
 20 21  2  0  0  0
 20 23  1  0  0  0
 23 24  1  0  0  0
 24 25  1  0  0  0
 25 26  2  0  0  0
 26 27  1  0  0  0
 27 28  2  0  0  0
 28 29  1  0  0  0
 29 30  2  0  0  0
 30 31  1  0  0  0
 31 32  2  0  0  0
 32 33  1  0  0  0
 32 27  1  0  0  0
 33 34  2  0  0  0
 33 35  1  0  0  0
 35 25  1  0  0  0
  5  6  1  0  0  0
  6  1  1  0  0  0
  7 10  1  0  0  0
 19 22  1  0  0  0
 35 36  1  0  0  0
M  END
>  <minimizedAffinity>
-7.74152

>  <minimizedRMSD>
1.53495

$$$$
CHEMBL3110108


 36 39  0  0  0  0  0  0  0  0999 V2000
   16.7286   -9.1354   17.0745 C   0  0  0  0  0  0  0  0  0  0  0  0
   16.0253  -10.4032   16.5767 C   0  0  0  0  0  0  0  0  0  0  0  0
   15.3029  -10.1646   15.2516 C   0  0  0  0  0  0  0  0  0  0  0  0
   16.2805   -9.6358   14.2036 C   0  0  0  0  0  0  0  0  0  0  0  0
   16.8816   -8.3183   14.6802 C   0  0  0  0  0  0  0  0  0  0  0  0
   17.6306   -8.5215   15.9971 C   0  0  0  0  0  0  0  0  0  0  0  0
   15.6766   -8.0241   19.0808 N   0  0  0  0  0  0  0  0  0  0  0  0
   15.7707   -8.1425   17.6581 C   0  0  0  0  0  0  0  0  0  0  0  0
   15.0891   -7.3935   16.9060 O   0  0  0  0  0  0  0  0  0  0  0  0
   16.3821   -8.4520   19.6179 H   0  0  0  0  0  0  0  0  0  0  0  0
   13.2777   -7.4496   19.4283 C   0  0  0  0  0  0  0  0  0  0  0  0
   12.3098   -6.7496   20.1690 C   0  0  0  0  0  0  0  0  0  0  0  0
   12.6811   -5.9690   21.2653 C   0  0  0  0  0  0  0  0  0  0  0  0
   14.0228   -5.8863   21.6388 C   0  0  0  0  0  0  0  0  0  0  0  0
   14.9944   -6.5711   20.9064 C   0  0  0  0  0  0  0  0  0  0  0  0
   14.6387   -7.3331   19.7879 C   0  0  0  0  0  0  0  0  0  0  0  0
   11.5494   -8.4484   17.9597 C   0  0  0  0  0  0  0  0  0  0  0  0
   12.9005   -8.2801   18.3665 O   0  0  0  0  0  0  0  0  0  0  0  0
   15.5892   -9.4178   12.9420 N   0  0  0  0  0  0  0  0  0  0  0  0
   16.0476   -9.9569   11.7003 C   0  0  0  0  0  0  0  0  0  0  0  0
   17.1070  -10.6373   11.6477 O   0  0  0  0  0  0  0  0  0  0  0  0
   14.7683   -8.8742   12.9439 H   0  0  0  0  0  0  0  0  0  0  0  0
   15.2845   -9.6799   10.4498 C   0  0  0  0  0  0  0  0  0  0  0  0
   15.9548  -10.3457    9.2522 C   0  0  0  0  0  0  0  0  0  0  0  0
   17.0418   -9.5174    8.6323 C   0  0  0  0  0  0  0  0  0  0  0  0
   17.1559   -9.4906    7.2782 N   0  0  0  0  0  0  0  0  0  0  0  0
   18.1222   -8.7553    6.6709 C   0  0  0  0  0  0  0  0  0  0  0  0
   18.2237   -8.7445    5.2769 C   0  0  0  0  0  0  0  0  0  0  0  0
   19.2209   -7.9872    4.6543 C   0  0  0  0  0  0  0  0  0  0  0  0
   20.1187   -7.2393    5.4231 C   0  0  0  0  0  0  0  0  0  0  0  0
   20.0231   -7.2453    6.8180 C   0  0  0  0  0  0  0  0  0  0  0  0
   19.0256   -8.0022    7.4486 C   0  0  0  0  0  0  0  0  0  0  0  0
   18.8881   -8.0395    8.8418 C   0  0  0  0  0  0  0  0  0  0  0  0
   19.6667   -7.3852    9.5862 O   0  0  0  0  0  0  0  0  0  0  0  0
   17.9028   -8.7907    9.3988 N   0  0  0  0  0  0  0  0  0  0  0  0
   17.8087   -8.8105   10.3785 H   0  0  0  0  0  0  0  0  0  0  0  0
 17 18  1  0  0  0
 18 11  1  0  0  0
 11 12  2  0  0  0
 12 13  1  0  0  0
 13 14  2  0  0  0
 14 15  1  0  0  0
 15 16  2  0  0  0
 16  7  1  0  0  0
 16 11  1  0  0  0
  7  8  1  0  0  0
  8  9  2  0  0  0
  1  8  1  0  0  0
  1  2  1  0  0  0
  2  3  1  0  0  0
  3  4  1  0  0  0
  4 19  1  0  0  0
  4  5  1  0  0  0
 19 20  1  0  0  0
 20 21  2  0  0  0
 20 23  1  0  0  0
 23 24  1  0  0  0
 24 25  1  0  0  0
 25 26  2  0  0  0
 26 27  1  0  0  0
 27 28  2  0  0  0
 28 29  1  0  0  0
 29 30  2  0  0  0
 30 31  1  0  0  0
 31 32  2  0  0  0
 32 33  1  0  0  0
 32 27  1  0  0  0
 33 34  2  0  0  0
 33 35  1  0  0  0
 35 25  1  0  0  0
  5  6  1  0  0  0
  6  1  1  0  0  0
  7 10  1  0  0  0
 19 22  1  0  0  0
 35 36  1  0  0  0
M  END
>  <minimizedAffinity>
-7.74152

>  <minimizedRMSD>
1.53495

$$$$
CHEMBL5084899 CSC027311726 MCULE-7225575524 MolPort-005-747-835 PubChem-42931700 Z225058138


 30 32  0  0  0  0  0  0  0  0999 V2000
   18.2309  -10.1965   12.3681 C   0  0  0  0  0  0  0  0  0  0  0  0
   18.0015  -11.4622   12.9959 N   0  0  0  0  0  0  0  0  0  0  0  0
   18.9400   -9.3262   12.9437 O   0  0  0  0  0  0  0  0  0  0  0  0
   17.4778  -12.1404   12.5110 H   0  0  0  0  0  0  0  0  0  0  0  0
   18.0457   -8.1636    7.7670 C   0  0  0  0  0  0  0  0  0  0  0  0
   17.7058   -8.8754    8.8984 C   0  0  0  0  0  0  0  0  0  0  0  0
   16.4894   -9.4058    8.6095 C   0  0  0  0  0  0  0  0  0  0  0  0
   15.8079  -10.1843    9.4839 N   0  0  0  0  0  0  0  0  0  0  0  0
   16.3704  -10.4432   10.7037 C   0  0  0  0  0  0  0  0  0  0  0  0
   17.6399   -9.9108   11.0501 C   0  0  0  0  0  0  0  0  0  0  0  0
   18.3281   -9.1023   10.1198 C   0  0  0  0  0  0  0  0  0  0  0  0
   16.1193   -9.0489    7.4061 O   0  0  0  0  0  0  0  0  0  0  0  0
   17.0410   -8.2937    6.8653 N   0  0  0  0  0  0  0  0  0  0  0  0
   19.8088   -7.6063    6.1152 C   0  0  0  0  0  0  0  0  0  0  0  0
   19.2890   -7.3688    7.5202 C   0  0  0  0  0  0  0  0  0  0  0  0
   20.3607   -7.7185    8.5351 C   0  0  0  0  0  0  0  0  0  0  0  0
   18.5094  -11.7906   14.3217 C   0  0  0  0  0  0  0  0  0  0  0  0
   17.7238  -12.9563   14.8937 C   0  0  0  0  0  0  0  0  0  0  0  0
   18.4252  -10.6030   15.2305 C   0  0  0  0  0  0  0  0  0  0  0  0
   17.1920  -10.1604   15.7323 C   0  0  0  0  0  0  0  0  0  0  0  0
   17.1328   -9.0430   16.5715 C   0  0  0  0  0  0  0  0  0  0  0  0
   18.3079   -8.3613   16.9052 C   0  0  0  0  0  0  0  0  0  0  0  0
   19.5381   -8.7982   16.4062 C   0  0  0  0  0  0  0  0  0  0  0  0
   19.5963   -9.9169   15.5699 C   0  0  0  0  0  0  0  0  0  0  0  0
   15.5870   -8.4872   17.1851 S   0  0  0  0  0  0  0  0  0  0  0  0
   15.7522   -8.0086   18.8372 N   0  0  0  0  0  0  0  0  0  0  0  0
   15.1133   -7.3176   16.3699 O   0  0  0  0  0  0  0  0  0  0  0  0
   14.5801   -9.5996   17.1010 O   0  0  0  0  0  0  0  0  0  0  0  0
   16.4341   -7.2532   18.9058 H   0  0  0  0  0  0  0  0  0  0  0  0
   16.0690   -8.8041   19.3915 H   0  0  0  0  0  0  0  0  0  0  0  0
 14 15  1  0  0  0
 15  5  1  0  0  0
  5  6  1  0  0  0
  6  7  2  0  0  0
  7  8  1  0  0  0
  8  9  2  0  0  0
  9 10  1  0  0  0
 10  1  1  0  0  0
  1  2  1  0  0  0
  2 17  1  0  0  0
 17 19  1  0  0  0
 19 20  2  0  0  0
 20 21  1  0  0  0
 21 25  1  0  0  0
 25 26  1  0  0  0
 25 27  2  0  0  0
 25 28  2  0  0  0
 21 22  2  0  0  0
 22 23  1  0  0  0
 23 24  2  0  0  0
 17 18  1  0  0  0
  1  3  2  0  0  0
 10 11  2  0  0  0
  7 12  1  0  0  0
 12 13  1  0  0  0
 15 16  1  0  0  0
 13  5  2  0  0  0
 11  6  1  0  0  0
 24 19  1  0  0  0
  2  4  1  0  0  0
 26 29  1  0  0  0
 26 30  1  0  0  0
M  END
>  <minimizedAffinity>
-4.27609

>  <minimizedRMSD>
1.53569

$$$$
CHEMBL4538140 PubChem-155548916


 34 38  0  0  0  0  0  0  0  0999 V2000
   17.8403   -9.3864   11.6869 C   0  0  0  0  0  0  0  0  0  0  0  0
   16.6091   -9.6428   11.6037 O   0  0  0  0  0  0  0  0  0  0  0  0
   18.5258   -9.4732   12.9458 N   0  0  0  0  0  0  0  0  0  0  0  0
   19.4851   -9.2519   12.9400 H   0  0  0  0  0  0  0  0  0  0  0  0
   17.9619   -9.8484   14.2130 C   0  0  0  0  0  0  0  0  0  0  0  0
   17.1783   -8.9529   14.9567 C   0  0  0  0  0  0  0  0  0  0  0  0
   16.6311   -9.3257   16.1916 C   0  0  0  0  0  0  0  0  0  0  0  0
   16.8736  -10.6135   16.6852 C   0  0  0  0  0  0  0  0  0  0  0  0
   17.6514  -11.5137   15.9546 C   0  0  0  0  0  0  0  0  0  0  0  0
   18.1956  -11.1379   14.7232 C   0  0  0  0  0  0  0  0  0  0  0  0
   19.0207  -12.1258   13.9716 C   0  0  0  0  0  0  0  0  0  0  0  0
   15.8103   -8.3744   16.9613 C   0  0  0  0  0  0  0  0  0  0  0  0
   15.1603   -7.4783   16.3570 O   0  0  0  0  0  0  0  0  0  0  0  0
   15.7578   -8.4760   18.3928 N   0  0  0  0  0  0  0  0  0  0  0  0
   16.2880   -9.1972   18.8026 H   0  0  0  0  0  0  0  0  0  0  0  0
   15.0148   -7.6379   19.2886 C   0  0  0  0  0  0  0  0  0  0  0  0
   15.5498   -7.3631   20.5522 C   0  0  0  0  0  0  0  0  0  0  0  0
   14.8555   -6.5503   21.4536 C   0  0  0  0  0  0  0  0  0  0  0  0
   13.6190   -6.0066   21.0950 C   0  0  0  0  0  0  0  0  0  0  0  0
   13.0772   -6.2757   19.8354 C   0  0  0  0  0  0  0  0  0  0  0  0
   13.7725   -7.0884   18.9353 C   0  0  0  0  0  0  0  0  0  0  0  0
   20.0983   -9.0602   10.5115 C   0  0  0  0  0  0  0  0  0  0  0  0
   18.5852   -8.9761   10.4521 C   0  0  0  0  0  0  0  0  0  0  0  0
   19.4041   -7.7088   10.5838 C   0  0  0  0  0  0  0  0  0  0  0  0
   17.9898   -9.2352    9.1004 C   0  0  0  0  0  0  0  0  0  0  0  0
   16.9490  -10.1099    8.9633 N   0  0  0  0  0  0  0  0  0  0  0  0
   16.3670  -10.3425    7.7453 C   0  0  0  0  0  0  0  0  0  0  0  0
   16.8122   -9.6925    6.6295 N   0  0  0  0  0  0  0  0  0  0  0  0
   17.8375   -8.8164    6.7597 C   0  0  0  0  0  0  0  0  0  0  0  0
   18.4295   -8.5711    7.9557 C   0  0  0  0  0  0  0  0  0  0  0  0
   19.4163   -7.6328    7.7552 C   0  0  0  0  0  0  0  0  0  0  0  0
   19.3493   -7.3662    6.3842 C   0  0  0  0  0  0  0  0  0  0  0  0
   18.3796   -8.0923    5.7723 N   0  0  0  0  0  0  0  0  0  0  0  0
   18.1313   -8.0878    4.8196 H   0  0  0  0  0  0  0  0  0  0  0  0
 22 23  1  0  0  0
 23 24  1  0  0  0
 23 25  1  0  0  0
 25 26  2  0  0  0
 26 27  1  0  0  0
 27 28  2  0  0  0
 28 29  1  0  0  0
 29 30  2  0  0  0
 30 31  1  0  0  0
 31 32  2  0  0  0
 32 33  1  0  0  0
 23  1  1  0  0  0
  1  2  2  0  0  0
  1  3  1  0  0  0
  3  5  1  0  0  0
  5  6  2  0  0  0
  6  7  1  0  0  0
  7  8  2  0  0  0
  8  9  1  0  0  0
  9 10  2  0  0  0
 10 11  1  0  0  0
  7 12  1  0  0  0
 12 13  2  0  0  0
 12 14  1  0  0  0
 14 16  1  0  0  0
 16 17  2  0  0  0
 17 18  1  0  0  0
 18 19  2  0  0  0
 19 20  1  0  0  0
 20 21  2  0  0  0
 24 22  1  0  0  0
 30 25  1  0  0  0
 10  5  1  0  0  0
 21 16  1  0  0  0
 33 29  1  0  0  0
 33 34  1  0  0  0
  3  4  1  0  0  0
 14 15  1  0  0  0
M  END
>  <minimizedAffinity>
-6.10925

>  <minimizedRMSD>
1.53689

$$$$
CHEMBL1445410 PubChem-4230279


 33 35  0  0  0  0  0  0  0  0999 V2000
   17.6166   -7.2338    6.3321 S   0  0  0  0  0  0  0  0  0  0  0  0
   17.8173   -8.2453    7.6506 C   0  0  0  0  0  0  0  0  0  0  0  0
   16.8881   -8.9847    8.3689 C   0  0  0  0  0  0  0  0  0  0  0  0
   15.6672   -8.9544    8.0515 O   0  0  0  0  0  0  0  0  0  0  0  0
   17.3290   -9.7437    9.4240 N   0  0  0  0  0  0  0  0  0  0  0  0
   18.6681   -9.7611    9.7560 C   0  0  0  0  0  0  0  0  0  0  0  0
   19.5680   -9.0284    9.0361 N   0  0  0  0  0  0  0  0  0  0  0  0
   19.1449   -8.2765    7.9927 C   0  0  0  0  0  0  0  0  0  0  0  0
   19.9695   -7.4873    7.1875 C   0  0  0  0  0  0  0  0  0  0  0  0
   19.2554   -6.8207    6.1858 C   0  0  0  0  0  0  0  0  0  0  0  0
   19.2797  -10.7454   11.1291 S   0  0  0  0  0  0  0  0  0  0  0  0
   18.1304   -9.9536   12.3013 C   0  0  0  0  0  0  0  0  0  0  0  0
   17.8248  -10.8149   13.4936 C   0  0  0  0  0  0  0  0  0  0  0  0
   17.9699  -12.0668   13.4279 O   0  0  0  0  0  0  0  0  0  0  0  0
   17.3478  -10.2004   14.7481 C   0  0  0  0  0  0  0  0  0  0  0  0
   16.6278   -8.9959   14.7277 C   0  0  0  0  0  0  0  0  0  0  0  0
   16.1752   -8.4185   15.9174 C   0  0  0  0  0  0  0  0  0  0  0  0
   15.4623   -7.2270   15.8763 O   0  0  0  0  0  0  0  0  0  0  0  0
   16.4411   -9.0433   17.1422 C   0  0  0  0  0  0  0  0  0  0  0  0
   15.9974   -8.4775   18.3308 O   0  0  0  0  0  0  0  0  0  0  0  0
   17.1562  -10.2436   17.1710 C   0  0  0  0  0  0  0  0  0  0  0  0
   17.6069  -10.8196   15.9801 C   0  0  0  0  0  0  0  0  0  0  0  0
   15.2875   -6.8137   15.0538 H   0  0  0  0  0  0  0  0  0  0  0  0
   15.5176   -7.6728   18.3163 H   0  0  0  0  0  0  0  0  0  0  0  0
   16.3669  -10.5212   10.2028 C   0  0  0  0  0  0  0  0  0  0  0  0
   15.2569   -9.6173   10.7172 C   0  0  0  0  0  0  0  0  0  0  0  0
   14.5281  -10.2783   11.8765 C   0  0  0  0  0  0  0  0  0  0  0  0
   13.0881  -10.6042   11.5100 C   0  0  0  0  0  0  0  0  0  0  0  0
   12.7177   -9.9597   10.1847 C   0  0  0  0  0  0  0  0  0  0  0  0
   11.5913   -9.0041   10.3744 C   0  0  0  0  0  0  0  0  0  0  0  0
   10.4384   -9.4275   10.6519 O   0  0  0  0  0  0  0  0  0  0  0  0
   11.8181   -7.6393   10.2609 O   0  0  0  0  0  0  0  0  0  0  0  0
   12.6754   -7.3224   10.0544 H   0  0  0  0  0  0  0  0  0  0  0  0
  1  2  1  0  0  0
  2  3  1  0  0  0
  3  4  2  0  0  0
  3  5  1  0  0  0
  5  6  1  0  0  0
  6 11  1  0  0  0
 11 12  1  0  0  0
 12 13  1  0  0  0
 13 14  2  0  0  0
 13 15  1  0  0  0
 15 16  2  0  0  0
 16 17  1  0  0  0
 17 18  1  0  0  0
 17 19  2  0  0  0
 19 20  1  0  0  0
 19 21  1  0  0  0
 21 22  2  0  0  0
  6  7  2  0  0  0
  7  8  1  0  0  0
  8  9  1  0  0  0
  9 10  2  0  0  0
  5 25  1  0  0  0
 25 26  1  0  0  0
 26 27  1  0  0  0
 27 28  1  0  0  0
 28 29  1  0  0  0
 29 30  1  0  0  0
 30 31  2  0  0  0
 30 32  1  0  0  0
 10  1  1  0  0  0
  8  2  2  0  0  0
 22 15  1  0  0  0
 18 23  1  0  0  0
 20 24  1  0  0  0
 32 33  1  0  0  0
M  END
>  <minimizedAffinity>
2.65178

>  <minimizedRMSD>
1.53800

$$$$
CHEMBL5193775 PubChem-164172189


 36 40  0  0  0  0  0  0  0  0999 V2000
   15.9989   -8.6697   18.8445 N   0  0  0  0  0  0  0  0  0  0  0  0
   15.8663   -8.5198   17.4225 C   0  0  0  0  0  0  0  0  0  0  0  0
   15.1608   -7.5936   16.9375 O   0  0  0  0  0  0  0  0  0  0  0  0
   16.5651   -9.4115   19.1582 H   0  0  0  0  0  0  0  0  0  0  0  0
   15.0808   -7.3735   22.2208 C   0  0  0  0  0  0  0  0  0  0  0  0
   14.2443   -6.3012   21.8865 C   0  0  0  0  0  0  0  0  0  0  0  0
   13.9740   -5.9939   20.5452 C   0  0  0  0  0  0  0  0  0  0  0  0
   14.5541   -6.7766   19.5365 C   0  0  0  0  0  0  0  0  0  0  0  0
   15.3935   -7.8529   19.8557 C   0  0  0  0  0  0  0  0  0  0  0  0
   15.6510   -8.1441   21.1981 C   0  0  0  0  0  0  0  0  0  0  0  0
   13.1146   -4.8932   20.2087 N   0  0  0  0  0  0  0  0  0  0  0  0
   12.6369   -3.9611   21.0526 C   0  0  0  0  0  0  0  0  0  0  0  0
   11.8558   -3.0962   20.3119 C   0  0  0  0  0  0  0  0  0  0  0  0
   11.8557   -3.4967   19.0234 N   0  0  0  0  0  0  0  0  0  0  0  0
   12.6322   -4.5961   18.9885 C   0  0  0  0  0  0  0  0  0  0  0  0
   16.6985   -7.5323   23.9602 F   0  0  0  0  0  0  0  0  0  0  0  0
   15.3538   -7.6810   23.6646 C   0  0  0  0  0  0  0  0  0  0  0  0
   14.9791   -8.9838   23.9386 F   0  0  0  0  0  0  0  0  0  0  0  0
   14.6240   -6.8220   24.4661 F   0  0  0  0  0  0  0  0  0  0  0  0
   16.5611   -9.4566   16.5219 C   0  0  0  0  0  0  0  0  0  0  0  0
   16.5013   -9.2812   15.1313 C   0  0  0  0  0  0  0  0  0  0  0  0
   17.1604  -10.1704   14.2772 C   0  0  0  0  0  0  0  0  0  0  0  0
   17.8841  -11.2420   14.8077 C   0  0  0  0  0  0  0  0  0  0  0  0
   17.9488  -11.4241   16.1916 C   0  0  0  0  0  0  0  0  0  0  0  0
   17.2898  -10.5347   17.0454 C   0  0  0  0  0  0  0  0  0  0  0  0
   17.0929   -9.9828   12.8560 C   0  0  0  0  0  0  0  0  0  0  0  0
   17.0358   -9.8265   11.6621 C   0  0  0  0  0  0  0  0  0  0  0  0
   16.9665   -9.6427   10.2381 C   0  0  0  0  0  0  0  0  0  0  0  0
   17.8135   -8.9100    9.5094 N   0  0  0  0  0  0  0  0  0  0  0  0
   18.8748   -8.2050    9.8957 N   0  0  0  0  0  0  0  0  0  0  0  0
   19.5937   -7.5303    8.9535 C   0  0  0  0  0  0  0  0  0  0  0  0
   19.2028   -7.5916    7.6013 C   0  0  0  0  0  0  0  0  0  0  0  0
   18.0781   -8.3445    7.2281 C   0  0  0  0  0  0  0  0  0  0  0  0
   17.3971   -9.0039    8.2441 C   0  0  0  0  0  0  0  0  0  0  0  0
   16.3001   -9.7762    8.1100 N   0  0  0  0  0  0  0  0  0  0  0  0
   16.0218  -10.1856    9.3779 C   0  0  0  0  0  0  0  0  0  0  0  0
 16 17  1  0  0  0
 17 18  1  0  0  0
 17 19  1  0  0  0
 17  5  1  0  0  0
  5  6  2  0  0  0
  6  7  1  0  0  0
  7 11  1  0  0  0
 11 12  1  0  0  0
 12 13  2  0  0  0
 13 14  1  0  0  0
 14 15  2  0  0  0
  7  8  2  0  0  0
  8  9  1  0  0  0
  9  1  1  0  0  0
  1  2  1  0  0  0
  2  3  2  0  0  0
  2 20  1  0  0  0
 20 21  2  0  0  0
 21 22  1  0  0  0
 22 23  2  0  0  0
 23 24  1  0  0  0
 24 25  2  0  0  0
 22 26  1  0  0  0
 26 27  3  0  0  0
 27 28  1  0  0  0
 28 29  1  0  0  0
 29 30  1  0  0  0
 30 31  2  0  0  0
 31 32  1  0  0  0
 32 33  2  0  0  0
 33 34  1  0  0  0
 34 35  2  0  0  0
 35 36  1  0  0  0
  9 10  2  0  0  0
 10  5  1  0  0  0
 15 11  1  0  0  0
 25 20  1  0  0  0
 36 28  2  0  0  0
 34 29  1  0  0  0
  1  4  1  0  0  0
M  END
>  <minimizedAffinity>
-6.47170

>  <minimizedRMSD>
1.53840

$$$$
CHEMBL1484206 8598087 ChemDiv-G756-0196 MCULE-4964717153 MolPort-007-879-019 PubChem-16030568 ZINC000008598087 ZINC08598087


 36 39  0  0  0  0  0  0  0  0999 V2000
   17.7228  -10.2097   15.9913 C   0  0  0  0  0  0  0  0  0  0  0  0
   17.7897   -9.7628   14.6633 C   0  0  0  0  0  0  0  0  0  0  0  0
   18.1248  -10.6479   13.6261 C   0  0  0  0  0  0  0  0  0  0  0  0
   18.3932  -11.9865   13.9268 C   0  0  0  0  0  0  0  0  0  0  0  0
   18.3287  -12.4384   15.2473 C   0  0  0  0  0  0  0  0  0  0  0  0
   17.9945  -11.5520   16.2747 C   0  0  0  0  0  0  0  0  0  0  0  0
   15.9344   -7.9652   18.5277 N   0  0  0  0  0  0  0  0  0  0  0  0
   16.0772   -8.8330   17.3960 C   0  0  0  0  0  0  0  0  0  0  0  0
   15.0761   -9.1517   16.6995 O   0  0  0  0  0  0  0  0  0  0  0  0
   17.3815   -9.3310   17.0722 N   0  0  0  0  0  0  0  0  0  0  0  0
   16.7568   -7.7553   19.0265 H   0  0  0  0  0  0  0  0  0  0  0  0
   18.1211   -9.0392   17.6528 H   0  0  0  0  0  0  0  0  0  0  0  0
   14.6855   -6.8572   20.3193 C   0  0  0  0  0  0  0  0  0  0  0  0
   13.5039   -6.2732   20.8033 C   0  0  0  0  0  0  0  0  0  0  0  0
   12.3571   -6.1942   19.9990 C   0  0  0  0  0  0  0  0  0  0  0  0
   12.3996   -6.7082   18.6960 C   0  0  0  0  0  0  0  0  0  0  0  0
   10.9923   -6.6331   17.6513 Cl  0  0  0  0  0  0  0  0  0  0  0  0
   13.5731   -7.2894   18.2112 C   0  0  0  0  0  0  0  0  0  0  0  0
   14.7211   -7.3688   19.0128 C   0  0  0  0  0  0  0  0  0  0  0  0
   15.8290   -6.6128   22.5026 C   0  0  0  0  0  0  0  0  0  0  0  0
   15.8312   -6.9388   21.1194 O   0  0  0  0  0  0  0  0  0  0  0  0
   11.1765   -5.6128   20.4745 O   0  0  0  0  0  0  0  0  0  0  0  0
   11.1629   -4.6233   21.4945 C   0  0  0  0  0  0  0  0  0  0  0  0
   18.1966  -10.2245   12.2966 O   0  0  0  0  0  0  0  0  0  0  0  0
   17.3673   -9.1949   11.7740 C   0  0  0  0  0  0  0  0  0  0  0  0
   17.5426   -9.1132   10.3000 C   0  0  0  0  0  0  0  0  0  0  0  0
   16.7764   -9.9183    9.4625 C   0  0  0  0  0  0  0  0  0  0  0  0
   16.9800   -9.8415    8.0857 C   0  0  0  0  0  0  0  0  0  0  0  0
   16.2831  -10.5673    7.3242 O   0  0  0  0  0  0  0  0  0  0  0  0
   17.9246   -8.9905    7.5769 N   0  0  0  0  0  0  0  0  0  0  0  0
   18.1245   -8.9171    6.2270 C   0  0  0  0  0  0  0  0  0  0  0  0
   19.0856   -8.0573    5.6920 C   0  0  0  0  0  0  0  0  0  0  0  0
   19.8478   -7.2668    6.5498 C   0  0  0  0  0  0  0  0  0  0  0  0
   19.6437   -7.3418    7.9264 C   0  0  0  0  0  0  0  0  0  0  0  0
   18.6738   -8.2114    8.4310 C   0  0  0  0  0  0  0  0  0  0  0  0
   18.4781   -8.2839    9.7730 N   0  0  0  0  0  0  0  0  0  0  0  0
 20 21  1  0  0  0
 21 13  1  0  0  0
 13 14  2  0  0  0
 14 15  1  0  0  0
 15 22  1  0  0  0
 15 16  2  0  0  0
 22 23  1  0  0  0
 16 17  1  0  0  0
 16 18  1  0  0  0
 18 19  2  0  0  0
 19  7  1  0  0  0
 19 13  1  0  0  0
  7  8  1  0  0  0
  8  9  2  0  0  0
  8 10  1  0  0  0
 10  1  1  0  0  0
  1  2  2  0  0  0
  2  3  1  0  0  0
  3 24  1  0  0  0
  3  4  2  0  0  0
 24 25  1  0  0  0
 25 26  1  0  0  0
 26 27  2  0  0  0
 27 28  1  0  0  0
 28 29  2  0  0  0
 28 30  1  0  0  0
 30 31  1  0  0  0
 31 32  2  0  0  0
 32 33  1  0  0  0
 33 34  2  0  0  0
 34 35  1  0  0  0
 35 36  2  0  0  0
 35 30  1  0  0  0
 36 26  1  0  0  0
  4  5  1  0  0  0
  5  6  2  0  0  0
  6  1  1  0  0  0
  7 11  1  0  0  0
 10 12  1  0  0  0
M  END
>  <minimizedAffinity>
-9.35996

>  <minimizedRMSD>
1.54074

$$$$
CHEMBL3951623 PubChem-127053796


 36 40  0  0  0  0  0  0  0  0999 V2000
   15.8663   -8.9395   17.3778 C   0  0  0  0  0  0  0  0  0  0  0  0
   15.6669   -8.9195   15.9935 C   0  0  0  0  0  0  0  0  0  0  0  0
   16.3626   -9.8049   15.1691 C   0  0  0  0  0  0  0  0  0  0  0  0
   17.2717  -10.7334   15.7034 C   0  0  0  0  0  0  0  0  0  0  0  0
   17.4756  -10.7427   17.1024 C   0  0  0  0  0  0  0  0  0  0  0  0
   18.3692  -11.5808   17.6830 F   0  0  0  0  0  0  0  0  0  0  0  0
   16.7763   -9.8524   17.9227 C   0  0  0  0  0  0  0  0  0  0  0  0
   15.1608   -8.1860   19.6715 N   0  0  0  0  0  0  0  0  0  0  0  0
   15.1335   -8.0070   18.2517 C   0  0  0  0  0  0  0  0  0  0  0  0
   14.4779   -7.0534   17.7490 O   0  0  0  0  0  0  0  0  0  0  0  0
   15.6585   -8.9516   20.0394 H   0  0  0  0  0  0  0  0  0  0  0  0
   14.1763   -5.9604   19.9180 C   0  0  0  0  0  0  0  0  0  0  0  0
   14.4849   -7.2858   20.5970 C   0  0  0  0  0  0  0  0  0  0  0  0
   15.3257   -7.0729   21.8149 C   0  0  0  0  0  0  0  0  0  0  0  0
   16.6299   -6.5627   21.7174 C   0  0  0  0  0  0  0  0  0  0  0  0
   17.3998   -6.3789   22.8696 C   0  0  0  0  0  0  0  0  0  0  0  0
   16.8719   -6.7050   24.1223 C   0  0  0  0  0  0  0  0  0  0  0  0
   15.5743   -7.2155   24.2231 C   0  0  0  0  0  0  0  0  0  0  0  0
   14.8034   -7.3999   23.0712 C   0  0  0  0  0  0  0  0  0  0  0  0
   17.9788  -11.6439   14.8241 N   0  0  0  0  0  0  0  0  0  0  0  0
   17.9427  -13.0815   15.0468 C   0  0  0  0  0  0  0  0  0  0  0  0
   18.7503  -11.2006   13.6604 C   0  0  0  0  0  0  0  0  0  0  0  0
   19.2528   -9.7714   13.8251 C   0  0  0  0  0  0  0  0  0  0  0  0
   18.9866   -9.0743   12.5038 C   0  0  0  0  0  0  0  0  0  0  0  0
   18.1570   -9.9781   11.7272 N   0  0  0  0  0  0  0  0  0  0  0  0
   17.9331  -11.2513   12.3823 C   0  0  0  0  0  0  0  0  0  0  0  0
   17.5961   -9.6719   10.4383 C   0  0  0  0  0  0  0  0  0  0  0  0
   16.3951  -10.2137   10.0713 N   0  0  0  0  0  0  0  0  0  0  0  0
   15.8249   -9.9469    8.8557 C   0  0  0  0  0  0  0  0  0  0  0  0
   16.4481   -9.1211    7.9660 N   0  0  0  0  0  0  0  0  0  0  0  0
   17.6379   -8.5766    8.3152 C   0  0  0  0  0  0  0  0  0  0  0  0
   18.3690   -7.7498    7.5567 N   0  0  0  0  0  0  0  0  0  0  0  0
   19.4572   -7.4720    8.3166 C   0  0  0  0  0  0  0  0  0  0  0  0
   19.4089   -8.1241    9.5513 C   0  0  0  0  0  0  0  0  0  0  0  0
   18.2244   -8.8263    9.5159 C   0  0  0  0  0  0  0  0  0  0  0  0
   18.1632   -7.4189    6.6526 H   0  0  0  0  0  0  0  0  0  0  0  0
 13 12  1  0  0  0
 13  8  1  0  0  0
  8  9  1  0  0  0
  9 10  2  0  0  0
  9  1  1  0  0  0
  1  2  2  0  0  0
  2  3  1  0  0  0
  3  4  2  0  0  0
  4 20  1  0  0  0
 20 21  1  0  0  0
 22 20  1  0  0  0
 22 23  1  0  0  0
 23 24  1  0  0  0
 24 25  1  0  0  0
 25 26  1  0  0  0
 25 27  1  0  0  0
 27 28  2  0  0  0
 28 29  1  0  0  0
 29 30  2  0  0  0
 30 31  1  0  0  0
 31 32  1  0  0  0
 32 33  1  0  0  0
 33 34  2  0  0  0
 34 35  1  0  0  0
  4  5  1  0  0  0
  5  6  1  0  0  0
  5  7  2  0  0  0
 13 14  1  0  0  0
 14 15  2  0  0  0
 15 16  1  0  0  0
 16 17  2  0  0  0
 17 18  1  0  0  0
 18 19  2  0  0  0
  7  1  1  0  0  0
 19 14  1  0  0  0
 26 22  1  0  0  0
 35 27  1  0  0  0
 35 31  2  0  0  0
  8 11  1  0  0  0
 32 36  1  0  0  0
M  END
>  <minimizedAffinity>
-6.69815

>  <minimizedRMSD>
1.54087

$$$$
CHEMBL5081567 PubChem-164866746


 30 33  0  0  0  0  0  0  0  0999 V2000
   18.3165  -11.1114   14.2612 C   0  0  0  0  0  0  0  0  0  0  0  0
   18.1974  -11.5878   15.5650 C   0  0  0  0  0  0  0  0  0  0  0  0
   17.4512  -10.6019   16.1747 C   0  0  0  0  0  0  0  0  0  0  0  0
   17.0075  -10.5169   17.4873 C   0  0  0  0  0  0  0  0  0  0  0  0
   16.2528   -9.3916   17.8531 C   0  0  0  0  0  0  0  0  0  0  0  0
   15.9571   -8.3793   16.9063 C   0  0  0  0  0  0  0  0  0  0  0  0
   16.4222   -8.4886   15.5675 C   0  0  0  0  0  0  0  0  0  0  0  0
   17.1731   -9.6314   15.2506 C   0  0  0  0  0  0  0  0  0  0  0  0
   17.7037   -9.9549   14.0996 O   0  0  0  0  0  0  0  0  0  0  0  0
   15.2054   -7.2798   17.3086 O   0  0  0  0  0  0  0  0  0  0  0  0
   15.6813   -9.2627   19.5070 Cl  0  0  0  0  0  0  0  0  0  0  0  0
   14.9035   -7.2171   18.1934 H   0  0  0  0  0  0  0  0  0  0  0  0
   16.1356   -7.4544   14.5414 C   0  0  0  0  0  0  0  0  0  0  0  0
   15.5545   -7.7643   13.4676 O   0  0  0  0  0  0  0  0  0  0  0  0
   16.5004   -6.1286   14.7423 O   0  0  0  0  0  0  0  0  0  0  0  0
   16.9336   -5.8768   15.5341 H   0  0  0  0  0  0  0  0  0  0  0  0
   19.0365  -11.8215   13.1666 C   0  0  0  0  0  0  0  0  0  0  0  0
   17.4173  -10.7275   11.5527 C   0  0  0  0  0  0  0  0  0  0  0  0
   16.4638  -10.8691   12.3655 O   0  0  0  0  0  0  0  0  0  0  0  0
   18.7221  -11.2121   11.8823 N   0  0  0  0  0  0  0  0  0  0  0  0
   19.4384  -11.1300   11.2118 H   0  0  0  0  0  0  0  0  0  0  0  0
   19.1670   -7.3346    7.9590 C   0  0  0  0  0  0  0  0  0  0  0  0
   17.9320   -7.9002    7.6118 C   0  0  0  0  0  0  0  0  0  0  0  0
   17.3860   -8.7941    8.4697 N   0  0  0  0  0  0  0  0  0  0  0  0
   17.9743   -9.1481    9.6138 C   0  0  0  0  0  0  0  0  0  0  0  0
   17.1818  -10.0639   10.2635 C   0  0  0  0  0  0  0  0  0  0  0  0
   16.0801  -10.2265    9.4213 C   0  0  0  0  0  0  0  0  0  0  0  0
   16.2380   -9.4331    8.3298 N   0  0  0  0  0  0  0  0  0  0  0  0
   19.1679   -8.6280    9.9926 N   0  0  0  0  0  0  0  0  0  0  0  0
   19.7727   -7.7202    9.1715 C   0  0  0  0  0  0  0  0  0  0  0  0
 22 23  2  0  0  0
 23 24  1  0  0  0
 24 25  1  0  0  0
 25 26  2  0  0  0
 26 27  1  0  0  0
 27 28  2  0  0  0
 26 18  1  0  0  0
 18 19  2  0  0  0
 18 20  1  0  0  0
 20 17  1  0  0  0
 17  1  1  0  0  0
  1  2  2  0  0  0
  2  3  1  0  0  0
  3  4  2  0  0  0
  4  5  1  0  0  0
  5  6  2  0  0  0
  6  7  1  0  0  0
  7  8  2  0  0  0
  8  9  1  0  0  0
  7 13  1  0  0  0
 13 14  2  0  0  0
 13 15  1  0  0  0
  6 10  1  0  0  0
  5 11  1  0  0  0
 25 29  1  0  0  0
 29 30  2  0  0  0
 30 22  1  0  0  0
 28 24  1  0  0  0
  9  1  1  0  0  0
  8  3  1  0  0  0
 20 21  1  0  0  0
 15 16  1  0  0  0
 10 12  1  0  0  0
M  END
>  <minimizedAffinity>
-0.99910

>  <minimizedRMSD>
1.55217

$$$$
CHEMBL1565408


 34 37  0  0  0  0  0  0  0  0999 V2000
   17.1832  -10.6929   14.2992 C   0  0  0  0  0  0  0  0  0  0  0  0
   16.4350   -9.3528   14.1916 C   0  0  0  0  0  0  0  0  0  0  0  0
   17.0445   -8.2875   15.1020 C   0  0  0  0  0  0  0  0  0  0  0  0
   17.0085   -8.7169   16.5817 C   0  0  0  0  0  0  0  0  0  0  0  0
   17.0656  -10.2395   16.7784 C   0  0  0  0  0  0  0  0  0  0  0  0
   17.8569  -10.9093   15.6601 C   0  0  0  0  0  0  0  0  0  0  0  0
   15.8349   -8.1471   17.3219 C   0  0  0  0  0  0  0  0  0  0  0  0
   14.8565   -7.6526   16.6970 O   0  0  0  0  0  0  0  0  0  0  0  0
   15.8354   -8.1718   18.7519 N   0  0  0  0  0  0  0  0  0  0  0  0
   16.5940   -8.5955   19.2148 H   0  0  0  0  0  0  0  0  0  0  0  0
   14.7632   -7.5977   19.5536 C   0  0  0  0  0  0  0  0  0  0  0  0
   15.2255   -7.3662   20.9525 C   0  0  0  0  0  0  0  0  0  0  0  0
   16.4097   -6.6617   21.1932 C   0  0  0  0  0  0  0  0  0  0  0  0
   16.8339   -6.4343   22.5054 C   0  0  0  0  0  0  0  0  0  0  0  0
   16.0743   -6.9094   23.5875 C   0  0  0  0  0  0  0  0  0  0  0  0
   14.8895   -7.6110   23.3393 C   0  0  0  0  0  0  0  0  0  0  0  0
   14.4651   -7.8384   22.0269 C   0  0  0  0  0  0  0  0  0  0  0  0
   16.4713   -6.6986   24.9108 O   0  0  0  0  0  0  0  0  0  0  0  0
   17.5646   -5.8608   25.2600 C   0  0  0  0  0  0  0  0  0  0  0  0
   18.2257  -10.8168   13.1985 C   0  0  0  0  0  0  0  0  0  0  0  0
   18.1939   -9.6489   12.3282 N   0  0  0  0  0  0  0  0  0  0  0  0
   18.7428   -8.8678   12.5685 H   0  0  0  0  0  0  0  0  0  0  0  0
   13.7133  -10.7393   10.0517 S   0  0  0  0  0  0  0  0  0  0  0  0
   15.3618  -10.0552   10.0158 C   0  0  0  0  0  0  0  0  0  0  0  0
   16.1381  -10.1010   11.1302 N   0  0  0  0  0  0  0  0  0  0  0  0
   17.3988   -9.5874   11.1384 C   0  0  0  0  0  0  0  0  0  0  0  0
   17.9089   -9.0004    9.9730 C   0  0  0  0  0  0  0  0  0  0  0  0
   17.0863   -8.9637    8.8278 C   0  0  0  0  0  0  0  0  0  0  0  0
   15.8360   -9.4898    8.8753 N   0  0  0  0  0  0  0  0  0  0  0  0
   17.5594   -8.3853    7.6465 C   0  0  0  0  0  0  0  0  0  0  0  0
   18.8476   -7.8433    7.6004 C   0  0  0  0  0  0  0  0  0  0  0  0
   19.6656   -7.8779    8.7344 C   0  0  0  0  0  0  0  0  0  0  0  0
   19.1988   -8.4549    9.9195 C   0  0  0  0  0  0  0  0  0  0  0  0
   13.4597  -11.2460   11.2881 H   0  0  0  0  0  0  0  0  0  0  0  0
 23 24  1  0  0  0
 24 25  2  0  0  0
 25 26  1  0  0  0
 26 21  1  0  0  0
 21 20  1  0  0  0
 20  1  1  0  0  0
  1  2  1  0  0  0
  2  3  1  0  0  0
  3  4  1  0  0  0
  4  7  1  0  0  0
  7  8  2  0  0  0
  7  9  1  0  0  0
  9 11  1  0  0  0
 11 12  1  0  0  0
 12 13  2  0  0  0
 13 14  1  0  0  0
 14 15  2  0  0  0
 15 18  1  0  0  0
 18 19  1  0  0  0
 15 16  1  0  0  0
 16 17  2  0  0  0
  4  5  1  0  0  0
  5  6  1  0  0  0
 26 27  2  0  0  0
 27 28  1  0  0  0
 28 29  2  0  0  0
 28 30  1  0  0  0
 30 31  2  0  0  0
 31 32  1  0  0  0
 32 33  2  0  0  0
 29 24  1  0  0  0
  6  1  1  0  0  0
 33 27  1  0  0  0
 17 12  1  0  0  0
 23 34  1  0  0  0
 21 22  1  0  0  0
  9 10  1  0  0  0
M  END
>  <minimizedAffinity>
-9.03317

>  <minimizedRMSD>
1.55391

$$$$
CHEMBL2235551 PubChem-25108387


 30 33  0  0  0  0  0  0  0  0999 V2000
   18.1756  -11.8312   15.6262 S   0  0  0  0  0  0  0  0  0  0  0  0
   17.9895  -11.0596   14.0237 C   0  0  0  0  0  0  0  0  0  0  0  0
   18.8948  -11.1525   13.0321 N   0  0  0  0  0  0  0  0  0  0  0  0
   18.4033  -10.4569   12.0185 N   0  0  0  0  0  0  0  0  0  0  0  0
   17.2214   -9.9676   12.4376 C   0  0  0  0  0  0  0  0  0  0  0  0
   16.9565  -10.3367   13.6667 O   0  0  0  0  0  0  0  0  0  0  0  0
   16.3135   -9.1427   11.5930 C   0  0  0  0  0  0  0  0  0  0  0  0
   16.5581   -9.4202   10.1862 N   0  0  0  0  0  0  0  0  0  0  0  0
   15.9519  -10.3717    9.4838 N   0  0  0  0  0  0  0  0  0  0  0  0
   16.4289  -10.4210    8.2397 N   0  0  0  0  0  0  0  0  0  0  0  0
   17.3748   -9.4656    8.1740 C   0  0  0  0  0  0  0  0  0  0  0  0
   18.1862   -9.1138    7.1000 C   0  0  0  0  0  0  0  0  0  0  0  0
   19.1144   -8.0749    7.3134 C   0  0  0  0  0  0  0  0  0  0  0  0
   19.2040   -7.4327    8.5722 C   0  0  0  0  0  0  0  0  0  0  0  0
   18.3660   -7.8182    9.6369 C   0  0  0  0  0  0  0  0  0  0  0  0
   17.4611   -8.8456    9.3816 C   0  0  0  0  0  0  0  0  0  0  0  0
   16.8841  -10.7976   16.3761 C   0  0  0  0  0  0  0  0  0  0  0  0
   17.3752   -9.3677   16.4995 C   0  0  0  0  0  0  0  0  0  0  0  0
   15.6551   -7.8058   16.0142 O   0  0  0  0  0  0  0  0  0  0  0  0
   16.2494   -8.4808   16.8960 C   0  0  0  0  0  0  0  0  0  0  0  0
   15.8416   -8.4356   18.2696 N   0  0  0  0  0  0  0  0  0  0  0  0
   16.3459   -9.0007   18.8985 H   0  0  0  0  0  0  0  0  0  0  0  0
   14.7750   -7.6525   18.8221 C   0  0  0  0  0  0  0  0  0  0  0  0
   13.6852   -7.2298   18.0476 C   0  0  0  0  0  0  0  0  0  0  0  0
   12.6646   -6.4676   18.6211 C   0  0  0  0  0  0  0  0  0  0  0  0
   12.7213   -6.1193   19.9733 C   0  0  0  0  0  0  0  0  0  0  0  0
   11.4170   -5.1603   20.6529 Cl  0  0  0  0  0  0  0  0  0  0  0  0
   13.8106   -6.5393   20.7556 C   0  0  0  0  0  0  0  0  0  0  0  0
   13.9313   -6.1295   22.4586 Cl  0  0  0  0  0  0  0  0  0  0  0  0
   14.8288   -7.3021   20.1748 C   0  0  0  0  0  0  0  0  0  0  0  0
 19 20  2  0  0  0
 20 18  1  0  0  0
 20 21  1  0  0  0
 18 17  1  0  0  0
 17  1  1  0  0  0
  1  2  1  0  0  0
  2  3  2  0  0  0
  3  4  1  0  0  0
  4  5  2  0  0  0
  5  7  1  0  0  0
  5  6  1  0  0  0
  7  8  1  0  0  0
  8  9  1  0  0  0
  9 10  2  0  0  0
 10 11  1  0  0  0
 11 12  2  0  0  0
 12 13  1  0  0  0
 13 14  2  0  0  0
 14 15  1  0  0  0
 15 16  2  0  0  0
 16  8  1  0  0  0
 16 11  1  0  0  0
  6  2  1  0  0  0
 21 23  1  0  0  0
 23 24  2  0  0  0
 24 25  1  0  0  0
 25 26  2  0  0  0
 26 27  1  0  0  0
 26 28  1  0  0  0
 28 29  1  0  0  0
 28 30  2  0  0  0
 30 23  1  0  0  0
 21 22  1  0  0  0
M  END
>  <minimizedAffinity>
-8.91269

>  <minimizedRMSD>
1.56047

$$$$
CHEMBL272252 PubChem-24823095


 28 31  0  0  0  0  0  0  0  0999 V2000
   18.2142  -11.6179   16.1047 C   0  0  0  0  0  0  0  0  0  0  0  0
   17.7755  -11.5179   17.4228 C   0  0  0  0  0  0  0  0  0  0  0  0
   16.9637  -10.4517   17.8110 C   0  0  0  0  0  0  0  0  0  0  0  0
   16.5714   -9.4619   16.8958 C   0  0  0  0  0  0  0  0  0  0  0  0
   17.0190   -9.5633   15.5508 C   0  0  0  0  0  0  0  0  0  0  0  0
   17.8434  -10.6527   15.1690 C   0  0  0  0  0  0  0  0  0  0  0  0
   18.2932  -10.7694   13.8517 C   0  0  0  0  0  0  0  0  0  0  0  0
   17.9342   -9.8186   12.8854 C   0  0  0  0  0  0  0  0  0  0  0  0
   17.1288   -8.7404   13.2607 C   0  0  0  0  0  0  0  0  0  0  0  0
   16.6746   -8.6145   14.5756 C   0  0  0  0  0  0  0  0  0  0  0  0
   15.7053   -8.3618   17.3981 C   0  0  0  0  0  0  0  0  0  0  0  0
   14.9274   -7.7375   16.6298 O   0  0  0  0  0  0  0  0  0  0  0  0
   15.7448   -7.9949   18.7751 N   0  0  0  0  0  0  0  0  0  0  0  0
   16.3456   -8.4695   19.3940 H   0  0  0  0  0  0  0  0  0  0  0  0
   15.1712   -7.2669   19.1071 H   0  0  0  0  0  0  0  0  0  0  0  0
   18.3771   -9.8862   11.5545 O   0  0  0  0  0  0  0  0  0  0  0  0
   17.6013   -9.7226   10.3914 C   0  0  0  0  0  0  0  0  0  0  0  0
   16.3236  -10.2875   10.2620 C   0  0  0  0  0  0  0  0  0  0  0  0
   15.5820  -10.0837    9.0971 C   0  0  0  0  0  0  0  0  0  0  0  0
   16.0907   -9.3332    8.0849 N   0  0  0  0  0  0  0  0  0  0  0  0
   17.3206   -8.7626    8.1733 C   0  0  0  0  0  0  0  0  0  0  0  0
   18.1039   -8.9445    9.3361 C   0  0  0  0  0  0  0  0  0  0  0  0
   19.3689   -8.3481    9.4144 C   0  0  0  0  0  0  0  0  0  0  0  0
   19.8505   -7.5805    8.3507 C   0  0  0  0  0  0  0  0  0  0  0  0
   19.0736   -7.3995    7.1946 C   0  0  0  0  0  0  0  0  0  0  0  0
   17.8100   -7.9937    7.1140 C   0  0  0  0  0  0  0  0  0  0  0  0
   19.5314   -6.6372    6.1165 O   0  0  0  0  0  0  0  0  0  0  0  0
   20.4971   -7.1178    5.1914 C   0  0  0  0  0  0  0  0  0  0  0  0
  1  2  2  0  0  0
  2  3  1  0  0  0
  3  4  2  0  0  0
  4  5  1  0  0  0
  5  6  2  0  0  0
  6  7  1  0  0  0
  7  8  2  0  0  0
  8  9  1  0  0  0
  9 10  2  0  0  0
  8 16  1  0  0  0
 16 17  1  0  0  0
 17 18  2  0  0  0
 18 19  1  0  0  0
 19 20  2  0  0  0
 20 21  1  0  0  0
 21 22  2  0  0  0
 22 23  1  0  0  0
 23 24  2  0  0  0
 24 25  1  0  0  0
 25 26  2  0  0  0
 25 27  1  0  0  0
 27 28  1  0  0  0
  4 11  1  0  0  0
 11 12  2  0  0  0
 11 13  1  0  0  0
  6  1  1  0  0  0
 22 17  1  0  0  0
 10  5  1  0  0  0
 26 21  1  0  0  0
 13 14  1  0  0  0
 13 15  1  0  0  0
M  END
>  <minimizedAffinity>
-8.52823

>  <minimizedRMSD>
1.56399

$$$$
CHEMBL1172718 PubChem-24826800 PubChem-88996409


 37 41  0  0  0  0  0  0  0  0999 V2000
   15.6047   -8.3410   17.2153 C   0  0  0  0  0  0  0  0  0  0  0  0
   14.9197   -7.4336   16.6698 O   0  0  0  0  0  0  0  0  0  0  0  0
   15.5742   -8.5229   18.6393 N   0  0  0  0  0  0  0  0  0  0  0  0
   16.0886   -9.2820   18.9975 H   0  0  0  0  0  0  0  0  0  0  0  0
   18.8753  -11.8504   13.9980 C   0  0  0  0  0  0  0  0  0  0  0  0
   18.0254  -10.9248   14.8020 C   0  0  0  0  0  0  0  0  0  0  0  0
   18.0393  -11.0422   16.1946 C   0  0  0  0  0  0  0  0  0  0  0  0
   17.2517  -10.1980   16.9811 C   0  0  0  0  0  0  0  0  0  0  0  0
   16.4391   -9.2263   16.3841 C   0  0  0  0  0  0  0  0  0  0  0  0
   16.4195   -9.1141   14.9862 C   0  0  0  0  0  0  0  0  0  0  0  0
   17.2079   -9.9541   14.1922 C   0  0  0  0  0  0  0  0  0  0  0  0
   17.1484   -9.8139   12.7607 C   0  0  0  0  0  0  0  0  0  0  0  0
   17.0925   -9.7099   11.5599 C   0  0  0  0  0  0  0  0  0  0  0  0
   17.0251   -9.5953   10.1288 C   0  0  0  0  0  0  0  0  0  0  0  0
   16.1200  -10.2306    9.2902 C   0  0  0  0  0  0  0  0  0  0  0  0
   16.3914   -9.8736    8.0050 N   0  0  0  0  0  0  0  0  0  0  0  0
   17.4458   -9.0398    8.1078 C   0  0  0  0  0  0  0  0  0  0  0  0
   18.1043   -8.4016    7.0641 C   0  0  0  0  0  0  0  0  0  0  0  0
   19.1873   -7.5766    7.4065 C   0  0  0  0  0  0  0  0  0  0  0  0
   19.5611   -7.4267    8.7567 C   0  0  0  0  0  0  0  0  0  0  0  0
   18.8658   -8.0853    9.7278 N   0  0  0  0  0  0  0  0  0  0  0  0
   17.8432   -8.8587    9.3703 N   0  0  0  0  0  0  0  0  0  0  0  0
   14.8732   -7.7149   19.5949 C   0  0  0  0  0  0  0  0  0  0  0  0
   14.9498   -8.0535   20.9482 C   0  0  0  0  0  0  0  0  0  0  0  0
   14.2962   -7.2802   21.9098 C   0  0  0  0  0  0  0  0  0  0  0  0
   13.5623   -6.1504   21.5285 C   0  0  0  0  0  0  0  0  0  0  0  0
   13.4713   -5.8105   20.1675 C   0  0  0  0  0  0  0  0  0  0  0  0
   12.5577   -4.4112   19.6269 Cl  0  0  0  0  0  0  0  0  0  0  0  0
   14.1309   -6.5885   19.2119 C   0  0  0  0  0  0  0  0  0  0  0  0
   12.8826   -5.3288   22.5801 C   0  0  0  0  0  0  0  0  0  0  0  0
   13.7005   -5.2688   23.7819 N   0  0  0  0  0  0  0  0  0  0  0  0
   12.7879   -5.1864   24.9241 C   0  0  0  0  0  0  0  0  0  0  0  0
   13.5262   -4.7853   26.2115 C   0  0  0  0  0  0  0  0  0  0  0  0
   14.9742   -4.8562   26.0252 N   0  0  0  0  0  0  0  0  0  0  0  0
   15.5812   -4.3883   27.2579 C   0  0  0  0  0  0  0  0  0  0  0  0
   15.3780   -3.9158   24.9748 C   0  0  0  0  0  0  0  0  0  0  0  0
   14.4921   -4.0395   23.7267 C   0  0  0  0  0  0  0  0  0  0  0  0
  5  6  1  0  0  0
  6  7  2  0  0  0
  7  8  1  0  0  0
  8  9  2  0  0  0
  9  1  1  0  0  0
  9 10  1  0  0  0
  1  2  2  0  0  0
  1  3  1  0  0  0
  3 23  1  0  0  0
 23 24  2  0  0  0
 24 25  1  0  0  0
 25 26  2  0  0  0
 26 30  1  0  0  0
 26 27  1  0  0  0
 30 31  1  0  0  0
 31 32  1  0  0  0
 32 33  1  0  0  0
 33 34  1  0  0  0
 34 35  1  0  0  0
 34 36  1  0  0  0
 36 37  1  0  0  0
 37 31  1  0  0  0
 27 28  1  0  0  0
 27 29  2  0  0  0
 29 23  1  0  0  0
 10 11  2  0  0  0
 11 12  1  0  0  0
 11  6  1  0  0  0
 12 13  3  0  0  0
 13 14  1  0  0  0
 14 15  2  0  0  0
 15 16  1  0  0  0
 16 17  2  0  0  0
 17 18  1  0  0  0
 18 19  2  0  0  0
 19 20  1  0  0  0
 20 21  2  0  0  0
 21 22  1  0  0  0
 22 14  1  0  0  0
 22 17  1  0  0  0
  3  4  1  0  0  0
M  END
>  <minimizedAffinity>
-11.99920

>  <minimizedRMSD>
1.56521

$$$$
CHEMBL3906692 PubChem-68027271


 34 38  0  0  0  0  0  0  0  0999 V2000
   17.9231  -12.9897   15.1950 C   0  0  0  0  0  0  0  0  0  0  0  0
   17.9510  -11.5724   14.8693 N   0  0  0  0  0  0  0  0  0  0  0  0
   17.2352  -10.6369   15.7057 C   0  0  0  0  0  0  0  0  0  0  0  0
   16.3055   -9.7387   15.1612 C   0  0  0  0  0  0  0  0  0  0  0  0
   15.6304   -8.8490   15.9960 C   0  0  0  0  0  0  0  0  0  0  0  0
   15.8789   -8.8514   17.3724 C   0  0  0  0  0  0  0  0  0  0  0  0
   16.8124   -9.7603   17.8823 C   0  0  0  0  0  0  0  0  0  0  0  0
   17.4600  -10.6196   17.0508 N   0  0  0  0  0  0  0  0  0  0  0  0
   15.1732   -7.9175   18.2668 C   0  0  0  0  0  0  0  0  0  0  0  0
   14.4569   -7.0028   17.7761 O   0  0  0  0  0  0  0  0  0  0  0  0
   15.3076   -8.0575   19.6897 N   0  0  0  0  0  0  0  0  0  0  0  0
   15.8815   -8.7920   20.0067 H   0  0  0  0  0  0  0  0  0  0  0  0
   14.6950   -7.2415   20.6993 C   0  0  0  0  0  0  0  0  0  0  0  0
   13.3025   -7.0798   20.7730 C   0  0  0  0  0  0  0  0  0  0  0  0
   12.7332   -6.2792   21.7669 C   0  0  0  0  0  0  0  0  0  0  0  0
   13.5517   -5.6332   22.6961 C   0  0  0  0  0  0  0  0  0  0  0  0
   14.9387   -5.7881   22.6308 C   0  0  0  0  0  0  0  0  0  0  0  0
   15.5099   -6.5890   21.6368 C   0  0  0  0  0  0  0  0  0  0  0  0
   16.8579   -6.7288   21.5875 F   0  0  0  0  0  0  0  0  0  0  0  0
   18.7209  -11.1897   13.6838 C   0  0  0  0  0  0  0  0  0  0  0  0
   19.2962   -9.7845   13.8096 C   0  0  0  0  0  0  0  0  0  0  0  0
   19.0516   -9.1075   12.4736 C   0  0  0  0  0  0  0  0  0  0  0  0
   18.1576   -9.9804   11.7339 N   0  0  0  0  0  0  0  0  0  0  0  0
   17.8743  -11.2228   12.4244 C   0  0  0  0  0  0  0  0  0  0  0  0
   17.5931   -9.6747   10.4466 C   0  0  0  0  0  0  0  0  0  0  0  0
   16.3911  -10.2165   10.0830 N   0  0  0  0  0  0  0  0  0  0  0  0
   15.8175   -9.9497    8.8691 C   0  0  0  0  0  0  0  0  0  0  0  0
   16.4380   -9.1240    7.9774 N   0  0  0  0  0  0  0  0  0  0  0  0
   17.6287   -8.5791    8.3233 C   0  0  0  0  0  0  0  0  0  0  0  0
   18.3576   -7.7521    7.5628 N   0  0  0  0  0  0  0  0  0  0  0  0
   19.4479   -7.4744    8.3196 C   0  0  0  0  0  0  0  0  0  0  0  0
   19.4032   -8.1265    9.5544 C   0  0  0  0  0  0  0  0  0  0  0  0
   18.2187   -8.8288    9.5223 C   0  0  0  0  0  0  0  0  0  0  0  0
   18.1491   -7.4210    6.6595 H   0  0  0  0  0  0  0  0  0  0  0  0
  1  2  1  0  0  0
 20  2  1  0  0  0
 20 21  1  0  0  0
 21 22  1  0  0  0
 22 23  1  0  0  0
 23 24  1  0  0  0
 23 25  1  0  0  0
 25 26  2  0  0  0
 26 27  1  0  0  0
 27 28  2  0  0  0
 28 29  1  0  0  0
 29 30  1  0  0  0
 30 31  1  0  0  0
 31 32  2  0  0  0
 32 33  1  0  0  0
  2  3  1  0  0  0
  3  4  2  0  0  0
  4  5  1  0  0  0
  5  6  2  0  0  0
  6  7  1  0  0  0
  7  8  2  0  0  0
  6  9  1  0  0  0
  9 10  2  0  0  0
  9 11  1  0  0  0
 11 13  1  0  0  0
 13 14  2  0  0  0
 14 15  1  0  0  0
 15 16  2  0  0  0
 16 17  1  0  0  0
 17 18  2  0  0  0
 18 19  1  0  0  0
 24 20  1  0  0  0
 33 25  1  0  0  0
  8  3  1  0  0  0
 18 13  1  0  0  0
 33 29  2  0  0  0
 30 34  1  0  0  0
 11 12  1  0  0  0
M  END
>  <minimizedAffinity>
-6.72489

>  <minimizedRMSD>
1.56637

$$$$
CHEMBL1454071 8612273 ChemDiv-D103-1620 MCULE-7893789107 PubChem-4898889 ZINC000008612273


 30 32  0  0  0  0  0  0  0  0999 V2000
   18.9962  -10.0455   13.6024 N   0  0  0  0  0  0  0  0  0  0  0  0
   17.7295  -10.2548   12.9720 C   0  0  0  0  0  0  0  0  0  0  0  0
   16.7692  -10.7470   13.6256 O   0  0  0  0  0  0  0  0  0  0  0  0
   19.7420   -9.7039   13.0580 H   0  0  0  0  0  0  0  0  0  0  0  0
   17.5563   -9.8971   11.5572 C   0  0  0  0  0  0  0  0  0  0  0  0
   18.5261   -9.2460   10.9223 O   0  0  0  0  0  0  0  0  0  0  0  0
   18.4399   -8.8895    9.6449 C   0  0  0  0  0  0  0  0  0  0  0  0
   19.5092   -8.2079    9.0602 C   0  0  0  0  0  0  0  0  0  0  0  0
   19.4506   -7.8205    7.7230 C   0  0  0  0  0  0  0  0  0  0  0  0
   20.5931   -7.0951    7.1096 C   0  0  0  0  0  0  0  0  0  0  0  0
   18.3204   -8.1121    6.9604 C   0  0  0  0  0  0  0  0  0  0  0  0
   17.2355   -8.7933    7.5204 C   0  0  0  0  0  0  0  0  0  0  0  0
   16.0693   -9.0610    6.6284 C   0  0  0  0  0  0  0  0  0  0  0  0
   17.2819   -9.1945    8.8824 C   0  0  0  0  0  0  0  0  0  0  0  0
   16.2385   -9.8859    9.5391 C   0  0  0  0  0  0  0  0  0  0  0  0
   15.1728  -10.2001    8.9463 O   0  0  0  0  0  0  0  0  0  0  0  0
   16.3823  -10.2349   10.8796 C   0  0  0  0  0  0  0  0  0  0  0  0
   19.2314  -10.3154   15.0143 C   0  0  0  0  0  0  0  0  0  0  0  0
   16.1110   -8.5752   17.3917 C   0  0  0  0  0  0  0  0  0  0  0  0
   16.6236   -9.8357   17.7192 C   0  0  0  0  0  0  0  0  0  0  0  0
   17.6439  -10.3998   16.9478 C   0  0  0  0  0  0  0  0  0  0  0  0
   18.1550   -9.7051   15.8465 C   0  0  0  0  0  0  0  0  0  0  0  0
   17.6383   -8.4477   15.5141 C   0  0  0  0  0  0  0  0  0  0  0  0
   16.6182   -7.8839   16.2860 C   0  0  0  0  0  0  0  0  0  0  0  0
   14.8250   -7.8673   18.3514 S   0  0  0  0  0  0  0  0  0  0  0  0
   15.4975   -7.1037   19.7480 N   0  0  0  0  0  0  0  0  0  0  0  0
   14.0833   -6.8518   17.5286 O   0  0  0  0  0  0  0  0  0  0  0  0
   13.8718   -8.9411   18.7969 O   0  0  0  0  0  0  0  0  0  0  0  0
   14.7481   -6.6927   20.3048 H   0  0  0  0  0  0  0  0  0  0  0  0
   16.1452   -6.3716   19.4565 H   0  0  0  0  0  0  0  0  0  0  0  0
 25 26  1  0  0  0
 25 27  2  0  0  0
 25 28  2  0  0  0
 25 19  1  0  0  0
 19 20  2  0  0  0
 20 21  1  0  0  0
 21 22  2  0  0  0
 22 23  1  0  0  0
 23 24  2  0  0  0
 22 18  1  0  0  0
 18  1  1  0  0  0
  1  2  1  0  0  0
  2  3  2  0  0  0
  2  5  1  0  0  0
  5  6  1  0  0  0
  6  7  1  0  0  0
  7  8  2  0  0  0
  8  9  1  0  0  0
  9 10  1  0  0  0
  9 11  2  0  0  0
 11 12  1  0  0  0
 12 13  1  0  0  0
 12 14  2  0  0  0
 14 15  1  0  0  0
 15 16  2  0  0  0
 15 17  1  0  0  0
 24 19  1  0  0  0
 17  5  2  0  0  0
 14  7  1  0  0  0
 26 29  1  0  0  0
 26 30  1  0  0  0
  1  4  1  0  0  0
M  END
>  <minimizedAffinity>
-1.71703

>  <minimizedRMSD>
1.56948

$$$$
CHEMBL4438001 PubChem-155513138


 35 39  0  0  0  0  0  0  0  0999 V2000
   17.9611   -9.8485   14.2113 C   0  0  0  0  0  0  0  0  0  0  0  0
   17.1786   -8.9525   14.9556 C   0  0  0  0  0  0  0  0  0  0  0  0
   16.6311   -9.3254   16.1904 C   0  0  0  0  0  0  0  0  0  0  0  0
   16.8722  -10.6137   16.6832 C   0  0  0  0  0  0  0  0  0  0  0  0
   17.6490  -11.5144   15.9520 C   0  0  0  0  0  0  0  0  0  0  0  0
   18.1935  -11.1385   14.7209 C   0  0  0  0  0  0  0  0  0  0  0  0
   19.0175  -12.1268   13.9686 C   0  0  0  0  0  0  0  0  0  0  0  0
   17.8400   -9.3860   11.6853 C   0  0  0  0  0  0  0  0  0  0  0  0
   16.6087   -9.6414   11.6020 O   0  0  0  0  0  0  0  0  0  0  0  0
   18.5253   -9.4732   12.9443 N   0  0  0  0  0  0  0  0  0  0  0  0
   19.4846   -9.2520   12.9386 H   0  0  0  0  0  0  0  0  0  0  0  0
   19.4054   -7.7097   10.5822 C   0  0  0  0  0  0  0  0  0  0  0  0
   18.5854   -8.9765   10.4505 C   0  0  0  0  0  0  0  0  0  0  0  0
   20.0984   -9.0618   10.5102 C   0  0  0  0  0  0  0  0  0  0  0  0
   17.9900   -9.2353    9.0987 C   0  0  0  0  0  0  0  0  0  0  0  0
   16.9492  -10.1100    8.9616 N   0  0  0  0  0  0  0  0  0  0  0  0
   16.3671  -10.3424    7.7435 C   0  0  0  0  0  0  0  0  0  0  0  0
   16.8125   -9.6925    6.6277 N   0  0  0  0  0  0  0  0  0  0  0  0
   17.8379   -8.8165    6.7580 C   0  0  0  0  0  0  0  0  0  0  0  0
   18.4299   -8.5713    7.9541 C   0  0  0  0  0  0  0  0  0  0  0  0
   19.4168   -7.6332    7.7536 C   0  0  0  0  0  0  0  0  0  0  0  0
   19.3501   -7.3666    6.3826 C   0  0  0  0  0  0  0  0  0  0  0  0
   18.3802   -8.0926    5.7707 N   0  0  0  0  0  0  0  0  0  0  0  0
   18.1321   -8.0881    4.8180 H   0  0  0  0  0  0  0  0  0  0  0  0
   15.8116   -8.3736   16.9608 C   0  0  0  0  0  0  0  0  0  0  0  0
   15.1607   -7.4779   16.3568 O   0  0  0  0  0  0  0  0  0  0  0  0
   15.7612   -8.4744   18.3923 N   0  0  0  0  0  0  0  0  0  0  0  0
   16.2923   -9.1953   18.8018 H   0  0  0  0  0  0  0  0  0  0  0  0
   15.0191   -7.6363   19.2887 C   0  0  0  0  0  0  0  0  0  0  0  0
   13.7722   -7.0942   18.9401 C   0  0  0  0  0  0  0  0  0  0  0  0
   13.0780   -6.2811   19.8407 C   0  0  0  0  0  0  0  0  0  0  0  0
   13.6255   -6.0043   21.0960 C   0  0  0  0  0  0  0  0  0  0  0  0
   14.8665   -6.5405   21.4497 C   0  0  0  0  0  0  0  0  0  0  0  0
   15.5598   -7.3537   20.5480 C   0  0  0  0  0  0  0  0  0  0  0  0
   15.5534   -6.1944   23.0216 Cl  0  0  0  0  0  0  0  0  0  0  0  0
 12 13  1  0  0  0
 13 14  1  0  0  0
 13 15  1  0  0  0
 15 16  2  0  0  0
 16 17  1  0  0  0
 17 18  2  0  0  0
 18 19  1  0  0  0
 19 20  2  0  0  0
 20 21  1  0  0  0
 21 22  2  0  0  0
 22 23  1  0  0  0
 13  8  1  0  0  0
  8  9  2  0  0  0
  8 10  1  0  0  0
 10  1  1  0  0  0
  1  2  2  0  0  0
  2  3  1  0  0  0
  3  4  2  0  0  0
  4  5  1  0  0  0
  5  6  2  0  0  0
  6  7  1  0  0  0
  3 25  1  0  0  0
 25 26  2  0  0  0
 25 27  1  0  0  0
 27 29  1  0  0  0
 29 30  2  0  0  0
 30 31  1  0  0  0
 31 32  2  0  0  0
 32 33  1  0  0  0
 33 34  2  0  0  0
 33 35  1  0  0  0
 14 12  1  0  0  0
 20 15  1  0  0  0
  6  1  1  0  0  0
 34 29  1  0  0  0
 23 19  1  0  0  0
 23 24  1  0  0  0
 10 11  1  0  0  0
 27 28  1  0  0  0
M  END
>  <minimizedAffinity>
-6.35027

>  <minimizedRMSD>
1.56983

$$$$
CHEMBL4588013 PubChem-155567369


 35 39  0  0  0  0  0  0  0  0999 V2000
   17.9699   -9.8457   14.1991 C   0  0  0  0  0  0  0  0  0  0  0  0
   17.1842   -8.9518   14.9425 C   0  0  0  0  0  0  0  0  0  0  0  0
   16.6368   -9.3260   16.1770 C   0  0  0  0  0  0  0  0  0  0  0  0
   16.8818  -10.6133   16.6705 C   0  0  0  0  0  0  0  0  0  0  0  0
   17.6617  -11.5119   15.9401 C   0  0  0  0  0  0  0  0  0  0  0  0
   18.2056  -11.1349   14.7090 C   0  0  0  0  0  0  0  0  0  0  0  0
   19.0317  -12.1214   13.9568 C   0  0  0  0  0  0  0  0  0  0  0  0
   17.8461   -9.3814   11.6734 C   0  0  0  0  0  0  0  0  0  0  0  0
   16.6138   -9.6330   11.5920 O   0  0  0  0  0  0  0  0  0  0  0  0
   18.5327   -9.4695   12.9317 N   0  0  0  0  0  0  0  0  0  0  0  0
   19.4921   -9.2485   12.9251 H   0  0  0  0  0  0  0  0  0  0  0  0
   20.1041   -9.0614   10.4964 C   0  0  0  0  0  0  0  0  0  0  0  0
   18.5912   -8.9749   10.4373 C   0  0  0  0  0  0  0  0  0  0  0  0
   19.4125   -7.7086   10.5659 C   0  0  0  0  0  0  0  0  0  0  0  0
   17.9950   -9.2360    9.0864 C   0  0  0  0  0  0  0  0  0  0  0  0
   16.9513  -10.1078    8.9520 N   0  0  0  0  0  0  0  0  0  0  0  0
   16.3677  -10.3412    7.7349 C   0  0  0  0  0  0  0  0  0  0  0  0
   16.8137   -9.6944    6.6175 N   0  0  0  0  0  0  0  0  0  0  0  0
   17.8412   -8.8206    6.7452 C   0  0  0  0  0  0  0  0  0  0  0  0
   18.4349   -8.5746    7.9402 C   0  0  0  0  0  0  0  0  0  0  0  0
   19.4233   -7.6386    7.7374 C   0  0  0  0  0  0  0  0  0  0  0  0
   19.3551   -7.3735    6.3661 C   0  0  0  0  0  0  0  0  0  0  0  0
   18.3834   -8.0987    5.7564 N   0  0  0  0  0  0  0  0  0  0  0  0
   18.1339   -8.0948    4.8040 H   0  0  0  0  0  0  0  0  0  0  0  0
   15.8128   -8.3768   16.9461 C   0  0  0  0  0  0  0  0  0  0  0  0
   15.1591   -7.4838   16.3411 O   0  0  0  0  0  0  0  0  0  0  0  0
   15.7617   -8.4767   18.3778 N   0  0  0  0  0  0  0  0  0  0  0  0
   16.2959   -9.1945   18.7882 H   0  0  0  0  0  0  0  0  0  0  0  0
   15.0148   -7.6416   19.2730 C   0  0  0  0  0  0  0  0  0  0  0  0
   15.5439   -7.3713   20.5401 C   0  0  0  0  0  0  0  0  0  0  0  0
   14.8457   -6.5616   21.4410 C   0  0  0  0  0  0  0  0  0  0  0  0
   13.6111   -6.0167   21.0785 C   0  0  0  0  0  0  0  0  0  0  0  0
   13.0744   -6.2818   19.8158 C   0  0  0  0  0  0  0  0  0  0  0  0
   13.7738   -7.0911   18.9159 C   0  0  0  0  0  0  0  0  0  0  0  0
   12.9334   -5.2338   21.9520 F   0  0  0  0  0  0  0  0  0  0  0  0
 12 13  1  0  0  0
 13 14  1  0  0  0
 13 15  1  0  0  0
 15 16  2  0  0  0
 16 17  1  0  0  0
 17 18  2  0  0  0
 18 19  1  0  0  0
 19 20  2  0  0  0
 20 21  1  0  0  0
 21 22  2  0  0  0
 22 23  1  0  0  0
 13  8  1  0  0  0
  8  9  2  0  0  0
  8 10  1  0  0  0
 10  1  1  0  0  0
  1  2  2  0  0  0
  2  3  1  0  0  0
  3  4  2  0  0  0
  4  5  1  0  0  0
  5  6  2  0  0  0
  6  7  1  0  0  0
  3 25  1  0  0  0
 25 26  2  0  0  0
 25 27  1  0  0  0
 27 29  1  0  0  0
 29 30  2  0  0  0
 30 31  1  0  0  0
 31 32  2  0  0  0
 32 33  1  0  0  0
 33 34  2  0  0  0
 32 35  1  0  0  0
 14 12  1  0  0  0
 20 15  1  0  0  0
  6  1  1  0  0  0
 34 29  1  0  0  0
 23 19  1  0  0  0
 23 24  1  0  0  0
 10 11  1  0  0  0
 27 28  1  0  0  0
M  END
>  <minimizedAffinity>
-6.32541

>  <minimizedRMSD>
1.57113

$$$$
CHEMBL1933429 PubChem-136008108


 31 33  0  0  0  0  0  0  0  0999 V2000
   18.9088   -8.6913   10.1423 N   0  0  0  0  0  0  0  0  0  0  0  0
   18.0715   -9.4846   10.8613 C   0  0  0  0  0  0  0  0  0  0  0  0
   17.0059  -10.0765   10.2586 N   0  0  0  0  0  0  0  0  0  0  0  0
   16.7610   -9.9054    8.9329 C   0  0  0  0  0  0  0  0  0  0  0  0
   15.7664  -10.4730    8.4064 O   0  0  0  0  0  0  0  0  0  0  0  0
   17.6157   -9.0993    8.1693 C   0  0  0  0  0  0  0  0  0  0  0  0
   18.7075   -8.4889    8.8152 C   0  0  0  0  0  0  0  0  0  0  0  0
   19.5794   -7.6755    8.0900 C   0  0  0  0  0  0  0  0  0  0  0  0
   19.3774   -7.4605    6.7161 C   0  0  0  0  0  0  0  0  0  0  0  0
   18.2894   -8.0688    6.0687 C   0  0  0  0  0  0  0  0  0  0  0  0
   17.4124   -8.8865    6.8008 C   0  0  0  0  0  0  0  0  0  0  0  0
   16.4004  -10.6397   10.7929 H   0  0  0  0  0  0  0  0  0  0  0  0
   18.0993   -7.8472    4.7004 O   0  0  0  0  0  0  0  0  0  0  0  0
   18.7047   -8.6534    3.6988 C   0  0  0  0  0  0  0  0  0  0  0  0
   20.2436   -6.6478    5.9764 O   0  0  0  0  0  0  0  0  0  0  0  0
   21.3733   -7.1587    5.2821 C   0  0  0  0  0  0  0  0  0  0  0  0
   18.2947   -9.6685   12.3196 C   0  0  0  0  0  0  0  0  0  0  0  0
   17.0190   -9.8827   12.9852 N   0  0  0  0  0  0  0  0  0  0  0  0
   16.2345  -10.1113   12.4361 H   0  0  0  0  0  0  0  0  0  0  0  0
   16.8538   -9.7759   14.4006 C   0  0  0  0  0  0  0  0  0  0  0  0
   17.3504  -10.7598   15.2681 C   0  0  0  0  0  0  0  0  0  0  0  0
   17.1762  -10.6321   16.6486 C   0  0  0  0  0  0  0  0  0  0  0  0
   16.5056   -9.5216   17.1686 C   0  0  0  0  0  0  0  0  0  0  0  0
   16.0065   -8.5347   16.3127 C   0  0  0  0  0  0  0  0  0  0  0  0
   16.1839   -8.6676   14.9277 C   0  0  0  0  0  0  0  0  0  0  0  0
   15.3246   -7.4085   16.8713 N   0  0  0  0  0  0  0  0  0  0  0  0
   15.4845   -6.5233   16.4712 H   0  0  0  0  0  0  0  0  0  0  0  0
   14.2325   -7.5146   18.2128 S   0  0  0  0  0  0  0  0  0  0  0  0
   13.2797   -8.6525   17.9809 O   0  0  0  0  0  0  0  0  0  0  0  0
   13.4515   -6.2366   18.3340 O   0  0  0  0  0  0  0  0  0  0  0  0
   15.1407   -7.8176   19.7108 C   0  0  0  0  0  0  0  0  0  0  0  0
  1  2  2  0  0  0
  2  3  1  0  0  0
  3  4  1  0  0  0
  4  5  2  0  0  0
  4  6  1  0  0  0
  6  7  2  0  0  0
  7  8  1  0  0  0
  8  9  2  0  0  0
  9 10  1  0  0  0
 10 11  2  0  0  0
 10 13  1  0  0  0
 13 14  1  0  0  0
  9 15  1  0  0  0
 15 16  1  0  0  0
  2 17  1  0  0  0
 17 18  1  0  0  0
 18 20  1  0  0  0
 20 21  2  0  0  0
 21 22  1  0  0  0
 22 23  2  0  0  0
 23 24  1  0  0  0
 24 25  2  0  0  0
 24 26  1  0  0  0
 26 28  1  0  0  0
 28 29  2  0  0  0
 28 30  2  0  0  0
 28 31  1  0  0  0
  7  1  1  0  0  0
 25 20  1  0  0  0
 11  6  1  0  0  0
  3 12  1  0  0  0
 18 19  1  0  0  0
 26 27  1  0  0  0
M  END
>  <minimizedAffinity>
-6.49561

>  <minimizedRMSD>
1.57131

$$$$
CHEMBL3914972 PubChem-89743533


 37 41  0  0  0  0  0  0  0  0999 V2000
   17.3065  -10.7517   15.6696 C   0  0  0  0  0  0  0  0  0  0  0  0
   17.5958  -10.6922   17.0409 C   0  0  0  0  0  0  0  0  0  0  0  0
   16.9174   -9.7822   17.8516 C   0  0  0  0  0  0  0  0  0  0  0  0
   15.9532   -8.9327   17.3002 C   0  0  0  0  0  0  0  0  0  0  0  0
   15.6900   -9.0189   15.9284 C   0  0  0  0  0  0  0  0  0  0  0  0
   16.3623   -9.9128   15.1556 N   0  0  0  0  0  0  0  0  0  0  0  0
   15.2301   -7.9681   18.1462 C   0  0  0  0  0  0  0  0  0  0  0  0
   14.4961   -7.0893   17.6161 O   0  0  0  0  0  0  0  0  0  0  0  0
   15.3634   -8.0247   19.5699 N   0  0  0  0  0  0  0  0  0  0  0  0
   15.9586   -8.7045   19.9610 H   0  0  0  0  0  0  0  0  0  0  0  0
   14.6557   -7.1191   20.4652 C   0  0  0  0  0  0  0  0  0  0  0  0
   15.3723   -7.0346   21.7770 C   0  0  0  0  0  0  0  0  0  0  0  0
   14.7604   -7.4577   22.9673 C   0  0  0  0  0  0  0  0  0  0  0  0
   15.4509   -7.3740   24.1798 C   0  0  0  0  0  0  0  0  0  0  0  0
   16.7543   -6.8694   24.2084 C   0  0  0  0  0  0  0  0  0  0  0  0
   17.3677   -6.4490   23.0246 C   0  0  0  0  0  0  0  0  0  0  0  0
   16.6779   -6.5323   21.8112 C   0  0  0  0  0  0  0  0  0  0  0  0
   13.2161   -7.5826   20.6519 C   0  0  0  0  0  0  0  0  0  0  0  0
   12.3367   -6.5417   20.3527 O   0  0  0  0  0  0  0  0  0  0  0  0
   12.5070   -5.7937   20.9464 H   0  0  0  0  0  0  0  0  0  0  0  0
   17.9393  -13.1168   15.0835 C   0  0  0  0  0  0  0  0  0  0  0  0
   17.9962  -11.6877   14.8123 N   0  0  0  0  0  0  0  0  0  0  0  0
   18.7735  -11.2735   13.6440 C   0  0  0  0  0  0  0  0  0  0  0  0
   19.3188   -9.8594   13.8041 C   0  0  0  0  0  0  0  0  0  0  0  0
   19.0444   -9.1465   12.4931 C   0  0  0  0  0  0  0  0  0  0  0  0
   18.1784  -10.0242   11.7268 N   0  0  0  0  0  0  0  0  0  0  0  0
   17.9365  -11.2963   12.3775 C   0  0  0  0  0  0  0  0  0  0  0  0
   17.6011   -9.6956   10.4508 C   0  0  0  0  0  0  0  0  0  0  0  0
   16.3912  -10.2240   10.0935 N   0  0  0  0  0  0  0  0  0  0  0  0
   15.8050   -9.9354    8.8906 C   0  0  0  0  0  0  0  0  0  0  0  0
   16.4207   -9.1007    8.0040 N   0  0  0  0  0  0  0  0  0  0  0  0
   17.6191   -8.5691    8.3437 C   0  0  0  0  0  0  0  0  0  0  0  0
   18.3446   -7.7358    7.5869 N   0  0  0  0  0  0  0  0  0  0  0  0
   19.4456   -7.4765    8.3347 C   0  0  0  0  0  0  0  0  0  0  0  0
   19.4111   -8.1466    9.5601 C   0  0  0  0  0  0  0  0  0  0  0  0
   18.2215   -8.8405    9.5318 C   0  0  0  0  0  0  0  0  0  0  0  0
   18.1278   -7.3899    6.6910 H   0  0  0  0  0  0  0  0  0  0  0  0
 21 22  1  0  0  0
 23 22  1  0  0  0
 23 24  1  0  0  0
 24 25  1  0  0  0
 25 26  1  0  0  0
 26 27  1  0  0  0
 26 28  1  0  0  0
 28 29  2  0  0  0
 29 30  1  0  0  0
 30 31  2  0  0  0
 31 32  1  0  0  0
 32 33  1  0  0  0
 33 34  1  0  0  0
 34 35  2  0  0  0
 35 36  1  0  0  0
 22  1  1  0  0  0
  1  2  2  0  0  0
  2  3  1  0  0  0
  3  4  2  0  0  0
  4  5  1  0  0  0
  5  6  2  0  0  0
  4  7  1  0  0  0
  7  8  2  0  0  0
  7  9  1  0  0  0
  9 11  1  0  0  0
 11 18  1  0  0  0
 18 19  1  0  0  0
 11 12  1  0  0  0
 12 13  2  0  0  0
 13 14  1  0  0  0
 14 15  2  0  0  0
 15 16  1  0  0  0
 16 17  2  0  0  0
 27 23  1  0  0  0
 36 28  1  0  0  0
  6  1  1  0  0  0
 17 12  1  0  0  0
 36 32  2  0  0  0
 33 37  1  0  0  0
  9 10  1  0  0  0
 19 20  1  0  0  0
M  END
>  <minimizedAffinity>
-6.94756

>  <minimizedRMSD>
1.57164

$$$$
CHEMBL3896177


 34 38  0  0  0  0  0  0  0  0999 V2000
   17.6786  -10.8714   12.7814 C   0  0  0  0  0  0  0  0  0  0  0  0
   18.6040  -12.0785   12.8154 C   0  0  0  0  0  0  0  0  0  0  0  0
   19.0619   -7.3599    7.4934 C   0  0  0  0  0  0  0  0  0  0  0  0
   20.1581   -7.3994    8.3527 C   0  0  0  0  0  0  0  0  0  0  0  0
   20.0824   -8.1194    9.5422 C   0  0  0  0  0  0  0  0  0  0  0  0
   18.9132   -8.8048    9.8763 C   0  0  0  0  0  0  0  0  0  0  0  0
   17.7878   -8.7791    9.0212 C   0  0  0  0  0  0  0  0  0  0  0  0
   17.8794   -8.0361    7.8094 C   0  0  0  0  0  0  0  0  0  0  0  0
   16.7673   -7.9361    6.8184 C   0  0  0  0  0  0  0  0  0  0  0  0
   16.6282   -9.4919    9.4251 C   0  0  0  0  0  0  0  0  0  0  0  0
   15.5820   -9.4424    8.7200 O   0  0  0  0  0  0  0  0  0  0  0  0
   16.6263  -10.2297   10.5898 N   0  0  0  0  0  0  0  0  0  0  0  0
   17.7125  -10.1998   11.4346 C   0  0  0  0  0  0  0  0  0  0  0  0
   18.8629   -9.4961   11.0753 C   0  0  0  0  0  0  0  0  0  0  0  0
   15.4036  -10.9552   10.9928 C   0  0  0  0  0  0  0  0  0  0  0  0
   14.1552  -10.1466   10.6521 C   0  0  0  0  0  0  0  0  0  0  0  0
   14.6410  -10.1959   12.0754 C   0  0  0  0  0  0  0  0  0  0  0  0
   18.0372   -9.9223   13.8265 N   0  0  0  0  0  0  0  0  0  0  0  0
   18.4446   -9.0658   13.5624 H   0  0  0  0  0  0  0  0  0  0  0  0
   17.8262  -10.1749   15.2156 C   0  0  0  0  0  0  0  0  0  0  0  0
   18.3747  -11.2779   15.8092 N   0  0  0  0  0  0  0  0  0  0  0  0
   18.1490  -11.5719   17.1267 C   0  0  0  0  0  0  0  0  0  0  0  0
   17.3531  -10.7669   17.8884 N   0  0  0  0  0  0  0  0  0  0  0  0
   16.8063   -9.6718   17.3101 C   0  0  0  0  0  0  0  0  0  0  0  0
   17.0260   -9.3426   16.0048 C   0  0  0  0  0  0  0  0  0  0  0  0
   16.2839   -8.1808   15.8200 C   0  0  0  0  0  0  0  0  0  0  0  0
   15.6644   -7.8867   16.9902 N   0  0  0  0  0  0  0  0  0  0  0  0
   15.9832   -8.7963   17.9045 N   0  0  0  0  0  0  0  0  0  0  0  0
   15.6743   -8.8225   18.8390 H   0  0  0  0  0  0  0  0  0  0  0  0
   16.1418   -7.3307   14.6232 C   0  0  0  0  0  0  0  0  0  0  0  0
   16.5169   -6.1300   14.6725 O   0  0  0  0  0  0  0  0  0  0  0  0
   15.6424   -7.8453   13.3958 N   0  0  0  0  0  0  0  0  0  0  0  0
   15.3448   -8.7821   13.3395 H   0  0  0  0  0  0  0  0  0  0  0  0
   15.5942   -7.2650   12.6020 H   0  0  0  0  0  0  0  0  0  0  0  0
  3  4  2  0  0  0
  4  5  1  0  0  0
  5  6  2  0  0  0
  6  7  1  0  0  0
  7  8  2  0  0  0
  8  9  1  0  0  0
  7 10  1  0  0  0
 10 11  2  0  0  0
 10 12  1  0  0  0
 12 13  1  0  0  0
 13 14  2  0  0  0
 13  1  1  0  0  0
  1 18  1  0  0  0
 18 20  1  0  0  0
 20 21  2  0  0  0
 21 22  1  0  0  0
 22 23  2  0  0  0
 23 24  1  0  0  0
 24 25  2  0  0  0
 25 26  1  0  0  0
 26 27  2  0  0  0
 27 28  1  0  0  0
 26 30  1  0  0  0
 30 31  2  0  0  0
 30 32  1  0  0  0
  1  2  1  0  0  0
 12 15  1  0  0  0
 15 16  1  0  0  0
 16 17  1  0  0  0
  8  3  1  0  0  0
 25 20  1  0  0  0
 17 15  1  0  0  0
 14  6  1  0  0  0
 28 24  1  0  0  0
 18 19  1  0  0  0
 28 29  1  0  0  0
 32 33  1  0  0  0
 32 34  1  0  0  0
M  END
>  <minimizedAffinity>
-1.04900

>  <minimizedRMSD>
1.57217

$$$$
CHEMBL241685


 36 40  0  0  0  0  0  0  0  0999 V2000
   16.1984   -9.5397    8.3964 C   0  0  0  0  0  0  0  0  0  0  0  0
   16.7536  -10.0592    7.2731 N   0  0  0  0  0  0  0  0  0  0  0  0
   17.7616   -9.2082    7.0131 C   0  0  0  0  0  0  0  0  0  0  0  0
   18.7063   -9.3288    5.9992 C   0  0  0  0  0  0  0  0  0  0  0  0
   19.7244   -8.3652    5.9389 C   0  0  0  0  0  0  0  0  0  0  0  0
   19.7693   -7.3122    6.8743 C   0  0  0  0  0  0  0  0  0  0  0  0
   18.7992   -7.1988    7.8909 C   0  0  0  0  0  0  0  0  0  0  0  0
   17.8021   -8.1969    7.9390 C   0  0  0  0  0  0  0  0  0  0  0  0
   16.8121   -8.4096    8.8309 N   0  0  0  0  0  0  0  0  0  0  0  0
   18.8440   -6.0252    8.7796 C   0  0  0  0  0  0  0  0  0  0  0  0
   19.4589   -6.1016    9.8789 O   0  0  0  0  0  0  0  0  0  0  0  0
   18.2733   -4.8151    8.3755 O   0  0  0  0  0  0  0  0  0  0  0  0
   17.2833   -4.1419    9.1432 C   0  0  0  0  0  0  0  0  0  0  0  0
   17.9395   -3.1829   10.1186 C   0  0  0  0  0  0  0  0  0  0  0  0
   15.0312  -10.1693    9.0903 C   0  0  0  0  0  0  0  0  0  0  0  0
   15.4893  -11.1744   10.1401 C   0  0  0  0  0  0  0  0  0  0  0  0
   13.3157  -10.3550   11.0510 C   0  0  0  0  0  0  0  0  0  0  0  0
   14.5024  -11.2682   11.2937 C   0  0  0  0  0  0  0  0  0  0  0  0
   16.5652   -7.7368   10.1026 C   0  0  0  0  0  0  0  0  0  0  0  0
   16.9210   -8.6285   11.2451 C   0  0  0  0  0  0  0  0  0  0  0  0
   16.1313   -8.6300   12.3981 C   0  0  0  0  0  0  0  0  0  0  0  0
   16.4474   -9.4780   13.4624 C   0  0  0  0  0  0  0  0  0  0  0  0
   17.5631  -10.3254   13.3878 C   0  0  0  0  0  0  0  0  0  0  0  0
   18.3366  -10.3369   12.2177 C   0  0  0  0  0  0  0  0  0  0  0  0
   18.0201   -9.4887   11.1533 C   0  0  0  0  0  0  0  0  0  0  0  0
   17.8652  -11.2354   14.4576 N   0  0  0  0  0  0  0  0  0  0  0  0
   18.4386  -12.4398   14.2796 C   0  0  0  0  0  0  0  0  0  0  0  0
   18.5084  -13.1061   15.4898 C   0  0  0  0  0  0  0  0  0  0  0  0
   17.9563  -12.2691   16.4454 C   0  0  0  0  0  0  0  0  0  0  0  0
   17.5740  -11.1252   15.7733 C   0  0  0  0  0  0  0  0  0  0  0  0
   17.0313   -9.9330   16.4517 C   0  0  0  0  0  0  0  0  0  0  0  0
   15.7277   -9.6086   16.5192 N   0  0  0  0  0  0  0  0  0  0  0  0
   15.7009   -8.4495   17.1559 N   0  0  0  0  0  0  0  0  0  0  0  0
   16.9345   -8.0751   17.4546 N   0  0  0  0  0  0  0  0  0  0  0  0
   17.7943   -8.9815   17.0197 N   0  0  0  0  0  0  0  0  0  0  0  0
   18.7757   -8.9638   17.0951 H   0  0  0  0  0  0  0  0  0  0  0  0
 17 18  1  0  0  0
 18 16  1  0  0  0
 16 15  1  0  0  0
 15  1  1  0  0  0
  1  2  2  0  0  0
  2  3  1  0  0  0
  3  4  2  0  0  0
  4  5  1  0  0  0
  5  6  2  0  0  0
  6  7  1  0  0  0
  7 10  1  0  0  0
  7  8  2  0  0  0
 10 11  2  0  0  0
 10 12  1  0  0  0
 12 13  1  0  0  0
 13 14  1  0  0  0
  8  9  1  0  0  0
  8  3  1  0  0  0
  9 19  1  0  0  0
  9  1  1  0  0  0
 19 20  1  0  0  0
 20 21  2  0  0  0
 21 22  1  0  0  0
 22 23  2  0  0  0
 23 26  1  0  0  0
 23 24  1  0  0  0
 26 27  1  0  0  0
 27 28  2  0  0  0
 28 29  1  0  0  0
 29 30  2  0  0  0
 30 31  1  0  0  0
 30 26  1  0  0  0
 31 32  2  0  0  0
 32 33  1  0  0  0
 33 34  2  0  0  0
 34 35  1  0  0  0
 35 31  1  0  0  0
 24 25  2  0  0  0
 25 20  1  0  0  0
 35 36  1  0  0  0
M  END
>  <minimizedAffinity>
8.36281

>  <minimizedRMSD>
1.57241

$$$$
CHEMBL3985350 PubChem-127053800


 38 42  0  0  0  0  0  0  0  0999 V2000
   17.2741  -10.7382   15.6961 C   0  0  0  0  0  0  0  0  0  0  0  0
   17.5575  -10.6587   17.0675 C   0  0  0  0  0  0  0  0  0  0  0  0
   16.8515   -9.7608   17.8683 C   0  0  0  0  0  0  0  0  0  0  0  0
   15.8655   -8.9434   17.3068 C   0  0  0  0  0  0  0  0  0  0  0  0
   15.6090   -9.0492   15.9351 C   0  0  0  0  0  0  0  0  0  0  0  0
   16.3084   -9.9308   15.1721 N   0  0  0  0  0  0  0  0  0  0  0  0
   15.1124   -7.9925   18.1423 C   0  0  0  0  0  0  0  0  0  0  0  0
   14.5590   -6.9937   17.6088 O   0  0  0  0  0  0  0  0  0  0  0  0
   15.0114   -8.2127   19.5561 N   0  0  0  0  0  0  0  0  0  0  0  0
   15.4642   -9.0110   19.9125 H   0  0  0  0  0  0  0  0  0  0  0  0
   14.3043   -7.3721   20.5225 C   0  0  0  0  0  0  0  0  0  0  0  0
   13.1581   -6.5972   19.9274 C   0  0  0  0  0  0  0  0  0  0  0  0
   13.2482   -5.2085   19.7476 C   0  0  0  0  0  0  0  0  0  0  0  0
   12.1865   -4.4938   19.1885 C   0  0  0  0  0  0  0  0  0  0  0  0
   11.0232   -5.1616   18.8022 C   0  0  0  0  0  0  0  0  0  0  0  0
   10.9222   -6.5438   18.9749 C   0  0  0  0  0  0  0  0  0  0  0  0
   11.9820   -7.2652   19.5342 C   0  0  0  0  0  0  0  0  0  0  0  0
   11.8023   -9.0029   19.7255 Cl  0  0  0  0  0  0  0  0  0  0  0  0
   15.2288   -6.5916   21.4581 C   0  0  0  0  0  0  0  0  0  0  0  0
   16.5725   -6.8065   21.1512 O   0  0  0  0  0  0  0  0  0  0  0  0
   16.7809   -7.7484   21.2534 H   0  0  0  0  0  0  0  0  0  0  0  0
   17.9609  -13.0917   15.1237 C   0  0  0  0  0  0  0  0  0  0  0  0
   17.9919  -11.6624   14.8491 N   0  0  0  0  0  0  0  0  0  0  0  0
   18.7733  -11.2357   13.6879 C   0  0  0  0  0  0  0  0  0  0  0  0
   19.2864   -9.8096   13.8490 C   0  0  0  0  0  0  0  0  0  0  0  0
   19.0072   -9.1054   12.5343 C   0  0  0  0  0  0  0  0  0  0  0  0
   18.1693  -10.0043   11.7617 N   0  0  0  0  0  0  0  0  0  0  0  0
   17.9507  -11.2806   12.4125 C   0  0  0  0  0  0  0  0  0  0  0  0
   17.5955   -9.6911   10.4803 C   0  0  0  0  0  0  0  0  0  0  0  0
   16.3885  -10.2270   10.1243 N   0  0  0  0  0  0  0  0  0  0  0  0
   15.8058   -9.9529    8.9162 C   0  0  0  0  0  0  0  0  0  0  0  0
   16.4222   -9.1256    8.0231 N   0  0  0  0  0  0  0  0  0  0  0  0
   17.6176   -8.5868    8.3614 C   0  0  0  0  0  0  0  0  0  0  0  0
   18.3433   -7.7593    7.5985 N   0  0  0  0  0  0  0  0  0  0  0  0
   19.4409   -7.4887    8.3474 C   0  0  0  0  0  0  0  0  0  0  0  0
   19.4039   -8.1460    9.5797 C   0  0  0  0  0  0  0  0  0  0  0  0
   18.2166   -8.8438    9.5545 C   0  0  0  0  0  0  0  0  0  0  0  0
   18.1287   -7.4236    6.6982 H   0  0  0  0  0  0  0  0  0  0  0  0
 22 23  1  0  0  0
 24 23  1  0  0  0
 24 25  1  0  0  0
 25 26  1  0  0  0
 26 27  1  0  0  0
 27 28  1  0  0  0
 27 29  1  0  0  0
 29 30  2  0  0  0
 30 31  1  0  0  0
 31 32  2  0  0  0
 32 33  1  0  0  0
 33 34  1  0  0  0
 34 35  1  0  0  0
 35 36  2  0  0  0
 36 37  1  0  0  0
 23  1  1  0  0  0
  1  2  2  0  0  0
  2  3  1  0  0  0
  3  4  2  0  0  0
  4  5  1  0  0  0
  5  6  2  0  0  0
  4  7  1  0  0  0
  7  8  2  0  0  0
  7  9  1  0  0  0
  9 11  1  0  0  0
 11 19  1  0  0  0
 19 20  1  0  0  0
 11 12  1  0  0  0
 12 13  2  0  0  0
 13 14  1  0  0  0
 14 15  2  0  0  0
 15 16  1  0  0  0
 16 17  2  0  0  0
 17 18  1  0  0  0
 28 24  1  0  0  0
 37 29  1  0  0  0
  6  1  1  0  0  0
 17 12  1  0  0  0
 37 33  2  0  0  0
 34 38  1  0  0  0
  9 10  1  0  0  0
 20 21  1  0  0  0
M  END
>  <minimizedAffinity>
-6.24261

>  <minimizedRMSD>
1.57302

$$$$
CHEMBL2037391 873588 MCULE-6499410159 MolPort-000-007-124 PubChem-1132763 ZINC000000873588 ZINC00873588


 28 31  0  0  0  0  0  0  0  0999 V2000
   17.4201  -10.5165   14.0588 C   0  0  0  0  0  0  0  0  0  0  0  0
   18.3883  -10.8303   13.1798 N   0  0  0  0  0  0  0  0  0  0  0  0
   18.0502  -10.2548   12.0375 N   0  0  0  0  0  0  0  0  0  0  0  0
   16.8905   -9.6147   12.2701 C   0  0  0  0  0  0  0  0  0  0  0  0
   16.4940   -9.7727   13.5084 O   0  0  0  0  0  0  0  0  0  0  0  0
   17.4051  -11.0499   15.7644 S   0  0  0  0  0  0  0  0  0  0  0  0
   17.8174   -9.3920   16.3908 C   0  0  0  0  0  0  0  0  0  0  0  0
   16.1873   -8.4526   18.0689 N   0  0  0  0  0  0  0  0  0  0  0  0
   16.5749   -8.6335   16.7025 C   0  0  0  0  0  0  0  0  0  0  0  0
   15.8747   -8.1810   15.7585 O   0  0  0  0  0  0  0  0  0  0  0  0
   16.7957   -8.8156   18.7525 H   0  0  0  0  0  0  0  0  0  0  0  0
   11.3008   -5.7043   20.1681 Cl  0  0  0  0  0  0  0  0  0  0  0  0
   12.7228   -6.5102   19.5437 C   0  0  0  0  0  0  0  0  0  0  0  0
   13.7637   -6.8608   20.4071 C   0  0  0  0  0  0  0  0  0  0  0  0
   14.9001   -7.5028   19.9069 C   0  0  0  0  0  0  0  0  0  0  0  0
   15.0045   -7.7974   18.5432 C   0  0  0  0  0  0  0  0  0  0  0  0
   13.9509   -7.4504   17.6824 C   0  0  0  0  0  0  0  0  0  0  0  0
   12.8140   -6.8090   18.1813 C   0  0  0  0  0  0  0  0  0  0  0  0
   16.1443   -8.8367   11.2433 C   0  0  0  0  0  0  0  0  0  0  0  0
   16.5301   -9.2720    9.9087 N   0  0  0  0  0  0  0  0  0  0  0  0
   16.0386  -10.3367    9.2300 C   0  0  0  0  0  0  0  0  0  0  0  0
   16.6421  -10.5015    8.0211 N   0  0  0  0  0  0  0  0  0  0  0  0
   17.5380   -9.4972    7.9762 C   0  0  0  0  0  0  0  0  0  0  0  0
   18.4427   -9.2087    6.9574 C   0  0  0  0  0  0  0  0  0  0  0  0
   19.3013   -8.1088    7.1460 C   0  0  0  0  0  0  0  0  0  0  0  0
   19.2339   -7.3387    8.3295 C   0  0  0  0  0  0  0  0  0  0  0  0
   18.3096   -7.6592    9.3410 C   0  0  0  0  0  0  0  0  0  0  0  0
   17.4770   -8.7551    9.1162 C   0  0  0  0  0  0  0  0  0  0  0  0
 12 13  1  0  0  0
 13 14  2  0  0  0
 14 15  1  0  0  0
 15 16  2  0  0  0
 16  8  1  0  0  0
 16 17  1  0  0  0
  8  9  1  0  0  0
  9 10  2  0  0  0
  9  7  1  0  0  0
  7  6  1  0  0  0
  6  1  1  0  0  0
  1  2  2  0  0  0
  2  3  1  0  0  0
  3  4  2  0  0  0
  4 19  1  0  0  0
  4  5  1  0  0  0
 19 20  1  0  0  0
 20 21  1  0  0  0
 21 22  2  0  0  0
 22 23  1  0  0  0
 23 24  2  0  0  0
 24 25  1  0  0  0
 25 26  2  0  0  0
 26 27  1  0  0  0
 27 28  2  0  0  0
 28 20  1  0  0  0
 28 23  1  0  0  0
  5  1  1  0  0  0
 17 18  2  0  0  0
 18 13  1  0  0  0
  8 11  1  0  0  0
M  END
>  <minimizedAffinity>
-7.83340

>  <minimizedRMSD>
1.57456

$$$$
CHEMBL4564352 PubChem-137049258


 34 39  0  0  0  0  0  0  0  0999 V2000
   17.5502  -10.8120   14.3175 C   0  0  0  0  0  0  0  0  0  0  0  0
   18.3962  -11.7182   14.5504 O   0  0  0  0  0  0  0  0  0  0  0  0
   16.8713  -10.7915   13.0479 N   0  0  0  0  0  0  0  0  0  0  0  0
   15.5935  -10.0989   12.8814 C   0  0  0  0  0  0  0  0  0  0  0  0
   15.6005   -9.3281   11.5658 C   0  0  0  0  0  0  0  0  0  0  0  0
   15.9436  -10.2235   10.3651 C   0  0  0  0  0  0  0  0  0  0  0  0
   16.4610  -11.6197   10.7434 C   0  0  0  0  0  0  0  0  0  0  0  0
   17.4177  -11.5802   11.9379 C   0  0  0  0  0  0  0  0  0  0  0  0
   16.8840   -9.5234    9.4388 C   0  0  0  0  0  0  0  0  0  0  0  0
   16.7986   -9.6348    8.0908 N   0  0  0  0  0  0  0  0  0  0  0  0
   17.7609   -8.8976    7.4813 C   0  0  0  0  0  0  0  0  0  0  0  0
   18.6047   -8.2035    8.3343 C   0  0  0  0  0  0  0  0  0  0  0  0
   18.1538   -8.5040    9.9209 S   0  0  0  0  0  0  0  0  0  0  0  0
   19.6408   -7.4023    7.8631 C   0  0  0  0  0  0  0  0  0  0  0  0
   19.8175   -7.3100    6.4736 C   0  0  0  0  0  0  0  0  0  0  0  0
   18.9667   -8.0106    5.5959 C   0  0  0  0  0  0  0  0  0  0  0  0
   17.9281   -8.8123    6.0991 C   0  0  0  0  0  0  0  0  0  0  0  0
   19.1509   -7.9103    4.2578 F   0  0  0  0  0  0  0  0  0  0  0  0
   16.3793   -8.5327   16.8873 N   0  0  0  0  0  0  0  0  0  0  0  0
   16.1490   -9.5871   16.0844 C   0  0  0  0  0  0  0  0  0  0  0  0
   17.3073   -9.7939   15.3610 C   0  0  0  0  0  0  0  0  0  0  0  0
   18.2049   -8.8194   15.7626 C   0  0  0  0  0  0  0  0  0  0  0  0
   17.6036   -8.0658   16.7030 N   0  0  0  0  0  0  0  0  0  0  0  0
   11.4689   -6.0316   19.3250 C   0  0  0  0  0  0  0  0  0  0  0  0
   12.5583   -6.2984   20.3773 C   0  0  0  0  0  0  0  0  0  0  0  0
   13.6583   -6.9014   19.5950 C   0  0  0  0  0  0  0  0  0  0  0  0
   13.3477   -7.0103   18.2731 C   0  0  0  0  0  0  0  0  0  0  0  0
   11.9992   -6.5009   17.9605 C   0  0  0  0  0  0  0  0  0  0  0  0
   14.2230   -7.5386   17.3820 N   0  0  0  0  0  0  0  0  0  0  0  0
   15.4441   -7.9727   17.8149 C   0  0  0  0  0  0  0  0  0  0  0  0
   15.7723   -7.8709   19.1391 N   0  0  0  0  0  0  0  0  0  0  0  0
   14.9008   -7.3419   20.0424 C   0  0  0  0  0  0  0  0  0  0  0  0
   15.2202   -7.2561   21.2573 O   0  0  0  0  0  0  0  0  0  0  0  0
   16.6538   -8.1855   19.4445 H   0  0  0  0  0  0  0  0  0  0  0  0
 24 25  1  0  0  0
 25 26  1  0  0  0
 26 27  2  0  0  0
 27 28  1  0  0  0
 27 29  1  0  0  0
 29 30  2  0  0  0
 30 31  1  0  0  0
 31 32  1  0  0  0
 32 33  2  0  0  0
 30 19  1  0  0  0
 19 20  1  0  0  0
 20 21  2  0  0  0
 21 22  1  0  0  0
 22 23  2  0  0  0
 21  1  1  0  0  0
  1  2  2  0  0  0
  1  3  1  0  0  0
  3  4  1  0  0  0
  4  5  1  0  0  0
  5  6  1  0  0  0
  6  7  1  0  0  0
  7  8  1  0  0  0
  6  9  1  0  0  0
  9 10  2  0  0  0
 10 11  1  0  0  0
 11 12  2  0  0  0
 12 13  1  0  0  0
 12 14  1  0  0  0
 14 15  2  0  0  0
 15 16  1  0  0  0
 16 17  2  0  0  0
 16 18  1  0  0  0
 28 24  1  0  0  0
 32 26  1  0  0  0
 23 19  1  0  0  0
  8  3  1  0  0  0
 13  9  1  0  0  0
 17 11  1  0  0  0
 31 34  1  0  0  0
M  END
>  <minimizedAffinity>
-6.04251

>  <minimizedRMSD>
1.57500

$$$$
CHEMBL3582392 PubChem-122179527


 34 37  0  0  0  0  0  0  0  0999 V2000
   16.8138   -9.8450   15.0368 C   0  0  0  0  0  0  0  0  0  0  0  0
   17.3514  -10.9688   15.6798 C   0  0  0  0  0  0  0  0  0  0  0  0
   17.8647  -11.9995   14.9618 F   0  0  0  0  0  0  0  0  0  0  0  0
   17.3627  -11.0355   17.0724 C   0  0  0  0  0  0  0  0  0  0  0  0
   16.8397   -9.9859   17.8275 C   0  0  0  0  0  0  0  0  0  0  0  0
   16.2984   -8.8554   17.2075 C   0  0  0  0  0  0  0  0  0  0  0  0
   16.2860   -8.7853   15.7952 C   0  0  0  0  0  0  0  0  0  0  0  0
   15.7730   -7.7115   15.1452 F   0  0  0  0  0  0  0  0  0  0  0  0
   16.7942   -9.7220   12.3929 C   0  0  0  0  0  0  0  0  0  0  0  0
   16.8033   -9.7785   13.5972 C   0  0  0  0  0  0  0  0  0  0  0  0
   18.3740   -8.2018    7.9072 C   0  0  0  0  0  0  0  0  0  0  0  0
   17.8601   -8.5518    6.7042 N   0  0  0  0  0  0  0  0  0  0  0  0
   16.8413   -9.3874    6.8955 N   0  0  0  0  0  0  0  0  0  0  0  0
   16.7200   -9.5581    8.2226 C   0  0  0  0  0  0  0  0  0  0  0  0
   15.8052  -10.3327    8.8561 N   0  0  0  0  0  0  0  0  0  0  0  0
   15.8262  -10.3894   10.2227 C   0  0  0  0  0  0  0  0  0  0  0  0
   16.7839   -9.6539   10.9597 C   0  0  0  0  0  0  0  0  0  0  0  0
   17.7263   -8.8547   10.2870 C   0  0  0  0  0  0  0  0  0  0  0  0
   17.6565   -8.8368    8.8982 C   0  0  0  0  0  0  0  0  0  0  0  0
   16.2834   -9.8011    6.1977 H   0  0  0  0  0  0  0  0  0  0  0  0
   19.4572   -7.3310    8.0541 O   0  0  0  0  0  0  0  0  0  0  0  0
   20.5477   -8.0951   10.0473 C   0  0  0  0  0  0  0  0  0  0  0  0
   20.7079   -7.7458    8.5826 C   0  0  0  0  0  0  0  0  0  0  0  0
   15.7813   -7.8222   18.0595 N   0  0  0  0  0  0  0  0  0  0  0  0
   16.4400   -7.1897   18.4274 H   0  0  0  0  0  0  0  0  0  0  0  0
   14.1277   -7.5612   18.5149 S   0  0  0  0  0  0  0  0  0  0  0  0
   13.3493   -8.8335   18.3279 O   0  0  0  0  0  0  0  0  0  0  0  0
   13.5350   -6.4575   17.6847 O   0  0  0  0  0  0  0  0  0  0  0  0
   14.0648   -7.0974   20.2048 C   0  0  0  0  0  0  0  0  0  0  0  0
   12.8943   -6.5590   20.7450 C   0  0  0  0  0  0  0  0  0  0  0  0
   12.8560   -6.1857   22.0894 C   0  0  0  0  0  0  0  0  0  0  0  0
   13.9970   -6.3562   22.8769 C   0  0  0  0  0  0  0  0  0  0  0  0
   15.1292   -6.8797   22.3337 N   0  0  0  0  0  0  0  0  0  0  0  0
   15.1860   -7.2493   21.0256 C   0  0  0  0  0  0  0  0  0  0  0  0
 22 23  1  0  0  0
 23 21  1  0  0  0
 21 11  1  0  0  0
 11 12  2  0  0  0
 12 13  1  0  0  0
 13 14  1  0  0  0
 14 15  2  0  0  0
 15 16  1  0  0  0
 16 17  2  0  0  0
 17  9  1  0  0  0
  9 10  3  0  0  0
 10  1  1  0  0  0
  1  2  2  0  0  0
  2  3  1  0  0  0
  2  4  1  0  0  0
  4  5  2  0  0  0
  5  6  1  0  0  0
  6 24  1  0  0  0
 24 26  1  0  0  0
 26 27  2  0  0  0
 26 28  2  0  0  0
 26 29  1  0  0  0
 29 30  2  0  0  0
 30 31  1  0  0  0
 31 32  2  0  0  0
 32 33  1  0  0  0
 33 34  2  0  0  0
  6  7  2  0  0  0
  7  8  1  0  0  0
 17 18  1  0  0  0
 18 19  2  0  0  0
 19 11  1  0  0  0
 19 14  1  0  0  0
  7  1  1  0  0  0
 34 29  1  0  0  0
 13 20  1  0  0  0
 24 25  1  0  0  0
M  END
>  <minimizedAffinity>
-6.05574

>  <minimizedRMSD>
1.57716

$$$$
CHEMBL4975538 72287231 CSC027538128 MCULE-2712844443 MolPort-023-154-887 PubChem-72133187 Z1224472274 ZINC000072287231 ZINC72287231


 25 27  0  0  0  0  0  0  0  0999 V2000
   17.8791  -10.2524   14.1009 C   0  0  0  0  0  0  0  0  0  0  0  0
   15.7172   -8.4258   17.3278 C   0  0  0  0  0  0  0  0  0  0  0  0
   15.5691   -7.9431   16.0226 C   0  0  0  0  0  0  0  0  0  0  0  0
   16.2682   -8.5414   14.9702 C   0  0  0  0  0  0  0  0  0  0  0  0
   17.1175   -9.6253   15.2198 C   0  0  0  0  0  0  0  0  0  0  0  0
   17.2722  -10.1031   16.5259 C   0  0  0  0  0  0  0  0  0  0  0  0
   16.5728   -9.5043   17.5778 C   0  0  0  0  0  0  0  0  0  0  0  0
   15.9723   -7.0670   19.8171 N   0  0  0  0  0  0  0  0  0  0  0  0
   14.8490   -7.6673   18.6494 S   0  0  0  0  0  0  0  0  0  0  0  0
   13.9538   -8.6761   19.3123 O   0  0  0  0  0  0  0  0  0  0  0  0
   14.0205   -6.5309   18.1209 O   0  0  0  0  0  0  0  0  0  0  0  0
   15.4632   -6.6269   20.5837 H   0  0  0  0  0  0  0  0  0  0  0  0
   16.5853   -6.3804   19.3776 H   0  0  0  0  0  0  0  0  0  0  0  0
   17.3338   -9.8041   12.7543 C   0  0  0  0  0  0  0  0  0  0  0  0
   18.2870  -10.1163   11.6997 N   0  0  0  0  0  0  0  0  0  0  0  0
   18.8221  -10.9373   11.7937 H   0  0  0  0  0  0  0  0  0  0  0  0
   18.5002   -9.3111   10.5344 C   0  0  0  0  0  0  0  0  0  0  0  0
   19.5998   -8.5032   10.4699 N   0  0  0  0  0  0  0  0  0  0  0  0
   19.8568   -7.7091    9.3846 C   0  0  0  0  0  0  0  0  0  0  0  0
   18.9734   -7.7123    8.2949 C   0  0  0  0  0  0  0  0  0  0  0  0
   17.8918   -8.5202    8.3829 N   0  0  0  0  0  0  0  0  0  0  0  0
   16.8861   -8.7373    7.5234 C   0  0  0  0  0  0  0  0  0  0  0  0
   16.0323   -9.6402    8.0636 N   0  0  0  0  0  0  0  0  0  0  0  0
   16.4947   -9.9937    9.2601 N   0  0  0  0  0  0  0  0  0  0  0  0
   17.6308   -9.2986    9.4356 C   0  0  0  0  0  0  0  0  0  0  0  0
  8  9  1  0  0  0
  9 10  2  0  0  0
  9 11  2  0  0  0
  9  2  1  0  0  0
  2  3  2  0  0  0
  3  4  1  0  0  0
  4  5  2  0  0  0
  5  1  1  0  0  0
  5  6  1  0  0  0
  1 14  1  0  0  0
 14 15  1  0  0  0
 15 17  1  0  0  0
 17 18  2  0  0  0
 18 19  1  0  0  0
 19 20  2  0  0  0
 20 21  1  0  0  0
 21 22  1  0  0  0
 22 23  2  0  0  0
 23 24  1  0  0  0
 24 25  2  0  0  0
 25 17  1  0  0  0
 25 21  1  0  0  0
  6  7  2  0  0  0
  7  2  1  0  0  0
  8 12  1  0  0  0
  8 13  1  0  0  0
 15 16  1  0  0  0
M  END
>  <minimizedAffinity>
-4.86425

>  <minimizedRMSD>
1.57741

$$$$
CHEMBL272251 PubChem-24823253


 31 34  0  0  0  0  0  0  0  0999 V2000
   18.0979  -11.5286   15.1115 C   0  0  0  0  0  0  0  0  0  0  0  0
   18.2184  -11.2660   16.4740 C   0  0  0  0  0  0  0  0  0  0  0  0
   17.4940  -10.2234   17.0520 C   0  0  0  0  0  0  0  0  0  0  0  0
   16.6339   -9.4193   16.2872 C   0  0  0  0  0  0  0  0  0  0  0  0
   16.5101   -9.6870   14.8968 C   0  0  0  0  0  0  0  0  0  0  0  0
   17.2530  -10.7503   14.3213 C   0  0  0  0  0  0  0  0  0  0  0  0
   17.1456  -11.0287   12.9569 C   0  0  0  0  0  0  0  0  0  0  0  0
   16.3093  -10.2577   12.1362 C   0  0  0  0  0  0  0  0  0  0  0  0
   15.5685   -9.2165   12.6990 C   0  0  0  0  0  0  0  0  0  0  0  0
   15.6691   -8.9328   14.0630 C   0  0  0  0  0  0  0  0  0  0  0  0
   15.9018   -8.3311   16.9892 C   0  0  0  0  0  0  0  0  0  0  0  0
   15.3551   -7.3949   16.3448 O   0  0  0  0  0  0  0  0  0  0  0  0
   15.8188   -8.3416   18.4192 N   0  0  0  0  0  0  0  0  0  0  0  0
   16.2705   -9.0643   18.9120 H   0  0  0  0  0  0  0  0  0  0  0  0
   15.0956   -7.3298   19.1750 C   0  0  0  0  0  0  0  0  0  0  0  0
   13.6851   -7.8068   19.4650 C   0  0  0  0  0  0  0  0  0  0  0  0
   12.8257   -7.3529   18.4660 O   0  0  0  0  0  0  0  0  0  0  0  0
   11.6362   -8.0454   18.6868 C   0  0  0  0  0  0  0  0  0  0  0  0
   16.1740  -10.5218   10.7668 O   0  0  0  0  0  0  0  0  0  0  0  0
   16.6869   -9.7063    9.7488 C   0  0  0  0  0  0  0  0  0  0  0  0
   15.8467   -9.3583    8.6886 C   0  0  0  0  0  0  0  0  0  0  0  0
   16.3265   -8.5500    7.6567 C   0  0  0  0  0  0  0  0  0  0  0  0
   17.6055   -8.0908    7.6843 N   0  0  0  0  0  0  0  0  0  0  0  0
   18.4474   -8.3898    8.7084 C   0  0  0  0  0  0  0  0  0  0  0  0
   18.0034   -9.2028    9.7771 C   0  0  0  0  0  0  0  0  0  0  0  0
   18.8698   -9.4597   10.8480 C   0  0  0  0  0  0  0  0  0  0  0  0
   20.1670   -8.9414   10.8453 C   0  0  0  0  0  0  0  0  0  0  0  0
   20.6145   -8.1515    9.7743 C   0  0  0  0  0  0  0  0  0  0  0  0
   19.7475   -7.8771    8.7120 C   0  0  0  0  0  0  0  0  0  0  0  0
   21.9088   -7.6251    9.7431 O   0  0  0  0  0  0  0  0  0  0  0  0
   23.0630   -8.4086   10.0137 C   0  0  0  0  0  0  0  0  0  0  0  0
  1  2  2  0  0  0
  2  3  1  0  0  0
  3  4  2  0  0  0
  4  5  1  0  0  0
  5  6  2  0  0  0
  6  7  1  0  0  0
  7  8  2  0  0  0
  8  9  1  0  0  0
  9 10  2  0  0  0
  8 19  1  0  0  0
 19 20  1  0  0  0
 20 21  2  0  0  0
 21 22  1  0  0  0
 22 23  2  0  0  0
 23 24  1  0  0  0
 24 25  2  0  0  0
 25 26  1  0  0  0
 26 27  2  0  0  0
 27 28  1  0  0  0
 28 29  2  0  0  0
 28 30  1  0  0  0
 30 31  1  0  0  0
  4 11  1  0  0  0
 11 12  2  0  0  0
 11 13  1  0  0  0
 13 15  1  0  0  0
 15 16  1  0  0  0
 16 17  1  0  0  0
 17 18  1  0  0  0
  6  1  1  0  0  0
 25 20  1  0  0  0
 10  5  1  0  0  0
 29 24  1  0  0  0
 13 14  1  0  0  0
M  END
>  <minimizedAffinity>
-0.87011

>  <minimizedRMSD>
1.58126

$$$$
CHEMBL1524414 8607128 ChemDiv-G357-1296 MCULE-4815775207 MolPort-007-847-481 PubChem-16027478 ZINC000008607128 ZINC08607128


 35 39  0  0  0  0  0  0  0  0999 V2000
   16.3626   -8.8171   16.6547 C   0  0  0  0  0  0  0  0  0  0  0  0
   17.0495  -10.0306   16.5467 C   0  0  0  0  0  0  0  0  0  0  0  0
   17.4805  -10.4915   15.2993 C   0  0  0  0  0  0  0  0  0  0  0  0
   17.2301   -9.7408   14.1422 C   0  0  0  0  0  0  0  0  0  0  0  0
   16.5439   -8.5243   14.2497 C   0  0  0  0  0  0  0  0  0  0  0  0
   16.1129   -8.0653   15.4972 C   0  0  0  0  0  0  0  0  0  0  0  0
   14.7496   -7.6382   18.2664 C   0  0  0  0  0  0  0  0  0  0  0  0
   13.9196   -7.3449   17.3633 O   0  0  0  0  0  0  0  0  0  0  0  0
   15.9410   -8.3761   17.9526 N   0  0  0  0  0  0  0  0  0  0  0  0
   16.5303   -8.6030   18.7079 H   0  0  0  0  0  0  0  0  0  0  0  0
   13.9954   -6.4372   22.3129 C   0  0  0  0  0  0  0  0  0  0  0  0
   15.2689   -6.8917   21.9340 C   0  0  0  0  0  0  0  0  0  0  0  0
   15.5135   -7.2831   20.6150 C   0  0  0  0  0  0  0  0  0  0  0  0
   14.4912   -7.2259   19.6574 C   0  0  0  0  0  0  0  0  0  0  0  0
   13.2204   -6.7715   20.0390 C   0  0  0  0  0  0  0  0  0  0  0  0
   12.9753   -6.3802   21.3583 C   0  0  0  0  0  0  0  0  0  0  0  0
   14.6856   -6.0948   24.6633 C   0  0  0  0  0  0  0  0  0  0  0  0
   13.7189   -6.0382   23.6232 O   0  0  0  0  0  0  0  0  0  0  0  0
   17.6831  -10.2185   12.8260 C   0  0  0  0  0  0  0  0  0  0  0  0
   18.4197  -11.2406   12.7429 O   0  0  0  0  0  0  0  0  0  0  0  0
   17.2958   -9.5341   11.6719 O   0  0  0  0  0  0  0  0  0  0  0  0
   16.6801  -10.1953   10.5761 C   0  0  0  0  0  0  0  0  0  0  0  0
   17.0186   -9.4855    9.3143 C   0  0  0  0  0  0  0  0  0  0  0  0
   16.0754   -8.6320    8.7181 C   0  0  0  0  0  0  0  0  0  0  0  0
   16.4301   -7.9504    7.5487 C   0  0  0  0  0  0  0  0  0  0  0  0
   15.6060   -7.1804    6.9878 O   0  0  0  0  0  0  0  0  0  0  0  0
   17.6753   -8.1332    7.0354 N   0  0  0  0  0  0  0  0  0  0  0  0
   18.1355   -7.5476    5.9325 N   0  0  0  0  0  0  0  0  0  0  0  0
   19.4158   -7.9039    5.6603 C   0  0  0  0  0  0  0  0  0  0  0  0
   20.0217   -9.0081    6.8017 S   0  0  0  0  0  0  0  0  0  0  0  0
   18.5637   -8.9544    7.6332 C   0  0  0  0  0  0  0  0  0  0  0  0
   18.2581   -9.6317    8.7667 N   0  0  0  0  0  0  0  0  0  0  0  0
   20.1619   -7.4360    4.4541 C   0  0  0  0  0  0  0  0  0  0  0  0
   20.6498   -6.0144    4.6664 C   0  0  0  0  0  0  0  0  0  0  0  0
   21.6110   -7.1713    4.8180 C   0  0  0  0  0  0  0  0  0  0  0  0
 17 18  1  0  0  0
 18 11  1  0  0  0
 11 12  2  0  0  0
 12 13  1  0  0  0
 13 14  2  0  0  0
 14 15  1  0  0  0
 15 16  2  0  0  0
 14  7  1  0  0  0
  7  8  2  0  0  0
  7  9  1  0  0  0
  9  1  1  0  0  0
  1  2  2  0  0  0
  2  3  1  0  0  0
  3  4  2  0  0  0
  4  5  1  0  0  0
  5  6  2  0  0  0
  4 19  1  0  0  0
 19 20  2  0  0  0
 19 21  1  0  0  0
 21 22  1  0  0  0
 22 23  1  0  0  0
 23 24  2  0  0  0
 24 25  1  0  0  0
 25 26  2  0  0  0
 25 27  1  0  0  0
 27 28  1  0  0  0
 28 29  2  0  0  0
 29 30  1  0  0  0
 30 31  1  0  0  0
 31 32  2  0  0  0
 29 33  1  0  0  0
 33 34  1  0  0  0
 34 35  1  0  0  0
 16 11  1  0  0  0
  6  1  1  0  0  0
 32 23  1  0  0  0
 35 33  1  0  0  0
 31 27  1  0  0  0
  9 10  1  0  0  0
M  END
>  <minimizedAffinity>
-5.22254

>  <minimizedRMSD>
1.58459

$$$$
CHEMBL249480 PubChem-25093449


 29 32  0  0  0  0  0  0  0  0999 V2000
   16.8469   -9.3624    8.4812 C   0  0  0  0  0  0  0  0  0  0  0  0
   16.3592   -9.9029    9.6458 N   0  0  0  0  0  0  0  0  0  0  0  0
   17.0884   -9.8210   10.7969 C   0  0  0  0  0  0  0  0  0  0  0  0
   16.7028  -10.3285   12.0379 C   0  0  0  0  0  0  0  0  0  0  0  0
   17.6775  -10.0779   13.0147 C   0  0  0  0  0  0  0  0  0  0  0  0
   18.9934   -9.2376   12.3343 S   0  0  0  0  0  0  0  0  0  0  0  0
   18.3205   -9.1951   10.8000 C   0  0  0  0  0  0  0  0  0  0  0  0
   18.8057   -8.6603    9.6535 N   0  0  0  0  0  0  0  0  0  0  0  0
   19.9362   -8.0075    9.3448 C   0  0  0  0  0  0  0  0  0  0  0  0
   21.0434   -7.6805   10.2862 C   0  0  0  0  0  0  0  0  0  0  0  0
   19.8986   -7.6879    7.9956 C   0  0  0  0  0  0  0  0  0  0  0  0
   18.7340   -8.1483    7.4694 N   0  0  0  0  0  0  0  0  0  0  0  0
   18.1043   -8.7302    8.5104 C   0  0  0  0  0  0  0  0  0  0  0  0
   17.5763  -10.4825   14.4284 C   0  0  0  0  0  0  0  0  0  0  0  0
   18.0045  -11.7547   14.8363 C   0  0  0  0  0  0  0  0  0  0  0  0
   17.9039  -12.1393   16.1763 C   0  0  0  0  0  0  0  0  0  0  0  0
   17.3748  -11.2546   17.1192 C   0  0  0  0  0  0  0  0  0  0  0  0
   16.9491   -9.9826   16.7240 C   0  0  0  0  0  0  0  0  0  0  0  0
   17.0469   -9.6008   15.3815 C   0  0  0  0  0  0  0  0  0  0  0  0
   16.3603   -9.0487   17.7275 C   0  0  0  0  0  0  0  0  0  0  0  0
   15.2493   -8.2149   17.1070 C   0  0  0  0  0  0  0  0  0  0  0  0
   14.7907   -7.2078   18.0515 N   0  0  0  0  0  0  0  0  0  0  0  0
   13.4221   -7.1116   18.4451 C   0  0  0  0  0  0  0  0  0  0  0  0
   13.0078   -6.0627   19.4124 C   0  0  0  0  0  0  0  0  0  0  0  0
   12.5634   -7.9105   17.9855 O   0  0  0  0  0  0  0  0  0  0  0  0
   15.4428   -6.5747   18.4299 H   0  0  0  0  0  0  0  0  0  0  0  0
   16.7447   -9.4752    5.9651 C   0  0  0  0  0  0  0  0  0  0  0  0
   16.0993   -9.4378    7.2663 N   0  0  0  0  0  0  0  0  0  0  0  0
   15.1162   -9.4652    7.3121 H   0  0  0  0  0  0  0  0  0  0  0  0
 27 28  1  0  0  0
 28  1  1  0  0  0
  1  2  2  0  0  0
  2  3  1  0  0  0
  3  4  1  0  0  0
  4  5  2  0  0  0
  5 14  1  0  0  0
  5  6  1  0  0  0
 14 15  2  0  0  0
 15 16  1  0  0  0
 16 17  2  0  0  0
 17 18  1  0  0  0
 18 20  1  0  0  0
 18 19  2  0  0  0
 20 21  1  0  0  0
 21 22  1  0  0  0
 22 23  1  0  0  0
 23 24  1  0  0  0
 23 25  2  0  0  0
 19 14  1  0  0  0
  6  7  1  0  0  0
  7  8  1  0  0  0
  7  3  2  0  0  0
  8  9  1  0  0  0
  9 10  1  0  0  0
  9 11  2  0  0  0
 11 12  1  0  0  0
 12 13  2  0  0  0
 13  1  1  0  0  0
 13  8  1  0  0  0
 28 29  1  0  0  0
 22 26  1  0  0  0
M  END
>  <minimizedAffinity>
-0.06105

>  <minimizedRMSD>
1.58814

$$$$
CHEMBL3906692 PubChem-68027271


 34 38  0  0  0  0  0  0  0  0999 V2000
   17.9394  -13.1177   15.0597 C   0  0  0  0  0  0  0  0  0  0  0  0
   18.0003  -11.6850   14.8087 N   0  0  0  0  0  0  0  0  0  0  0  0
   17.3142  -10.7592   15.6801 C   0  0  0  0  0  0  0  0  0  0  0  0
   17.6057  -10.7196   17.0516 C   0  0  0  0  0  0  0  0  0  0  0  0
   16.9308   -9.8192   17.8758 C   0  0  0  0  0  0  0  0  0  0  0  0
   15.9676   -8.9597   17.3380 C   0  0  0  0  0  0  0  0  0  0  0  0
   15.7022   -9.0264   15.9655 C   0  0  0  0  0  0  0  0  0  0  0  0
   16.3712   -9.9111   15.1792 N   0  0  0  0  0  0  0  0  0  0  0  0
   15.2479   -8.0048   18.1986 C   0  0  0  0  0  0  0  0  0  0  0  0
   14.5662   -7.0821   17.6747 O   0  0  0  0  0  0  0  0  0  0  0  0
   15.3296   -8.1336   19.6264 N   0  0  0  0  0  0  0  0  0  0  0  0
   15.8786   -8.8751   19.9700 H   0  0  0  0  0  0  0  0  0  0  0  0
   14.6968   -7.2972   20.6065 C   0  0  0  0  0  0  0  0  0  0  0  0
   13.3035   -7.1309   20.6459 C   0  0  0  0  0  0  0  0  0  0  0  0
   12.7144   -6.3103   21.6115 C   0  0  0  0  0  0  0  0  0  0  0  0
   13.5136   -5.6487   22.5464 C   0  0  0  0  0  0  0  0  0  0  0  0
   14.9011   -5.8080   22.5151 C   0  0  0  0  0  0  0  0  0  0  0  0
   15.4923   -6.6289   21.5495 C   0  0  0  0  0  0  0  0  0  0  0  0
   16.8406   -6.7728   21.5333 F   0  0  0  0  0  0  0  0  0  0  0  0
   18.7778  -11.2565   13.6457 C   0  0  0  0  0  0  0  0  0  0  0  0
   19.3006   -9.8346   13.8119 C   0  0  0  0  0  0  0  0  0  0  0  0
   19.0230   -9.1232   12.5006 C   0  0  0  0  0  0  0  0  0  0  0  0
   18.1747  -10.0122   11.7277 N   0  0  0  0  0  0  0  0  0  0  0  0
   17.9483  -11.2892   12.3746 C   0  0  0  0  0  0  0  0  0  0  0  0
   17.5997   -9.6898   10.4491 C   0  0  0  0  0  0  0  0  0  0  0  0
   16.3917  -10.2220   10.0911 N   0  0  0  0  0  0  0  0  0  0  0  0
   15.8077   -9.9392    8.8857 C   0  0  0  0  0  0  0  0  0  0  0  0
   16.4238   -9.1066    7.9973 N   0  0  0  0  0  0  0  0  0  0  0  0
   17.6203   -8.5714    8.3377 C   0  0  0  0  0  0  0  0  0  0  0  0
   18.3460   -7.7396    7.5793 N   0  0  0  0  0  0  0  0  0  0  0  0
   19.4448   -7.4753    8.3287 C   0  0  0  0  0  0  0  0  0  0  0  0
   19.4086   -8.1407    9.5566 C   0  0  0  0  0  0  0  0  0  0  0  0
   18.2206   -8.8371    9.5282 C   0  0  0  0  0  0  0  0  0  0  0  0
   18.1306   -7.3977    6.6815 H   0  0  0  0  0  0  0  0  0  0  0  0
  1  2  1  0  0  0
 20  2  1  0  0  0
 20 21  1  0  0  0
 21 22  1  0  0  0
 22 23  1  0  0  0
 23 24  1  0  0  0
 23 25  1  0  0  0
 25 26  2  0  0  0
 26 27  1  0  0  0
 27 28  2  0  0  0
 28 29  1  0  0  0
 29 30  1  0  0  0
 30 31  1  0  0  0
 31 32  2  0  0  0
 32 33  1  0  0  0
  2  3  1  0  0  0
  3  4  2  0  0  0
  4  5  1  0  0  0
  5  6  2  0  0  0
  6  7  1  0  0  0
  7  8  2  0  0  0
  6  9  1  0  0  0
  9 10  2  0  0  0
  9 11  1  0  0  0
 11 13  1  0  0  0
 13 14  2  0  0  0
 14 15  1  0  0  0
 15 16  2  0  0  0
 16 17  1  0  0  0
 17 18  2  0  0  0
 18 19  1  0  0  0
 24 20  1  0  0  0
 33 25  1  0  0  0
  8  3  1  0  0  0
 18 13  1  0  0  0
 33 29  2  0  0  0
 30 34  1  0  0  0
 11 12  1  0  0  0
M  END
>  <minimizedAffinity>
-6.56546

>  <minimizedRMSD>
1.58817

$$$$
CHEMBL272838 PubChem-24799620


 39 43  0  0  0  0  0  0  0  0999 V2000
   17.8746   -8.1838   16.8049 C   0  0  0  0  0  0  0  0  0  0  0  0
   17.2310   -7.0714   15.9955 C   0  0  0  0  0  0  0  0  0  0  0  0
   16.5517   -7.5577   17.2658 C   0  0  0  0  0  0  0  0  0  0  0  0
   18.1198  -10.8988   14.1195 C   0  0  0  0  0  0  0  0  0  0  0  0
   18.0325  -12.0505   14.9058 C   0  0  0  0  0  0  0  0  0  0  0  0
   17.8895  -11.9508   16.2929 C   0  0  0  0  0  0  0  0  0  0  0  0
   17.8287  -10.6955   16.9001 C   0  0  0  0  0  0  0  0  0  0  0  0
   17.9012   -9.5309   16.1261 C   0  0  0  0  0  0  0  0  0  0  0  0
   18.0599   -9.6404   14.7359 C   0  0  0  0  0  0  0  0  0  0  0  0
   18.2724  -11.0301   12.7369 O   0  0  0  0  0  0  0  0  0  0  0  0
   18.7192   -9.9627   11.9104 C   0  0  0  0  0  0  0  0  0  0  0  0
   14.1369  -10.4902    9.9902 C   0  0  0  0  0  0  0  0  0  0  0  0
   15.5260   -9.9667    9.8771 C   0  0  0  0  0  0  0  0  0  0  0  0
   16.4429  -10.2040   10.9030 C   0  0  0  0  0  0  0  0  0  0  0  0
   17.7524   -9.7276   10.7916 C   0  0  0  0  0  0  0  0  0  0  0  0
   18.1206   -8.9953    9.6503 C   0  0  0  0  0  0  0  0  0  0  0  0
   19.4147   -8.4753    9.4939 C   0  0  0  0  0  0  0  0  0  0  0  0
   19.7502   -7.7534    8.3433 C   0  0  0  0  0  0  0  0  0  0  0  0
   18.7975   -7.5444    7.3421 C   0  0  0  0  0  0  0  0  0  0  0  0
   17.5039   -8.0548    7.4875 C   0  0  0  0  0  0  0  0  0  0  0  0
   17.1589   -8.7775    8.6353 C   0  0  0  0  0  0  0  0  0  0  0  0
   15.8981   -9.2664    8.7754 N   0  0  0  0  0  0  0  0  0  0  0  0
   15.3346   -8.3683   16.9311 C   0  0  0  0  0  0  0  0  0  0  0  0
   15.3349   -9.1177   15.9188 O   0  0  0  0  0  0  0  0  0  0  0  0
   14.1551   -8.2388   17.7227 N   0  0  0  0  0  0  0  0  0  0  0  0
   13.0286   -8.9181   17.4082 O   0  0  0  0  0  0  0  0  0  0  0  0
   14.1611   -7.6465   18.5091 H   0  0  0  0  0  0  0  0  0  0  0  0
   13.1845   -9.4526   16.6139 H   0  0  0  0  0  0  0  0  0  0  0  0
   19.1140   -7.7426   17.5306 C   0  0  0  0  0  0  0  0  0  0  0  0
   20.2298   -7.8662   16.9543 O   0  0  0  0  0  0  0  0  0  0  0  0
   19.0642   -7.2631   18.8864 N   0  0  0  0  0  0  0  0  0  0  0  0
   20.2925   -7.1402   19.6545 C   0  0  0  0  0  0  0  0  0  0  0  0
   17.8070   -7.0501   19.5965 C   0  0  0  0  0  0  0  0  0  0  0  0
   18.0263   -6.4081   20.9327 C   0  0  0  0  0  0  0  0  0  0  0  0
   19.2234   -5.7383   21.2298 C   0  0  0  0  0  0  0  0  0  0  0  0
   19.4261   -5.1889   22.5004 C   0  0  0  0  0  0  0  0  0  0  0  0
   18.4400   -5.3208   23.4827 C   0  0  0  0  0  0  0  0  0  0  0  0
   17.2536   -6.0052   23.1965 C   0  0  0  0  0  0  0  0  0  0  0  0
   17.0513   -6.5525   21.9256 C   0  0  0  0  0  0  0  0  0  0  0  0
 12 13  1  0  0  0
 13 14  2  0  0  0
 14 15  1  0  0  0
 15 11  1  0  0  0
 15 16  2  0  0  0
 11 10  1  0  0  0
 10  4  1  0  0  0
  4  5  2  0  0  0
  5  6  1  0  0  0
  6  7  2  0  0  0
  7  8  1  0  0  0
  8  9  2  0  0  0
  1  8  1  0  0  0
  1 29  1  0  0  0
  1  2  1  0  0  0
 29 30  2  0  0  0
 29 31  1  0  0  0
 31 32  1  0  0  0
 31 33  1  0  0  0
 33 34  1  0  0  0
 34 35  2  0  0  0
 35 36  1  0  0  0
 36 37  2  0  0  0
 37 38  1  0  0  0
 38 39  2  0  0  0
 39 34  1  0  0  0
  2  3  1  0  0  0
  3 23  1  0  0  0
  3  1  1  0  0  0
 23 24  2  0  0  0
 23 25  1  0  0  0
 25 26  1  0  0  0
  9  4  1  0  0  0
 16 17  1  0  0  0
 17 18  2  0  0  0
 18 19  1  0  0  0
 19 20  2  0  0  0
 20 21  1  0  0  0
 21 22  2  0  0  0
 21 16  1  0  0  0
 22 13  1  0  0  0
 25 27  1  0  0  0
 26 28  1  0  0  0
M  END
>  <minimizedAffinity>
3.40820

>  <minimizedRMSD>
1.58867

$$$$
CHEMBL3233847 PubChem-164103534 PubChem-89705109


 27 29  0  0  0  0  0  0  0  0999 V2000
   16.2639   -9.9192   10.7852 C   0  0  0  0  0  0  0  0  0  0  0  0
   15.1125  -10.3564   11.0602 O   0  0  0  0  0  0  0  0  0  0  0  0
   17.1458   -9.5504   11.8506 N   0  0  0  0  0  0  0  0  0  0  0  0
   18.0190   -9.1574   11.6219 H   0  0  0  0  0  0  0  0  0  0  0  0
   17.2930   -9.6223    6.6446 N   0  0  0  0  0  0  0  0  0  0  0  0
   16.2841  -10.4320    7.0534 C   0  0  0  0  0  0  0  0  0  0  0  0
   15.9609  -10.5210    8.4060 C   0  0  0  0  0  0  0  0  0  0  0  0
   16.6691   -9.7761    9.3602 C   0  0  0  0  0  0  0  0  0  0  0  0
   17.7242   -8.9393    8.9133 C   0  0  0  0  0  0  0  0  0  0  0  0
   18.0144   -8.8828    7.5258 C   0  0  0  0  0  0  0  0  0  0  0  0
   19.0493   -8.0697    7.0543 C   0  0  0  0  0  0  0  0  0  0  0  0
   19.8081   -7.3099    7.9464 C   0  0  0  0  0  0  0  0  0  0  0  0
   19.5361   -7.3611    9.3145 C   0  0  0  0  0  0  0  0  0  0  0  0
   18.5030   -8.1705    9.7932 C   0  0  0  0  0  0  0  0  0  0  0  0
   16.8124   -9.7291   13.2568 C   0  0  0  0  0  0  0  0  0  0  0  0
   17.7423  -10.7145   13.8895 C   0  0  0  0  0  0  0  0  0  0  0  0
   18.5016  -11.3995   13.1529 O   0  0  0  0  0  0  0  0  0  0  0  0
   17.7722  -10.8912   15.3137 N   0  0  0  0  0  0  0  0  0  0  0  0
   16.9343  -10.1529   16.2431 C   0  0  0  0  0  0  0  0  0  0  0  0
   17.0204  -10.9079   17.5573 C   0  0  0  0  0  0  0  0  0  0  0  0
   18.1856  -11.8804   17.4241 C   0  0  0  0  0  0  0  0  0  0  0  0
   18.4980  -11.9769   15.9427 C   0  0  0  0  0  0  0  0  0  0  0  0
   17.4792   -8.6653   16.4372 B   0  0  0  0  0  0  0  0  0  0  0  0
   16.6900   -7.5361   15.9556 O   0  0  0  0  0  0  0  0  0  0  0  0
   18.7655   -8.4289   17.0880 O   0  0  0  0  0  0  0  0  0  0  0  0
   15.8705   -7.8629   15.5524 H   0  0  0  0  0  0  0  0  0  0  0  0
   19.1581   -9.2775   17.3460 H   0  0  0  0  0  0  0  0  0  0  0  0
  5  6  2  0  0  0
  6  7  1  0  0  0
  7  8  2  0  0  0
  8  9  1  0  0  0
  9 10  2  0  0  0
 10 11  1  0  0  0
 11 12  2  0  0  0
 12 13  1  0  0  0
 13 14  2  0  0  0
  8  1  1  0  0  0
  1  2  2  0  0  0
  1  3  1  0  0  0
  3 15  1  0  0  0
 15 16  1  0  0  0
 16 17  2  0  0  0
 16 18  1  0  0  0
 18 19  1  0  0  0
 19 20  1  0  0  0
 20 21  1  0  0  0
 21 22  1  0  0  0
 19 23  1  0  0  0
 23 24  1  0  0  0
 23 25  1  0  0  0
 10  5  1  0  0  0
 22 18  1  0  0  0
 14  9  1  0  0  0
  3  4  1  0  0  0
 24 26  1  0  0  0
 25 27  1  0  0  0
M  END
>  <minimizedAffinity>
-4.22451

>  <minimizedRMSD>
1.59169

$$$$
CHEMBL3976426 PubChem-25070510


 35 38  0  0  0  0  0  0  0  0999 V2000
   16.9919  -10.0923    8.9293 C   0  0  0  0  0  0  0  0  0  0  0  0
   17.1088   -9.7318    7.6238 N   0  0  0  0  0  0  0  0  0  0  0  0
   17.8718   -8.6236    7.6929 C   0  0  0  0  0  0  0  0  0  0  0  0
   18.1934   -8.3362    8.9837 C   0  0  0  0  0  0  0  0  0  0  0  0
   17.6470   -9.2635    9.7802 N   0  0  0  0  0  0  0  0  0  0  0  0
   18.9679   -7.2307    9.3267 C   0  0  0  0  0  0  0  0  0  0  0  0
   19.4089   -6.4191    8.2646 C   0  0  0  0  0  0  0  0  0  0  0  0
   19.0782   -6.7224    6.9683 N   0  0  0  0  0  0  0  0  0  0  0  0
   18.3152   -7.8117    6.6542 C   0  0  0  0  0  0  0  0  0  0  0  0
   17.9866   -8.0987    5.2995 N   0  0  0  0  0  0  0  0  0  0  0  0
   18.3108   -7.5110    4.5792 H   0  0  0  0  0  0  0  0  0  0  0  0
   17.4352   -8.8850    5.0827 H   0  0  0  0  0  0  0  0  0  0  0  0
   16.0590  -11.5293    9.4563 S   0  0  0  0  0  0  0  0  0  0  0  0
   20.7039  -14.1098    6.0338 C   0  0  0  0  0  0  0  0  0  0  0  0
   20.3602  -12.9400    6.7899 O   0  0  0  0  0  0  0  0  0  0  0  0
   19.0824  -13.1106    7.2836 C   0  0  0  0  0  0  0  0  0  0  0  0
   18.3353  -12.2394    8.0692 C   0  0  0  0  0  0  0  0  0  0  0  0
   17.0404  -12.6420    8.4479 C   0  0  0  0  0  0  0  0  0  0  0  0
   16.5380  -13.9061    8.0345 C   0  0  0  0  0  0  0  0  0  0  0  0
   17.3298  -14.7553    7.2397 C   0  0  0  0  0  0  0  0  0  0  0  0
   18.6010  -14.3143    6.8859 C   0  0  0  0  0  0  0  0  0  0  0  0
   19.5520  -14.9605    6.1219 O   0  0  0  0  0  0  0  0  0  0  0  0
   14.9320  -14.4511    8.4912 Cl  0  0  0  0  0  0  0  0  0  0  0  0
   17.6927   -9.3273   11.2342 C   0  0  0  0  0  0  0  0  0  0  0  0
   16.2897   -9.4768   11.7884 C   0  0  0  0  0  0  0  0  0  0  0  0
   16.2462   -8.9361   13.2046 C   0  0  0  0  0  0  0  0  0  0  0  0
   16.9925   -9.8630   14.1471 C   0  0  0  0  0  0  0  0  0  0  0  0
   16.1530  -10.1545   15.3765 C   0  0  0  0  0  0  0  0  0  0  0  0
   16.7956   -9.5135   16.5910 C   0  0  0  0  0  0  0  0  0  0  0  0
   15.9628   -8.3778   17.0754 C   0  0  0  0  0  0  0  0  0  0  0  0
   15.3243   -7.6668   16.2539 O   0  0  0  0  0  0  0  0  0  0  0  0
   15.8802   -8.1116   18.4732 N   0  0  0  0  0  0  0  0  0  0  0  0
   15.1263   -7.0900   18.9420 O   0  0  0  0  0  0  0  0  0  0  0  0
   16.3780   -8.6782   19.1060 H   0  0  0  0  0  0  0  0  0  0  0  0
   14.7036   -6.6324   18.1985 H   0  0  0  0  0  0  0  0  0  0  0  0
 14 15  1  0  0  0
 15 16  1  0  0  0
 16 17  2  0  0  0
 17 18  1  0  0  0
 18 19  2  0  0  0
 18 13  1  0  0  0
 19 20  1  0  0  0
 19 23  1  0  0  0
 20 21  2  0  0  0
 21 22  1  0  0  0
 21 16  1  0  0  0
 22 14  1  0  0  0
 13  1  1  0  0  0
  1  2  2  0  0  0
  2  3  1  0  0  0
  3  4  2  0  0  0
  4  5  1  0  0  0
  4  6  1  0  0  0
  5 24  1  0  0  0
  5  1  1  0  0  0
 24 25  1  0  0  0
 25 26  1  0  0  0
 26 27  1  0  0  0
 27 28  1  0  0  0
 28 29  1  0  0  0
 29 30  1  0  0  0
 30 31  2  0  0  0
 30 32  1  0  0  0
 32 33  1  0  0  0
  6  7  2  0  0  0
  7  8  1  0  0  0
  8  9  2  0  0  0
  9 10  1  0  0  0
  9  3  1  0  0  0
 32 34  1  0  0  0
 33 35  1  0  0  0
 10 11  1  0  0  0
 10 12  1  0  0  0
M  END
>  <minimizedAffinity>
23.30187

>  <minimizedRMSD>
1.60030

$$$$
CHEMBL2235551 PubChem-25108387


 30 33  0  0  0  0  0  0  0  0999 V2000
   19.1656   -9.8765   15.1865 S   0  0  0  0  0  0  0  0  0  0  0  0
   18.2493  -10.2530   13.6978 C   0  0  0  0  0  0  0  0  0  0  0  0
   18.3775  -11.3982   13.0026 N   0  0  0  0  0  0  0  0  0  0  0  0
   17.5445  -11.3021   11.9781 N   0  0  0  0  0  0  0  0  0  0  0  0
   16.9473  -10.1012   12.0916 C   0  0  0  0  0  0  0  0  0  0  0  0
   17.3704   -9.4515   13.1478 O   0  0  0  0  0  0  0  0  0  0  0  0
   15.9087   -9.5941   11.1524 C   0  0  0  0  0  0  0  0  0  0  0  0
   16.4158   -9.6258    9.7895 N   0  0  0  0  0  0  0  0  0  0  0  0
   15.9652  -10.4281    8.8305 N   0  0  0  0  0  0  0  0  0  0  0  0
   16.6662  -10.2673    7.7079 N   0  0  0  0  0  0  0  0  0  0  0  0
   17.5934   -9.3325    7.9880 C   0  0  0  0  0  0  0  0  0  0  0  0
   18.5848   -8.8124    7.1621 C   0  0  0  0  0  0  0  0  0  0  0  0
   19.4413   -7.8440    7.7234 C   0  0  0  0  0  0  0  0  0  0  0  0
   19.2855   -7.4344    9.0697 C   0  0  0  0  0  0  0  0  0  0  0  0
   18.2700   -7.9856    9.8758 C   0  0  0  0  0  0  0  0  0  0  0  0
   17.4441   -8.9357    9.2804 C   0  0  0  0  0  0  0  0  0  0  0  0
   17.9121   -8.6978   15.7685 C   0  0  0  0  0  0  0  0  0  0  0  0
   16.8872   -9.4168   16.6253 C   0  0  0  0  0  0  0  0  0  0  0  0
   15.3003   -7.6755   16.3384 O   0  0  0  0  0  0  0  0  0  0  0  0
   15.8915   -8.4421   17.1441 C   0  0  0  0  0  0  0  0  0  0  0  0
   15.6464   -8.3723   18.5548 N   0  0  0  0  0  0  0  0  0  0  0  0
   16.1544   -8.9959   19.1225 H   0  0  0  0  0  0  0  0  0  0  0  0
   14.7378   -7.4879   19.2243 C   0  0  0  0  0  0  0  0  0  0  0  0
   14.9077   -7.2580   20.5928 C   0  0  0  0  0  0  0  0  0  0  0  0
   14.0419   -6.4025   21.2790 C   0  0  0  0  0  0  0  0  0  0  0  0
   12.9963   -5.7674   20.6030 C   0  0  0  0  0  0  0  0  0  0  0  0
   11.9329   -4.7006   21.5052 Cl  0  0  0  0  0  0  0  0  0  0  0  0
   12.8182   -5.9927   19.2275 C   0  0  0  0  0  0  0  0  0  0  0  0
   11.5218   -5.2209   18.3294 Cl  0  0  0  0  0  0  0  0  0  0  0  0
   13.6881   -6.8499   18.5474 C   0  0  0  0  0  0  0  0  0  0  0  0
 19 20  2  0  0  0
 20 18  1  0  0  0
 20 21  1  0  0  0
 18 17  1  0  0  0
 17  1  1  0  0  0
  1  2  1  0  0  0
  2  3  2  0  0  0
  3  4  1  0  0  0
  4  5  2  0  0  0
  5  7  1  0  0  0
  5  6  1  0  0  0
  7  8  1  0  0  0
  8  9  1  0  0  0
  9 10  2  0  0  0
 10 11  1  0  0  0
 11 12  2  0  0  0
 12 13  1  0  0  0
 13 14  2  0  0  0
 14 15  1  0  0  0
 15 16  2  0  0  0
 16  8  1  0  0  0
 16 11  1  0  0  0
  6  2  1  0  0  0
 21 23  1  0  0  0
 23 24  2  0  0  0
 24 25  1  0  0  0
 25 26  2  0  0  0
 26 27  1  0  0  0
 26 28  1  0  0  0
 28 29  1  0  0  0
 28 30  2  0  0  0
 30 23  1  0  0  0
 21 22  1  0  0  0
M  END
>  <minimizedAffinity>
-8.79389

>  <minimizedRMSD>
1.60086

$$$$
CHEMBL3693605 PubChem-157495643 PubChem-161193675 PubChem-50913773


 28 31  0  0  0  0  0  0  0  0999 V2000
   17.4985   -8.2590   15.8014 O   0  0  0  0  0  0  0  0  0  0  0  0
   17.2068   -9.4157   16.2108 C   0  0  0  0  0  0  0  0  0  0  0  0
   16.5456   -9.5821   17.4693 N   0  0  0  0  0  0  0  0  0  0  0  0
   17.5360  -10.5673   15.4172 N   0  0  0  0  0  0  0  0  0  0  0  0
   17.1730  -11.9095   15.8254 C   0  0  0  0  0  0  0  0  0  0  0  0
   17.5198  -12.8081   14.6554 C   0  0  0  0  0  0  0  0  0  0  0  0
   18.3702  -11.9755   13.7063 C   0  0  0  0  0  0  0  0  0  0  0  0
   18.2120  -10.5235   14.1272 C   0  0  0  0  0  0  0  0  0  0  0  0
   19.6174   -9.9089   14.2757 C   0  0  0  0  0  0  0  0  0  0  0  0
   19.7671   -8.5764   13.5454 C   0  0  0  0  0  0  0  0  0  0  0  0
   19.4004   -8.7471   12.0732 C   0  0  0  0  0  0  0  0  0  0  0  0
   18.1132   -9.4344   11.9095 N   0  0  0  0  0  0  0  0  0  0  0  0
   17.3350   -9.7937   13.0973 C   0  0  0  0  0  0  0  0  0  0  0  0
   16.3466  -10.4946   17.7807 H   0  0  0  0  0  0  0  0  0  0  0  0
   17.5604   -9.7105   10.6059 C   0  0  0  0  0  0  0  0  0  0  0  0
   16.6155  -10.6900   10.4608 N   0  0  0  0  0  0  0  0  0  0  0  0
   16.0661  -10.9924    9.2444 C   0  0  0  0  0  0  0  0  0  0  0  0
   16.4530  -10.3171    8.1243 N   0  0  0  0  0  0  0  0  0  0  0  0
   17.3887   -9.3463    8.2472 C   0  0  0  0  0  0  0  0  0  0  0  0
   17.8756   -8.6040    7.2443 N   0  0  0  0  0  0  0  0  0  0  0  0
   18.7791   -7.7871    7.8392 C   0  0  0  0  0  0  0  0  0  0  0  0
   18.8594   -8.0173    9.2144 C   0  0  0  0  0  0  0  0  0  0  0  0
   17.9495   -9.0264    9.4447 C   0  0  0  0  0  0  0  0  0  0  0  0
   17.6325   -8.6429    6.2911 H   0  0  0  0  0  0  0  0  0  0  0  0
   16.1554   -8.4584   18.3074 C   0  0  0  0  0  0  0  0  0  0  0  0
   14.8597   -7.8551   17.7990 C   0  0  0  0  0  0  0  0  0  0  0  0
   14.1293   -7.2526   18.9144 C   0  0  0  0  0  0  0  0  0  0  0  0
   13.5508   -6.7758   19.7961 N   0  0  0  0  0  0  0  0  0  0  0  0
  1  2  2  0  0  0
  2  3  1  0  0  0
  3 25  1  0  0  0
 25 26  1  0  0  0
 26 27  1  0  0  0
 27 28  3  0  0  0
  2  4  1  0  0  0
  4  5  1  0  0  0
  5  6  1  0  0  0
  6  7  1  0  0  0
  7  8  1  0  0  0
  8  9  1  0  0  0
  9 10  1  0  0  0
 10 11  1  0  0  0
 11 12  1  0  0  0
 12 13  1  0  0  0
 12 15  1  0  0  0
 15 16  2  0  0  0
 16 17  1  0  0  0
 17 18  2  0  0  0
 18 19  1  0  0  0
 19 20  1  0  0  0
 20 21  1  0  0  0
 21 22  2  0  0  0
 22 23  1  0  0  0
  8  4  1  0  0  0
 23 15  1  0  0  0
 13  8  1  0  0  0
 23 19  2  0  0  0
  3 14  1  0  0  0
 20 24  1  0  0  0
M  END
>  <minimizedAffinity>
-0.49799

>  <minimizedRMSD>
1.60604

$$$$
CHEMBL1531571 3452314 CSC026080517 MCULE-9535188603 MolPort-004-083-499 PubChem-2572553 ZINC000003452314 ZINC03452314


 29 31  0  0  0  0  0  0  0  0999 V2000
   17.2857   -9.5288   12.2887 S   0  0  0  0  0  0  0  0  0  0  0  0
   17.4791   -9.2994   10.5152 C   0  0  0  0  0  0  0  0  0  0  0  0
   18.5024   -8.5211   10.0770 N   0  0  0  0  0  0  0  0  0  0  0  0
   18.7204   -8.3211    8.7559 C   0  0  0  0  0  0  0  0  0  0  0  0
   19.7830   -7.5159    8.3348 C   0  0  0  0  0  0  0  0  0  0  0  0
   20.0098   -7.3155    6.9701 C   0  0  0  0  0  0  0  0  0  0  0  0
   19.1756   -7.9196    6.0242 C   0  0  0  0  0  0  0  0  0  0  0  0
   18.1110   -8.7247    6.4404 C   0  0  0  0  0  0  0  0  0  0  0  0
   17.8775   -8.9288    7.8084 C   0  0  0  0  0  0  0  0  0  0  0  0
   16.8240   -9.7290    8.2701 C   0  0  0  0  0  0  0  0  0  0  0  0
   16.0565  -10.2974    7.4420 O   0  0  0  0  0  0  0  0  0  0  0  0
   16.6324   -9.8968    9.6167 N   0  0  0  0  0  0  0  0  0  0  0  0
   15.5209  -10.7239   10.0935 C   0  0  0  0  0  0  0  0  0  0  0  0
   14.3799   -9.8730   10.5611 C   0  0  0  0  0  0  0  0  0  0  0  0
   13.3005  -10.4186   11.1150 C   0  0  0  0  0  0  0  0  0  0  0  0
   17.9024  -11.2418   12.2397 C   0  0  0  0  0  0  0  0  0  0  0  0
   18.8580  -11.4897   13.3589 C   0  0  0  0  0  0  0  0  0  0  0  0
   19.7628  -12.3547   13.2191 O   0  0  0  0  0  0  0  0  0  0  0  0
   18.1074  -10.1394   16.5328 C   0  0  0  0  0  0  0  0  0  0  0  0
   19.0579   -9.2033   16.1743 C   0  0  0  0  0  0  0  0  0  0  0  0
   19.4860   -9.5856   14.9121 C   0  0  0  0  0  0  0  0  0  0  0  0
   18.7566  -10.7212   14.6058 C   0  0  0  0  0  0  0  0  0  0  0  0
   17.9443  -11.0269   15.5861 O   0  0  0  0  0  0  0  0  0  0  0  0
   17.3352  -10.1364   17.8078 C   0  0  0  0  0  0  0  0  0  0  0  0
   14.6971   -7.4127   16.9799 C   0  0  0  0  0  0  0  0  0  0  0  0
   15.5365   -8.6308   16.8413 C   0  0  0  0  0  0  0  0  0  0  0  0
   15.4218   -9.3517   15.8143 O   0  0  0  0  0  0  0  0  0  0  0  0
   16.4679   -8.9676   17.8722 N   0  0  0  0  0  0  0  0  0  0  0  0
   16.5258   -8.3828   18.6621 H   0  0  0  0  0  0  0  0  0  0  0  0
 25 26  1  0  0  0
 26 27  2  0  0  0
 26 28  1  0  0  0
 28 24  1  0  0  0
 24 19  1  0  0  0
 19 20  2  0  0  0
 20 21  1  0  0  0
 21 22  2  0  0  0
 22 23  1  0  0  0
 22 17  1  0  0  0
 23 19  1  0  0  0
 17 18  2  0  0  0
 17 16  1  0  0  0
 16  1  1  0  0  0
  1  2  1  0  0  0
  2  3  2  0  0  0
  3  4  1  0  0  0
  4  5  2  0  0  0
  5  6  1  0  0  0
  6  7  2  0  0  0
  7  8  1  0  0  0
  8  9  2  0  0  0
  9 10  1  0  0  0
  9  4  1  0  0  0
 10 11  2  0  0  0
 10 12  1  0  0  0
 12 13  1  0  0  0
 12  2  1  0  0  0
 13 14  1  0  0  0
 14 15  2  0  0  0
 28 29  1  0  0  0
M  END
>  <minimizedAffinity>
-3.58055

>  <minimizedRMSD>
1.60610

$$$$
CHEMBL3680722 PubChem-56601539


 37 41  0  0  0  0  0  0  0  0999 V2000
   16.6936   -8.7983   16.0218 C   0  0  0  0  0  0  0  0  0  0  0  0
   16.1982   -9.4685   14.8934 C   0  0  0  0  0  0  0  0  0  0  0  0
   17.0711  -10.1273   14.0213 C   0  0  0  0  0  0  0  0  0  0  0  0
   18.4476  -10.1081   14.2655 C   0  0  0  0  0  0  0  0  0  0  0  0
   18.9492   -9.4426   15.3870 C   0  0  0  0  0  0  0  0  0  0  0  0
   18.0753   -8.7910   16.2622 C   0  0  0  0  0  0  0  0  0  0  0  0
   15.9036   -8.3050   18.3589 N   0  0  0  0  0  0  0  0  0  0  0  0
   15.7736   -8.1074   16.9426 C   0  0  0  0  0  0  0  0  0  0  0  0
   14.8791   -7.3482   16.4796 O   0  0  0  0  0  0  0  0  0  0  0  0
   16.6208   -8.9111   18.6547 H   0  0  0  0  0  0  0  0  0  0  0  0
   15.4883   -5.4118   25.0011 C   0  0  0  0  0  0  0  0  0  0  0  0
   14.7789   -6.0775   23.9243 N   0  0  0  0  0  0  0  0  0  0  0  0
   13.6291   -5.2384   23.5960 C   0  0  0  0  0  0  0  0  0  0  0  0
   12.7585   -5.9202   22.5365 C   0  0  0  0  0  0  0  0  0  0  0  0
   13.5859   -6.5262   21.4374 C   0  0  0  0  0  0  0  0  0  0  0  0
   14.9835   -6.6404   21.5627 C   0  0  0  0  0  0  0  0  0  0  0  0
   15.6781   -6.0847   22.7709 C   0  0  0  0  0  0  0  0  0  0  0  0
   15.7320   -7.2192   20.5342 C   0  0  0  0  0  0  0  0  0  0  0  0
   15.0995   -7.7131   19.3883 C   0  0  0  0  0  0  0  0  0  0  0  0
   13.7039   -7.6159   19.2779 C   0  0  0  0  0  0  0  0  0  0  0  0
   12.9514   -7.0274   20.2979 C   0  0  0  0  0  0  0  0  0  0  0  0
   16.5388  -10.8144   12.8140 C   0  0  0  0  0  0  0  0  0  0  0  0
   17.2028  -10.3030   11.6257 N   0  0  0  0  0  0  0  0  0  0  0  0
   16.4793   -9.9570   10.4434 C   0  0  0  0  0  0  0  0  0  0  0  0
   15.2266  -10.0924   10.4023 O   0  0  0  0  0  0  0  0  0  0  0  0
   18.1809  -10.1917   11.6363 H   0  0  0  0  0  0  0  0  0  0  0  0
   17.1953   -9.4412    9.2714 C   0  0  0  0  0  0  0  0  0  0  0  0
   18.3305   -8.6388    9.3181 C   0  0  0  0  0  0  0  0  0  0  0  0
   18.6502   -8.4020    8.0384 N   0  0  0  0  0  0  0  0  0  0  0  0
   19.6759   -7.6720    7.5359 C   0  0  0  0  0  0  0  0  0  0  0  0
   19.7938   -7.5768    6.1417 C   0  0  0  0  0  0  0  0  0  0  0  0
   18.8574   -8.2326    5.3195 C   0  0  0  0  0  0  0  0  0  0  0  0
   17.8105   -8.9780    5.8855 C   0  0  0  0  0  0  0  0  0  0  0  0
   17.7454   -9.0356    7.2758 C   0  0  0  0  0  0  0  0  0  0  0  0
   16.8200   -9.6960    7.9935 N   0  0  0  0  0  0  0  0  0  0  0  0
   20.8615   -6.8163    5.5571 C   0  0  0  0  0  0  0  0  0  0  0  0
   21.7224   -6.2031    5.0857 N   0  0  0  0  0  0  0  0  0  0  0  0
 11 12  1  0  0  0
 12 13  1  0  0  0
 13 14  1  0  0  0
 14 15  1  0  0  0
 15 16  2  0  0  0
 16 17  1  0  0  0
 16 18  1  0  0  0
 17 12  1  0  0  0
 18 19  2  0  0  0
 19 20  1  0  0  0
 19  7  1  0  0  0
 20 21  2  0  0  0
 21 15  1  0  0  0
  7  8  1  0  0  0
  8  9  2  0  0  0
  8  1  1  0  0  0
  1  2  2  0  0  0
  2  3  1  0  0  0
  3  4  2  0  0  0
  3 22  1  0  0  0
  4  5  1  0  0  0
  5  6  2  0  0  0
  6  1  1  0  0  0
 22 23  1  0  0  0
 23 24  1  0  0  0
 24 25  2  0  0  0
 24 27  1  0  0  0
 27 28  2  0  0  0
 28 29  1  0  0  0
 29 30  1  0  0  0
 30 31  2  0  0  0
 31 32  1  0  0  0
 31 36  1  0  0  0
 32 33  2  0  0  0
 33 34  1  0  0  0
 34 35  2  0  0  0
 34 29  1  0  0  0
 35 27  1  0  0  0
 36 37  3  0  0  0
  7 10  1  0  0  0
 23 26  1  0  0  0
M  END
>  <minimizedAffinity>
-9.87804

>  <minimizedRMSD>
1.60904

$$$$
CHEMBL5094411 PubChem-73336280


 39 43  0  0  0  0  0  0  0  0999 V2000
   16.6240   -8.7486   14.3814 C   0  0  0  0  0  0  0  0  0  0  0  0
   16.5562   -9.1324   12.9682 N   0  0  0  0  0  0  0  0  0  0  0  0
   15.6375   -9.9004   12.4695 C   0  0  0  0  0  0  0  0  0  0  0  0
   14.6328  -10.4480   13.3189 N   0  0  0  0  0  0  0  0  0  0  0  0
   14.6285  -10.1952   14.7246 C   0  0  0  0  0  0  0  0  0  0  0  0
   15.5795   -9.4075   15.2745 C   0  0  0  0  0  0  0  0  0  0  0  0
   13.5142  -10.7897   15.5215 C   0  0  0  0  0  0  0  0  0  0  0  0
   13.9269  -11.0124   12.9286 H   0  0  0  0  0  0  0  0  0  0  0  0
   18.4337  -11.1049   13.2373 Cl  0  0  0  0  0  0  0  0  0  0  0  0
   18.9054   -9.9191   14.4457 C   0  0  0  0  0  0  0  0  0  0  0  0
   18.0292   -8.9044   14.8939 C   0  0  0  0  0  0  0  0  0  0  0  0
   18.4763   -7.9866   15.8517 C   0  0  0  0  0  0  0  0  0  0  0  0
   19.7709   -8.0729   16.3683 C   0  0  0  0  0  0  0  0  0  0  0  0
   20.6323   -9.0791   15.9279 C   0  0  0  0  0  0  0  0  0  0  0  0
   20.1999   -9.9978   14.9692 C   0  0  0  0  0  0  0  0  0  0  0  0
   15.5987   -9.0774   16.7228 C   0  0  0  0  0  0  0  0  0  0  0  0
   16.3770   -9.7100   17.4865 O   0  0  0  0  0  0  0  0  0  0  0  0
   14.7066   -8.0864   17.2548 N   0  0  0  0  0  0  0  0  0  0  0  0
   14.1144   -7.6383   16.6086 H   0  0  0  0  0  0  0  0  0  0  0  0
   14.5826   -7.6764   18.6262 C   0  0  0  0  0  0  0  0  0  0  0  0
   13.3028   -7.4722   19.1764 C   0  0  0  0  0  0  0  0  0  0  0  0
   13.1699   -7.0622   20.5077 C   0  0  0  0  0  0  0  0  0  0  0  0
   14.3022   -6.8661   21.3012 C   0  0  0  0  0  0  0  0  0  0  0  0
   15.5740   -7.0742   20.7648 C   0  0  0  0  0  0  0  0  0  0  0  0
   15.7128   -7.4763   19.4343 C   0  0  0  0  0  0  0  0  0  0  0  0
   12.0716   -7.6508   18.3520 C   0  0  0  0  0  0  0  0  0  0  0  0
   11.9102   -6.5561   17.5027 O   0  0  0  0  0  0  0  0  0  0  0  0
   11.8264   -5.7468   18.0308 H   0  0  0  0  0  0  0  0  0  0  0  0
   15.6307  -10.2286   11.0764 N   0  0  0  0  0  0  0  0  0  0  0  0
   14.9857  -10.9070   10.7715 H   0  0  0  0  0  0  0  0  0  0  0  0
   16.4913   -9.6445   10.0937 C   0  0  0  0  0  0  0  0  0  0  0  0
   17.5125   -8.8541   10.3852 O   0  0  0  0  0  0  0  0  0  0  0  0
   18.0431   -8.5346    9.2371 C   0  0  0  0  0  0  0  0  0  0  0  0
   17.3335   -9.1395    8.2427 C   0  0  0  0  0  0  0  0  0  0  0  0
   16.3271   -9.8621    8.7628 N   0  0  0  0  0  0  0  0  0  0  0  0
   17.6663   -8.9837    6.8996 C   0  0  0  0  0  0  0  0  0  0  0  0
   18.7751   -8.1693    6.5993 C   0  0  0  0  0  0  0  0  0  0  0  0
   19.5090   -7.5431    7.6330 C   0  0  0  0  0  0  0  0  0  0  0  0
   19.1443   -7.7230    8.9807 C   0  0  0  0  0  0  0  0  0  0  0  0
  9 10  1  0  0  0
 10 11  2  0  0  0
 11  1  1  0  0  0
  1  2  1  0  0  0
  2  3  2  0  0  0
  3  4  1  0  0  0
  4  5  1  0  0  0
  5  6  2  0  0  0
  6 16  1  0  0  0
 16 17  2  0  0  0
 16 18  1  0  0  0
 18 20  1  0  0  0
 20 21  2  0  0  0
 21 22  1  0  0  0
 22 23  2  0  0  0
 23 24  1  0  0  0
 24 25  2  0  0  0
 21 26  1  0  0  0
 26 27  1  0  0  0
  5  7  1  0  0  0
  3 29  1  0  0  0
 29 31  1  0  0  0
 31 32  1  0  0  0
 32 33  1  0  0  0
 33 34  2  0  0  0
 34 35  1  0  0  0
 34 36  1  0  0  0
 36 37  2  0  0  0
 37 38  1  0  0  0
 38 39  2  0  0  0
 11 12  1  0  0  0
 12 13  2  0  0  0
 13 14  1  0  0  0
 14 15  2  0  0  0
 15 10  1  0  0  0
  6  1  1  0  0  0
 25 20  1  0  0  0
 35 31  2  0  0  0
 39 33  1  0  0  0
  4  8  1  0  0  0
 18 19  1  0  0  0
 27 28  1  0  0  0
 29 30  1  0  0  0
M  END
>  <minimizedAffinity>
-2.02713

>  <minimizedRMSD>
1.60910

$$$$
CHEMBL399368 PubChem-25093459


 32 35  0  0  0  0  0  0  0  0999 V2000
   17.1906  -10.2506   16.6366 C   0  0  0  0  0  0  0  0  0  0  0  0
   17.5837  -11.5527   16.9596 C   0  0  0  0  0  0  0  0  0  0  0  0
   18.0344  -12.4176   15.9592 C   0  0  0  0  0  0  0  0  0  0  0  0
   18.0982  -11.9798   14.6334 C   0  0  0  0  0  0  0  0  0  0  0  0
   17.7150  -10.6728   14.2984 C   0  0  0  0  0  0  0  0  0  0  0  0
   17.2658   -9.8118   15.3092 C   0  0  0  0  0  0  0  0  0  0  0  0
   17.7823  -10.2088   12.9011 C   0  0  0  0  0  0  0  0  0  0  0  0
   16.7807  -10.4111   11.9404 C   0  0  0  0  0  0  0  0  0  0  0  0
   17.1375   -9.8529   10.7127 C   0  0  0  0  0  0  0  0  0  0  0  0
   16.3780   -9.8806    9.5787 N   0  0  0  0  0  0  0  0  0  0  0  0
   16.8393   -9.2933    8.4260 C   0  0  0  0  0  0  0  0  0  0  0  0
   18.1014   -8.6704    8.4493 C   0  0  0  0  0  0  0  0  0  0  0  0
   18.7080   -8.0479    7.4181 N   0  0  0  0  0  0  0  0  0  0  0  0
   19.8891   -7.6177    7.9330 C   0  0  0  0  0  0  0  0  0  0  0  0
   19.9595   -7.9956    9.2656 C   0  0  0  0  0  0  0  0  0  0  0  0
   21.0930   -7.7162   10.1909 C   0  0  0  0  0  0  0  0  0  0  0  0
   18.8327   -8.6543    9.5756 N   0  0  0  0  0  0  0  0  0  0  0  0
   18.3738   -9.2351   10.7104 C   0  0  0  0  0  0  0  0  0  0  0  0
   19.0860   -9.3478   12.2231 S   0  0  0  0  0  0  0  0  0  0  0  0
   16.0597   -9.3115    7.2291 N   0  0  0  0  0  0  0  0  0  0  0  0
   16.6671   -9.4383    5.9153 C   0  0  0  0  0  0  0  0  0  0  0  0
   15.0804   -9.2357    7.2965 H   0  0  0  0  0  0  0  0  0  0  0  0
   16.7247   -9.3305   17.7233 C   0  0  0  0  0  0  0  0  0  0  0  0
   15.8381   -8.1826   17.2287 C   0  0  0  0  0  0  0  0  0  0  0  0
   15.0686   -8.5715   16.0570 N   0  0  0  0  0  0  0  0  0  0  0  0
   14.4302   -9.3273   16.3051 H   0  0  0  0  0  0  0  0  0  0  0  0
   15.7027   -8.8889   15.3238 H   0  0  0  0  0  0  0  0  0  0  0  0
   14.4340   -7.4193   20.7589 C   0  0  0  0  0  0  0  0  0  0  0  0
   15.2667   -7.9004   19.6697 N   0  0  0  0  0  0  0  0  0  0  0  0
   14.9494   -7.6378   18.3031 C   0  0  0  0  0  0  0  0  0  0  0  0
   13.9139   -6.9826   18.0025 O   0  0  0  0  0  0  0  0  0  0  0  0
   16.0739   -8.4232   19.8806 H   0  0  0  0  0  0  0  0  0  0  0  0
 28 29  1  0  0  0
 29 30  1  0  0  0
 30 31  2  0  0  0
 24 30  1  0  0  0
 24 25  1  0  0  0
 24 23  1  0  0  0
 23  1  1  0  0  0
  1  2  2  0  0  0
  2  3  1  0  0  0
  3  4  2  0  0  0
  4  5  1  0  0  0
  5  7  1  0  0  0
  5  6  2  0  0  0
  7  8  2  0  0  0
  8  9  1  0  0  0
  9 10  1  0  0  0
 10 11  2  0  0  0
 11 20  1  0  0  0
 11 12  1  0  0  0
 20 21  1  0  0  0
 12 13  2  0  0  0
 13 14  1  0  0  0
 14 15  2  0  0  0
 15 16  1  0  0  0
 15 17  1  0  0  0
 17 18  1  0  0  0
 17 12  1  0  0  0
 18 19  1  0  0  0
 18  9  2  0  0  0
 19  7  1  0  0  0
  6  1  1  0  0  0
 29 32  1  0  0  0
 25 26  1  0  0  0
 25 27  1  0  0  0
 20 22  1  0  0  0
M  END
>  <minimizedAffinity>
0.08320

>  <minimizedRMSD>
1.61047

$$$$
CHEMBL4591433 PubChem-129067040


 34 39  0  0  0  0  0  0  0  0999 V2000
   16.3722   -9.1369   16.3214 C   0  0  0  0  0  0  0  0  0  0  0  0
   17.2160  -10.1204   16.8434 C   0  0  0  0  0  0  0  0  0  0  0  0
   17.7468  -11.0372   15.5337 S   0  0  0  0  0  0  0  0  0  0  0  0
   16.8984  -10.1575   14.3896 C   0  0  0  0  0  0  0  0  0  0  0  0
   16.1970   -9.1608   14.9711 N   0  0  0  0  0  0  0  0  0  0  0  0
   15.7583   -8.2504   18.5902 N   0  0  0  0  0  0  0  0  0  0  0  0
   15.7060   -8.1364   17.1646 C   0  0  0  0  0  0  0  0  0  0  0  0
   15.0926   -7.1747   16.6273 O   0  0  0  0  0  0  0  0  0  0  0  0
   16.2830   -8.9837   18.9854 H   0  0  0  0  0  0  0  0  0  0  0  0
   15.0779   -7.9013   20.9081 C   0  0  0  0  0  0  0  0  0  0  0  0
   13.6256   -8.1980   21.3182 C   0  0  0  0  0  0  0  0  0  0  0  0
   12.8355   -7.7545   20.1533 C   0  0  0  0  0  0  0  0  0  0  0  0
   13.6265   -7.2750   19.1471 C   0  0  0  0  0  0  0  0  0  0  0  0
   15.0685   -7.3275   19.4813 C   0  0  0  0  0  0  0  0  0  0  0  0
   13.0913   -6.8037   17.9899 N   0  0  0  0  0  0  0  0  0  0  0  0
   11.7387   -6.8102   17.8113 C   0  0  0  0  0  0  0  0  0  0  0  0
   10.8928   -7.3000   18.8221 C   0  0  0  0  0  0  0  0  0  0  0  0
   11.4495   -7.7798   20.0159 C   0  0  0  0  0  0  0  0  0  0  0  0
   16.9024  -10.4560   12.9228 C   0  0  0  0  0  0  0  0  0  0  0  0
   15.5019  -10.7745   12.4386 C   0  0  0  0  0  0  0  0  0  0  0  0
   15.3940   -9.5252   11.6903 N   0  0  0  0  0  0  0  0  0  0  0  0
   16.7506   -9.1857   12.1097 C   0  0  0  0  0  0  0  0  0  0  0  0
   15.3231   -9.7824   10.2393 C   0  0  0  0  0  0  0  0  0  0  0  0
   16.5159  -10.5489    9.6415 C   0  0  0  0  0  0  0  0  0  0  0  0
   17.2947   -9.7349    8.6544 C   0  0  0  0  0  0  0  0  0  0  0  0
   17.1565   -9.9111    7.3143 N   0  0  0  0  0  0  0  0  0  0  0  0
   18.0082   -9.0063    6.8124 C   0  0  0  0  0  0  0  0  0  0  0  0
   18.2774   -8.7440    5.4714 C   0  0  0  0  0  0  0  0  0  0  0  0
   19.2192   -7.7379    5.1860 C   0  0  0  0  0  0  0  0  0  0  0  0
   19.8551   -7.0324    6.2323 C   0  0  0  0  0  0  0  0  0  0  0  0
   19.5563   -7.3243    7.5764 C   0  0  0  0  0  0  0  0  0  0  0  0
   18.6203   -8.3262    7.8201 C   0  0  0  0  0  0  0  0  0  0  0  0
   18.1849   -8.7676    9.0079 N   0  0  0  0  0  0  0  0  0  0  0  0
   18.4435   -8.4678    9.9093 H   0  0  0  0  0  0  0  0  0  0  0  0
 10 11  1  0  0  0
 11 12  1  0  0  0
 12 13  2  0  0  0
 13 14  1  0  0  0
 14  6  1  0  0  0
  6  7  1  0  0  0
  7  8  2  0  0  0
  7  1  1  0  0  0
  1  2  2  0  0  0
  2  3  1  0  0  0
  3  4  1  0  0  0
  4  5  2  0  0  0
  4 19  1  0  0  0
 19 20  1  0  0  0
 20 21  1  0  0  0
 21 22  1  0  0  0
 21 23  1  0  0  0
 23 24  1  0  0  0
 24 25  1  0  0  0
 25 26  2  0  0  0
 26 27  1  0  0  0
 27 28  2  0  0  0
 28 29  1  0  0  0
 29 30  2  0  0  0
 30 31  1  0  0  0
 31 32  2  0  0  0
 32 33  1  0  0  0
 13 15  1  0  0  0
 15 16  2  0  0  0
 16 17  1  0  0  0
 17 18  2  0  0  0
 14 10  1  0  0  0
 18 12  1  0  0  0
  5  1  1  0  0  0
 22 19  1  0  0  0
 33 25  1  0  0  0
 32 27  1  0  0  0
  6  9  1  0  0  0
 33 34  1  0  0  0
M  END
>  <minimizedAffinity>
-6.30242

>  <minimizedRMSD>
1.61328

$$$$
CHEMBL3670424 PubChem-66763685


 38 41  0  0  0  0  0  0  0  0999 V2000
   16.9550   -9.1355   16.3915 C   0  0  0  0  0  0  0  0  0  0  0  0
   18.3038   -9.5076   16.3587 C   0  0  0  0  0  0  0  0  0  0  0  0
   18.8970   -9.9137   15.1595 C   0  0  0  0  0  0  0  0  0  0  0  0
   18.1418   -9.9524   13.9838 C   0  0  0  0  0  0  0  0  0  0  0  0
   16.7942   -9.5805   14.0063 C   0  0  0  0  0  0  0  0  0  0  0  0
   16.2022   -9.1785   15.2077 C   0  0  0  0  0  0  0  0  0  0  0  0
   14.7822   -7.6209   19.1598 N   0  0  0  0  0  0  0  0  0  0  0  0
   15.2199   -7.9056   17.8246 C   0  0  0  0  0  0  0  0  0  0  0  0
   14.6049   -7.4331   16.8316 O   0  0  0  0  0  0  0  0  0  0  0  0
   16.3812   -8.7263   17.6411 N   0  0  0  0  0  0  0  0  0  0  0  0
   15.3427   -7.9745   19.8877 H   0  0  0  0  0  0  0  0  0  0  0  0
   16.8317   -9.0419   18.4577 H   0  0  0  0  0  0  0  0  0  0  0  0
   13.3942   -6.5483   20.9203 C   0  0  0  0  0  0  0  0  0  0  0  0
   12.2505   -5.8181   21.2673 C   0  0  0  0  0  0  0  0  0  0  0  0
   11.3290   -5.4205   20.2986 C   0  0  0  0  0  0  0  0  0  0  0  0
   11.5416   -5.7484   18.9618 C   0  0  0  0  0  0  0  0  0  0  0  0
   12.6771   -6.4704   18.5954 C   0  0  0  0  0  0  0  0  0  0  0  0
   13.6174   -6.8775   19.5558 C   0  0  0  0  0  0  0  0  0  0  0  0
   15.1982   -6.0387   22.5878 C   0  0  0  0  0  0  0  0  0  0  0  0
   14.2556   -6.9046   21.9702 O   0  0  0  0  0  0  0  0  0  0  0  0
   15.9783   -9.6485   12.7648 C   0  0  0  0  0  0  0  0  0  0  0  0
   16.7409  -10.3008   11.7106 N   0  0  0  0  0  0  0  0  0  0  0  0
   17.2656  -11.0920   11.9710 H   0  0  0  0  0  0  0  0  0  0  0  0
   16.8077   -9.9102   10.3290 C   0  0  0  0  0  0  0  0  0  0  0  0
   15.7740  -10.2750    9.5270 N   0  0  0  0  0  0  0  0  0  0  0  0
   15.7402   -9.9535    8.2108 C   0  0  0  0  0  0  0  0  0  0  0  0
   16.7560   -9.2486    7.6560 N   0  0  0  0  0  0  0  0  0  0  0  0
   17.8250   -8.8414    8.3905 C   0  0  0  0  0  0  0  0  0  0  0  0
   17.8751   -9.1621    9.7723 C   0  0  0  0  0  0  0  0  0  0  0  0
   18.9620   -8.7203   10.5362 C   0  0  0  0  0  0  0  0  0  0  0  0
   19.9889   -7.9809    9.9553 C   0  0  0  0  0  0  0  0  0  0  0  0
   19.9435   -7.6726    8.5981 C   0  0  0  0  0  0  0  0  0  0  0  0
   18.8742   -8.0945    7.7942 C   0  0  0  0  0  0  0  0  0  0  0  0
   18.9024   -7.7280    6.3529 C   0  0  0  0  0  0  0  0  0  0  0  0
   19.4776   -6.6680    5.9857 O   0  0  0  0  0  0  0  0  0  0  0  0
   18.2988   -8.5527    5.3602 N   0  0  0  0  0  0  0  0  0  0  0  0
   17.8437   -9.3854    5.6222 H   0  0  0  0  0  0  0  0  0  0  0  0
   18.3367   -8.2898    4.4122 H   0  0  0  0  0  0  0  0  0  0  0  0
 19 20  1  0  0  0
 20 13  1  0  0  0
 13 14  2  0  0  0
 14 15  1  0  0  0
 15 16  2  0  0  0
 16 17  1  0  0  0
 17 18  2  0  0  0
 18  7  1  0  0  0
 18 13  1  0  0  0
  7  8  1  0  0  0
  8  9  2  0  0  0
  8 10  1  0  0  0
 10  1  1  0  0  0
  1  2  2  0  0  0
  2  3  1  0  0  0
  3  4  2  0  0  0
  4  5  1  0  0  0
  5  6  2  0  0  0
  5 21  1  0  0  0
  6  1  1  0  0  0
 21 22  1  0  0  0
 22 24  1  0  0  0
 24 25  2  0  0  0
 25 26  1  0  0  0
 26 27  2  0  0  0
 27 28  1  0  0  0
 28 29  2  0  0  0
 29 30  1  0  0  0
 29 24  1  0  0  0
 30 31  2  0  0  0
 31 32  1  0  0  0
 32 33  2  0  0  0
 33 34  1  0  0  0
 33 28  1  0  0  0
 34 35  2  0  0  0
 34 36  1  0  0  0
  7 11  1  0  0  0
 10 12  1  0  0  0
 22 23  1  0  0  0
 36 37  1  0  0  0
 36 38  1  0  0  0
M  END
>  <minimizedAffinity>
-10.59486

>  <minimizedRMSD>
1.61516

$$$$
CHEMBL3968579 PubChem-86692153


 29 33  0  0  0  0  0  0  0  0999 V2000
   18.7597  -11.2184   13.6870 C   0  0  0  0  0  0  0  0  0  0  0  0
   19.2942   -9.7987   13.8342 C   0  0  0  0  0  0  0  0  0  0  0  0
   19.0240   -9.1031   12.5131 C   0  0  0  0  0  0  0  0  0  0  0  0
   18.1693   -9.9956   11.7513 N   0  0  0  0  0  0  0  0  0  0  0  0
   17.9316  -11.2616   12.4153 C   0  0  0  0  0  0  0  0  0  0  0  0
   17.5985   -9.6860   10.4676 C   0  0  0  0  0  0  0  0  0  0  0  0
   16.3937  -10.2251   10.1093 N   0  0  0  0  0  0  0  0  0  0  0  0
   15.8140   -9.9546    8.8990 C   0  0  0  0  0  0  0  0  0  0  0  0
   16.4311   -9.1278    8.0060 N   0  0  0  0  0  0  0  0  0  0  0  0
   17.6244   -8.5858    8.3468 C   0  0  0  0  0  0  0  0  0  0  0  0
   18.3505   -7.7582    7.5843 N   0  0  0  0  0  0  0  0  0  0  0  0
   19.4453   -7.4837    8.3360 C   0  0  0  0  0  0  0  0  0  0  0  0
   19.4062   -8.1387    9.5693 C   0  0  0  0  0  0  0  0  0  0  0  0
   18.2205   -8.8391    9.5420 C   0  0  0  0  0  0  0  0  0  0  0  0
   18.1378   -7.4247    6.6828 H   0  0  0  0  0  0  0  0  0  0  0  0
   17.9699  -13.0450   15.1720 C   0  0  0  0  0  0  0  0  0  0  0  0
   17.9773  -11.6244   14.8548 N   0  0  0  0  0  0  0  0  0  0  0  0
   17.2369  -10.6884   15.6689 C   0  0  0  0  0  0  0  0  0  0  0  0
   17.5235  -10.5476   17.0350 C   0  0  0  0  0  0  0  0  0  0  0  0
   16.7958   -9.6390   17.8039 C   0  0  0  0  0  0  0  0  0  0  0  0
   15.7861   -8.8732   17.2143 C   0  0  0  0  0  0  0  0  0  0  0  0
   15.5262   -9.0382   15.8504 C   0  0  0  0  0  0  0  0  0  0  0  0
   16.2468   -9.9290   15.1186 N   0  0  0  0  0  0  0  0  0  0  0  0
   15.0115   -7.9123   18.0132 C   0  0  0  0  0  0  0  0  0  0  0  0
   13.9707   -7.1983   17.5465 N   0  0  0  0  0  0  0  0  0  0  0  0
   13.5729   -6.4721   18.5781 N   0  0  0  0  0  0  0  0  0  0  0  0
   14.3358   -6.7302   19.6285 N   0  0  0  0  0  0  0  0  0  0  0  0
   15.2498   -7.6311   19.3075 N   0  0  0  0  0  0  0  0  0  0  0  0
   14.2378   -6.3142   20.5154 H   0  0  0  0  0  0  0  0  0  0  0  0
 16 17  1  0  0  0
  1 17  1  0  0  0
  1  2  1  0  0  0
  2  3  1  0  0  0
  3  4  1  0  0  0
  4  5  1  0  0  0
  4  6  1  0  0  0
  6  7  2  0  0  0
  7  8  1  0  0  0
  8  9  2  0  0  0
  9 10  1  0  0  0
 10 11  1  0  0  0
 11 12  1  0  0  0
 12 13  2  0  0  0
 13 14  1  0  0  0
 17 18  1  0  0  0
 18 19  2  0  0  0
 19 20  1  0  0  0
 20 21  2  0  0  0
 21 22  1  0  0  0
 22 23  2  0  0  0
 21 24  1  0  0  0
 24 25  1  0  0  0
 25 26  2  0  0  0
 26 27  1  0  0  0
 27 28  1  0  0  0
  5  1  1  0  0  0
 14  6  1  0  0  0
 23 18  1  0  0  0
 28 24  2  0  0  0
 14 10  2  0  0  0
 11 15  1  0  0  0
 27 29  1  0  0  0
M  END
>  <minimizedAffinity>
-5.00408

>  <minimizedRMSD>
1.61767

$$$$
CHEMBL1325412 ChemDiv-G357-2498 MCULE-7972144130 MolPort-007-847-833 PubChem-16027579 ZINC000008607431


 35 39  0  0  0  0  0  0  0  0999 V2000
   17.8190  -10.7214   14.2220 C   0  0  0  0  0  0  0  0  0  0  0  0
   18.3030  -11.8369   14.5612 O   0  0  0  0  0  0  0  0  0  0  0  0
   17.1305   -9.8831   15.2166 C   0  0  0  0  0  0  0  0  0  0  0  0
   16.5329   -8.6778   14.8264 C   0  0  0  0  0  0  0  0  0  0  0  0
   15.8772   -7.8789   15.7669 C   0  0  0  0  0  0  0  0  0  0  0  0
   15.8102   -8.2749   17.1109 C   0  0  0  0  0  0  0  0  0  0  0  0
   16.4073   -9.4784   17.4994 C   0  0  0  0  0  0  0  0  0  0  0  0
   17.0634  -10.2787   16.5597 C   0  0  0  0  0  0  0  0  0  0  0  0
   15.1466   -7.4819   18.1047 N   0  0  0  0  0  0  0  0  0  0  0  0
   13.7300   -7.3069   18.2630 C   0  0  0  0  0  0  0  0  0  0  0  0
   12.9211   -7.8830   17.4856 O   0  0  0  0  0  0  0  0  0  0  0  0
   15.7232   -7.0074   18.7462 H   0  0  0  0  0  0  0  0  0  0  0  0
   13.2170   -6.4477   19.3447 C   0  0  0  0  0  0  0  0  0  0  0  0
   12.3182   -5.4084   19.0607 C   0  0  0  0  0  0  0  0  0  0  0  0
   11.8314   -4.5944   20.0878 C   0  0  0  0  0  0  0  0  0  0  0  0
   12.2399   -4.8132   21.4062 C   0  0  0  0  0  0  0  0  0  0  0  0
   13.1351   -5.8459   21.6978 C   0  0  0  0  0  0  0  0  0  0  0  0
   13.6220   -6.6599   20.6707 C   0  0  0  0  0  0  0  0  0  0  0  0
   11.7209   -3.9492   22.4982 C   0  0  0  0  0  0  0  0  0  0  0  0
   17.9333  -10.2765   12.9031 O   0  0  0  0  0  0  0  0  0  0  0  0
   16.7941  -10.0074   12.0993 C   0  0  0  0  0  0  0  0  0  0  0  0
   18.0068   -8.9501    8.1904 N   0  0  0  0  0  0  0  0  0  0  0  0
   18.5717   -8.4940    7.0322 C   0  0  0  0  0  0  0  0  0  0  0  0
   18.0245   -8.7418    5.6532 C   0  0  0  0  0  0  0  0  0  0  0  0
   19.1138   -8.5532    4.5941 C   0  0  0  0  0  0  0  0  0  0  0  0
   19.8051   -7.2004    4.7789 C   0  0  0  0  0  0  0  0  0  0  0  0
   20.5346   -7.1221    6.1258 C   0  0  0  0  0  0  0  0  0  0  0  0
   19.7052   -7.7045    7.2295 C   0  0  0  0  0  0  0  0  0  0  0  0
   20.0428   -7.6026    8.8798 S   0  0  0  0  0  0  0  0  0  0  0  0
   18.7071   -8.5440    9.2784 C   0  0  0  0  0  0  0  0  0  0  0  0
   18.3332   -8.8824   10.5365 N   0  0  0  0  0  0  0  0  0  0  0  0
   17.2293   -9.6565   10.7217 C   0  0  0  0  0  0  0  0  0  0  0  0
   16.4762  -10.0870    9.6213 C   0  0  0  0  0  0  0  0  0  0  0  0
   16.8876   -9.7217    8.3356 C   0  0  0  0  0  0  0  0  0  0  0  0
   16.2222  -10.1080    7.3381 O   0  0  0  0  0  0  0  0  0  0  0  0
 22 23  1  0  0  0
 23 24  1  0  0  0
 24 25  1  0  0  0
 25 26  1  0  0  0
 26 27  1  0  0  0
 27 28  1  0  0  0
 28 29  1  0  0  0
 29 30  1  0  0  0
 30 31  2  0  0  0
 31 32  1  0  0  0
 32 21  1  0  0  0
 21 20  1  0  0  0
 20  1  1  0  0  0
  1  2  2  0  0  0
  1  3  1  0  0  0
  3  4  2  0  0  0
  4  5  1  0  0  0
  5  6  2  0  0  0
  6  7  1  0  0  0
  7  8  2  0  0  0
  6  9  1  0  0  0
  9 10  1  0  0  0
 10 11  2  0  0  0
 10 13  1  0  0  0
 13 14  2  0  0  0
 14 15  1  0  0  0
 15 16  2  0  0  0
 16 17  1  0  0  0
 17 18  2  0  0  0
 16 19  1  0  0  0
 32 33  2  0  0  0
 33 34  1  0  0  0
 34 35  2  0  0  0
 30 22  1  0  0  0
  8  3  1  0  0  0
 18 13  1  0  0  0
 34 22  1  0  0  0
 28 23  2  0  0  0
  9 12  1  0  0  0
M  END
>  <minimizedAffinity>
-8.25030

>  <minimizedRMSD>
1.61892

$$$$
CHEMBL3914438 PubChem-89743545


 38 42  0  0  0  0  0  0  0  0999 V2000
   17.2998  -10.7705   15.6180 C   0  0  0  0  0  0  0  0  0  0  0  0
   16.4124   -9.8360   15.0581 C   0  0  0  0  0  0  0  0  0  0  0  0
   15.7397   -8.9106   15.8573 C   0  0  0  0  0  0  0  0  0  0  0  0
   15.9413   -8.8951   17.2412 C   0  0  0  0  0  0  0  0  0  0  0  0
   16.8291   -9.8141   17.8114 C   0  0  0  0  0  0  0  0  0  0  0  0
   17.5054  -10.7445   17.0167 C   0  0  0  0  0  0  0  0  0  0  0  0
   18.3785  -11.5873   17.6210 F   0  0  0  0  0  0  0  0  0  0  0  0
   15.2297   -7.9230   18.0889 C   0  0  0  0  0  0  0  0  0  0  0  0
   14.6717   -6.9191   17.5666 O   0  0  0  0  0  0  0  0  0  0  0  0
   15.1697   -8.1180   19.5055 N   0  0  0  0  0  0  0  0  0  0  0  0
   15.6520   -8.8819   19.8966 H   0  0  0  0  0  0  0  0  0  0  0  0
   14.4256   -7.2348   20.3939 C   0  0  0  0  0  0  0  0  0  0  0  0
   13.3655   -6.4611   19.6182 C   0  0  0  0  0  0  0  0  0  0  0  0
   12.8649   -5.4263   20.4089 O   0  0  0  0  0  0  0  0  0  0  0  0
   12.4473   -5.7980   21.2015 H   0  0  0  0  0  0  0  0  0  0  0  0
   12.2495   -7.3523   19.1699 C   0  0  0  0  0  0  0  0  0  0  0  0
   11.4524   -6.9588   18.0893 C   0  0  0  0  0  0  0  0  0  0  0  0
   10.4072   -7.7782   17.6521 C   0  0  0  0  0  0  0  0  0  0  0  0
   10.1553   -8.9937   18.2952 C   0  0  0  0  0  0  0  0  0  0  0  0
   10.9480   -9.3906   19.3761 C   0  0  0  0  0  0  0  0  0  0  0  0
   11.9935   -8.5722   19.8139 C   0  0  0  0  0  0  0  0  0  0  0  0
   17.9252  -13.1513   15.0356 C   0  0  0  0  0  0  0  0  0  0  0  0
   17.9832  -11.7229   14.7641 N   0  0  0  0  0  0  0  0  0  0  0  0
   18.7503  -11.3333   13.5784 C   0  0  0  0  0  0  0  0  0  0  0  0
   19.3622   -9.9458   13.7302 C   0  0  0  0  0  0  0  0  0  0  0  0
   19.1072   -9.2251   12.4194 C   0  0  0  0  0  0  0  0  0  0  0  0
   18.1901  -10.0621   11.6668 N   0  0  0  0  0  0  0  0  0  0  0  0
   17.8939  -11.3187   12.3254 C   0  0  0  0  0  0  0  0  0  0  0  0
   17.6130   -9.7095   10.3971 C   0  0  0  0  0  0  0  0  0  0  0  0
   16.4019  -10.2290   10.0306 N   0  0  0  0  0  0  0  0  0  0  0  0
   15.8161   -9.9176    8.8333 C   0  0  0  0  0  0  0  0  0  0  0  0
   16.4332   -9.0681    7.9617 N   0  0  0  0  0  0  0  0  0  0  0  0
   17.6327   -8.5450    8.3106 C   0  0  0  0  0  0  0  0  0  0  0  0
   18.3597   -7.6997    7.5688 N   0  0  0  0  0  0  0  0  0  0  0  0
   19.4614   -7.4562    8.3209 C   0  0  0  0  0  0  0  0  0  0  0  0
   19.4259   -8.1482    9.5340 C   0  0  0  0  0  0  0  0  0  0  0  0
   18.2348   -8.8391    9.4935 C   0  0  0  0  0  0  0  0  0  0  0  0
   18.1433   -7.3373    6.6794 H   0  0  0  0  0  0  0  0  0  0  0  0
 22 23  1  0  0  0
 24 23  1  0  0  0
 24 25  1  0  0  0
 25 26  1  0  0  0
 26 27  1  0  0  0
 27 28  1  0  0  0
 27 29  1  0  0  0
 29 30  2  0  0  0
 30 31  1  0  0  0
 31 32  2  0  0  0
 32 33  1  0  0  0
 33 34  1  0  0  0
 34 35  1  0  0  0
 35 36  2  0  0  0
 36 37  1  0  0  0
 23  1  1  0  0  0
  1  2  2  0  0  0
  2  3  1  0  0  0
  3  4  2  0  0  0
  4  5  1  0  0  0
  5  6  2  0  0  0
  6  7  1  0  0  0
  4  8  1  0  0  0
  8  9  2  0  0  0
  8 10  1  0  0  0
 10 12  1  0  0  0
 12 13  1  0  0  0
 13 14  1  0  0  0
 13 16  1  0  0  0
 16 17  2  0  0  0
 17 18  1  0  0  0
 18 19  2  0  0  0
 19 20  1  0  0  0
 20 21  2  0  0  0
 28 24  1  0  0  0
 37 29  1  0  0  0
  6  1  1  0  0  0
 21 16  1  0  0  0
 37 33  2  0  0  0
 34 38  1  0  0  0
 10 11  1  0  0  0
 14 15  1  0  0  0
M  END
>  <minimizedAffinity>
-7.06423

>  <minimizedRMSD>
1.62226

$$$$
CHEMBL2235547 PubChem-25108448


 30 33  0  0  0  0  0  0  0  0999 V2000
   18.1583  -11.9810   15.7571 S   0  0  0  0  0  0  0  0  0  0  0  0
   18.0104  -11.1625   14.1741 C   0  0  0  0  0  0  0  0  0  0  0  0
   18.9011  -11.2896   13.1731 N   0  0  0  0  0  0  0  0  0  0  0  0
   18.4475  -10.5412   12.1796 N   0  0  0  0  0  0  0  0  0  0  0  0
   17.3020   -9.9881   12.6194 C   0  0  0  0  0  0  0  0  0  0  0  0
   17.0229  -10.3678   13.8422 O   0  0  0  0  0  0  0  0  0  0  0  0
   16.4428   -9.0876   11.8016 C   0  0  0  0  0  0  0  0  0  0  0  0
   16.5715   -9.4257   10.3927 N   0  0  0  0  0  0  0  0  0  0  0  0
   15.8925  -10.3890    9.7783 N   0  0  0  0  0  0  0  0  0  0  0  0
   16.2701  -10.4984    8.5044 N   0  0  0  0  0  0  0  0  0  0  0  0
   17.2282   -9.5696    8.3271 C   0  0  0  0  0  0  0  0  0  0  0  0
   17.9609   -9.2801    7.1805 C   0  0  0  0  0  0  0  0  0  0  0  0
   18.9247   -8.2566    7.2795 C   0  0  0  0  0  0  0  0  0  0  0  0
   19.1254   -7.5678    8.5002 C   0  0  0  0  0  0  0  0  0  0  0  0
   18.3646   -7.8909    9.6410 C   0  0  0  0  0  0  0  0  0  0  0  0
   17.4211   -8.9051    9.4982 C   0  0  0  0  0  0  0  0  0  0  0  0
   16.9409  -10.8844   16.5409 C   0  0  0  0  0  0  0  0  0  0  0  0
   17.3967   -9.4422   16.4261 C   0  0  0  0  0  0  0  0  0  0  0  0
   15.8973   -8.5047   18.2224 N   0  0  0  0  0  0  0  0  0  0  0  0
   16.2986   -8.5321   16.8464 C   0  0  0  0  0  0  0  0  0  0  0  0
   15.7203   -7.8217   15.9818 O   0  0  0  0  0  0  0  0  0  0  0  0
   16.3862   -9.0988   18.8366 H   0  0  0  0  0  0  0  0  0  0  0  0
   12.8572   -6.1274   19.9951 C   0  0  0  0  0  0  0  0  0  0  0  0
   13.9518   -6.5700   20.7441 C   0  0  0  0  0  0  0  0  0  0  0  0
   14.9455   -7.3521   20.1481 C   0  0  0  0  0  0  0  0  0  0  0  0
   14.8573   -7.7014   18.7967 C   0  0  0  0  0  0  0  0  0  0  0  0
   13.7596   -7.2580   18.0442 C   0  0  0  0  0  0  0  0  0  0  0  0
   12.7655   -6.4762   18.6384 C   0  0  0  0  0  0  0  0  0  0  0  0
   10.6004   -5.1166   20.0476 C   0  0  0  0  0  0  0  0  0  0  0  0
   11.8805   -5.3470   20.6198 O   0  0  0  0  0  0  0  0  0  0  0  0
 29 30  1  0  0  0
 30 23  1  0  0  0
 23 24  2  0  0  0
 24 25  1  0  0  0
 25 26  2  0  0  0
 26 19  1  0  0  0
 26 27  1  0  0  0
 19 20  1  0  0  0
 20 21  2  0  0  0
 20 18  1  0  0  0
 18 17  1  0  0  0
 17  1  1  0  0  0
  1  2  1  0  0  0
  2  3  2  0  0  0
  3  4  1  0  0  0
  4  5  2  0  0  0
  5  7  1  0  0  0
  5  6  1  0  0  0
  7  8  1  0  0  0
  8  9  1  0  0  0
  9 10  2  0  0  0
 10 11  1  0  0  0
 11 12  2  0  0  0
 12 13  1  0  0  0
 13 14  2  0  0  0
 14 15  1  0  0  0
 15 16  2  0  0  0
 16  8  1  0  0  0
 16 11  1  0  0  0
  6  2  1  0  0  0
 27 28  2  0  0  0
 28 23  1  0  0  0
 19 22  1  0  0  0
M  END
>  <minimizedAffinity>
-8.68550

>  <minimizedRMSD>
1.62243

$$$$
CHEMBL5090592


 38 43  0  0  0  0  0  0  0  0999 V2000
   17.9702   -8.7906    7.4457 C   0  0  0  0  0  0  0  0  0  0  0  0
   19.0778   -8.2111    7.9259 N   0  0  0  0  0  0  0  0  0  0  0  0
   19.7860   -7.7518    6.9145 N   0  0  0  0  0  0  0  0  0  0  0  0
   19.0577   -8.0801    5.8166 C   0  0  0  0  0  0  0  0  0  0  0  0
   17.9017   -8.7391    6.1046 N   0  0  0  0  0  0  0  0  0  0  0  0
   19.3668   -8.1484    9.2623 C   0  0  0  0  0  0  0  0  0  0  0  0
   18.4851   -8.7019   10.1564 N   0  0  0  0  0  0  0  0  0  0  0  0
   17.3556   -9.2886    9.6622 C   0  0  0  0  0  0  0  0  0  0  0  0
   16.3784   -9.8926   10.3462 N   0  0  0  0  0  0  0  0  0  0  0  0
   15.4800  -10.3490    9.4779 N   0  0  0  0  0  0  0  0  0  0  0  0
   15.8733  -10.0285    8.2133 C   0  0  0  0  0  0  0  0  0  0  0  0
   17.0717   -9.3521    8.3325 C   0  0  0  0  0  0  0  0  0  0  0  0
   20.5608   -7.5247    9.7227 N   0  0  0  0  0  0  0  0  0  0  0  0
   21.1901   -7.1291    9.0771 H   0  0  0  0  0  0  0  0  0  0  0  0
   20.7573   -7.4889   10.6868 H   0  0  0  0  0  0  0  0  0  0  0  0
   19.4737   -7.7586    4.4486 C   0  0  0  0  0  0  0  0  0  0  0  0
   18.6530   -7.7048    3.4312 O   0  0  0  0  0  0  0  0  0  0  0  0
   19.3323   -7.3940    2.3537 C   0  0  0  0  0  0  0  0  0  0  0  0
   20.6664   -7.2375    2.6900 C   0  0  0  0  0  0  0  0  0  0  0  0
   20.7622   -7.4736    4.0504 C   0  0  0  0  0  0  0  0  0  0  0  0
   16.3141  -10.0986   11.7852 C   0  0  0  0  0  0  0  0  0  0  0  0
   17.2813  -11.1958   12.2059 C   0  0  0  0  0  0  0  0  0  0  0  0
   18.5146  -10.6141   12.7340 N   0  0  0  0  0  0  0  0  0  0  0  0
   19.2751  -11.6162   13.4906 C   0  0  0  0  0  0  0  0  0  0  0  0
   18.5107  -12.1614   14.7052 C   0  0  0  0  0  0  0  0  0  0  0  0
   17.7782  -11.0879   15.4501 C   0  0  0  0  0  0  0  0  0  0  0  0
   17.6013   -9.8075   14.8966 C   0  0  0  0  0  0  0  0  0  0  0  0
   18.2140   -9.4454   13.5722 C   0  0  0  0  0  0  0  0  0  0  0  0
   16.8916   -8.8351   15.6069 C   0  0  0  0  0  0  0  0  0  0  0  0
   16.3316   -9.1324   16.8575 C   0  0  0  0  0  0  0  0  0  0  0  0
   16.4947  -10.4173   17.3929 C   0  0  0  0  0  0  0  0  0  0  0  0
   17.2117  -11.3901   16.6914 C   0  0  0  0  0  0  0  0  0  0  0  0
   15.5798   -8.1059   17.6003 C   0  0  0  0  0  0  0  0  0  0  0  0
   14.7964   -7.3289   16.9895 O   0  0  0  0  0  0  0  0  0  0  0  0
   15.7340   -7.9853   19.0148 N   0  0  0  0  0  0  0  0  0  0  0  0
   15.0504   -7.0476   19.7113 O   0  0  0  0  0  0  0  0  0  0  0  0
   16.3461   -8.5927   19.4900 H   0  0  0  0  0  0  0  0  0  0  0  0
   14.4954   -6.5342   19.1036 H   0  0  0  0  0  0  0  0  0  0  0  0
  1  2  1  0  0  0
  2  3  1  0  0  0
  3  4  2  0  0  0
  4  5  1  0  0  0
  4 16  1  0  0  0
 16 17  1  0  0  0
 17 18  1  0  0  0
 18 19  2  0  0  0
 19 20  1  0  0  0
  2  6  1  0  0  0
  6  7  2  0  0  0
  7  8  1  0  0  0
  8  9  1  0  0  0
  9 10  1  0  0  0
 10 11  2  0  0  0
 11 12  1  0  0  0
  9 21  1  0  0  0
 21 22  1  0  0  0
 22 23  1  0  0  0
 23 24  1  0  0  0
 24 25  1  0  0  0
 25 26  1  0  0  0
 26 27  2  0  0  0
 27 28  1  0  0  0
 27 29  1  0  0  0
 29 30  2  0  0  0
 30 31  1  0  0  0
 31 32  2  0  0  0
 30 33  1  0  0  0
 33 34  2  0  0  0
 33 35  1  0  0  0
 35 36  1  0  0  0
  6 13  1  0  0  0
 12  1  1  0  0  0
 28 23  1  0  0  0
  5  1  2  0  0  0
 20 16  2  0  0  0
 12  8  2  0  0  0
 32 26  1  0  0  0
 35 37  1  0  0  0
 36 38  1  0  0  0
 13 14  1  0  0  0
 13 15  1  0  0  0
M  END
>  <minimizedAffinity>
-6.67022

>  <minimizedRMSD>
1.62250

$$$$
CHEMBL4463780 CHEMBL4597935 PubChem-155530025 PubChem-155530026


 35 38  0  0  0  0  0  0  0  0999 V2000
   16.0312   -9.6176   15.6467 C   0  0  0  0  0  0  0  0  0  0  0  0
   17.1598  -10.3147   14.9116 C   0  0  0  0  0  0  0  0  0  0  0  0
   18.2518  -10.1926   12.6398 C   0  0  0  0  0  0  0  0  0  0  0  0
   18.8102  -11.3055   12.8481 O   0  0  0  0  0  0  0  0  0  0  0  0
   17.4016   -9.6405   13.6477 N   0  0  0  0  0  0  0  0  0  0  0  0
   16.9651   -8.7742   13.4796 H   0  0  0  0  0  0  0  0  0  0  0  0
   19.6873   -8.7648   11.2199 C   0  0  0  0  0  0  0  0  0  0  0  0
   19.9957   -8.0732   10.0495 C   0  0  0  0  0  0  0  0  0  0  0  0
   19.1109   -8.0837    8.9742 C   0  0  0  0  0  0  0  0  0  0  0  0
   17.9059   -8.7901    9.0664 C   0  0  0  0  0  0  0  0  0  0  0  0
   17.5839   -9.4971   10.2547 C   0  0  0  0  0  0  0  0  0  0  0  0
   18.4896   -9.4855   11.3503 C   0  0  0  0  0  0  0  0  0  0  0  0
   16.3634  -10.1854   10.2954 C   0  0  0  0  0  0  0  0  0  0  0  0
   15.4998  -10.1735    9.2012 C   0  0  0  0  0  0  0  0  0  0  0  0
   15.8608   -9.4659    8.0566 C   0  0  0  0  0  0  0  0  0  0  0  0
   17.0423   -8.7966    8.0133 N   0  0  0  0  0  0  0  0  0  0  0  0
   19.4355   -7.3885    7.8152 O   0  0  0  0  0  0  0  0  0  0  0  0
   20.2442   -6.9183    7.7619 H   0  0  0  0  0  0  0  0  0  0  0  0
   16.4931   -9.1798   17.0308 C   0  0  0  0  0  0  0  0  0  0  0  0
   15.5920   -8.1623   17.6655 C   0  0  0  0  0  0  0  0  0  0  0  0
   14.8940   -7.3869   16.9560 O   0  0  0  0  0  0  0  0  0  0  0  0
   15.5372   -8.0981   19.0962 N   0  0  0  0  0  0  0  0  0  0  0  0
   16.0990   -8.7400   19.5877 H   0  0  0  0  0  0  0  0  0  0  0  0
   14.7500   -7.1971   19.8871 C   0  0  0  0  0  0  0  0  0  0  0  0
   13.5072   -6.7153   19.4495 C   0  0  0  0  0  0  0  0  0  0  0  0
   12.7678   -5.8386   20.2477 C   0  0  0  0  0  0  0  0  0  0  0  0
   13.2565   -5.4419   21.4999 C   0  0  0  0  0  0  0  0  0  0  0  0
   14.5079   -5.9054   21.9278 C   0  0  0  0  0  0  0  0  0  0  0  0
   15.2457   -6.7824   21.1275 C   0  0  0  0  0  0  0  0  0  0  0  0
   12.4887   -4.4623   22.3349 C   0  0  0  0  0  0  0  0  0  0  0  0
   11.8255   -5.1716   23.5049 C   0  0  0  0  0  0  0  0  0  0  0  0
   11.0028   -4.7757   22.3005 C   0  0  0  0  0  0  0  0  0  0  0  0
   11.6026   -4.2158   24.5736 N   0  0  0  0  0  0  0  0  0  0  0  0
   11.4248   -3.2943   24.1740 H   0  0  0  0  0  0  0  0  0  0  0  0
   12.4290   -4.1739   25.1702 H   0  0  0  0  0  0  0  0  0  0  0  0
  7  8  2  0  0  0
  8  9  1  0  0  0
  9 10  2  0  0  0
 10 11  1  0  0  0
 11 12  2  0  0  0
 12  3  1  0  0  0
  3  4  2  0  0  0
  3  5  1  0  0  0
  5  2  1  0  0  0
  2  1  1  0  0  0
  1 19  1  0  0  0
 19 20  1  0  0  0
 20 21  2  0  0  0
 20 22  1  0  0  0
 22 24  1  0  0  0
 24 25  2  0  0  0
 25 26  1  0  0  0
 26 27  2  0  0  0
 27 28  1  0  0  0
 28 29  2  0  0  0
 27 30  1  0  0  0
 30 31  1  0  0  0
 31 32  1  0  0  0
 31 33  1  0  0  0
 11 13  1  0  0  0
 13 14  2  0  0  0
 14 15  1  0  0  0
 15 16  2  0  0  0
  9 17  1  0  0  0
 12  7  1  0  0  0
 29 24  1  0  0  0
 32 30  1  0  0  0
 16 10  1  0  0  0
  5  6  1  0  0  0
 22 23  1  0  0  0
 33 34  1  0  0  0
 33 35  1  0  0  0
 17 18  1  0  0  0
M  END
>  <minimizedAffinity>
-6.82960

>  <minimizedRMSD>
1.62313

$$$$
CHEMBL4471370 PubChem-155535246


 35 39  0  0  0  0  0  0  0  0999 V2000
   17.9525   -9.8461   14.2310 C   0  0  0  0  0  0  0  0  0  0  0  0
   17.1731   -8.9500   14.9784 C   0  0  0  0  0  0  0  0  0  0  0  0
   16.6254   -9.3249   16.2126 C   0  0  0  0  0  0  0  0  0  0  0  0
   16.8633  -10.6151   16.7017 C   0  0  0  0  0  0  0  0  0  0  0  0
   17.6370  -11.5160   15.9674 C   0  0  0  0  0  0  0  0  0  0  0  0
   18.1815  -11.1383   14.7368 C   0  0  0  0  0  0  0  0  0  0  0  0
   19.0021  -12.1269   13.9811 C   0  0  0  0  0  0  0  0  0  0  0  0
   17.8337   -9.3898   11.7038 C   0  0  0  0  0  0  0  0  0  0  0  0
   16.6047   -9.6552   11.6180 O   0  0  0  0  0  0  0  0  0  0  0  0
   18.5167   -9.4690   12.9645 N   0  0  0  0  0  0  0  0  0  0  0  0
   19.4742   -9.2403   12.9607 H   0  0  0  0  0  0  0  0  0  0  0  0
   20.0919   -9.0584   10.5303 C   0  0  0  0  0  0  0  0  0  0  0  0
   18.5787   -8.9768   10.4699 C   0  0  0  0  0  0  0  0  0  0  0  0
   19.3954   -7.7082   10.6038 C   0  0  0  0  0  0  0  0  0  0  0  0
   17.9847   -9.2351    9.1175 C   0  0  0  0  0  0  0  0  0  0  0  0
   16.9454  -10.1114    8.9787 N   0  0  0  0  0  0  0  0  0  0  0  0
   16.3645  -10.3435    7.7600 C   0  0  0  0  0  0  0  0  0  0  0  0
   16.8094   -9.6915    6.6453 N   0  0  0  0  0  0  0  0  0  0  0  0
   17.8331   -8.8137    6.7773 C   0  0  0  0  0  0  0  0  0  0  0  0
   18.4240   -8.5689    7.9739 C   0  0  0  0  0  0  0  0  0  0  0  0
   19.4093   -7.6288    7.7752 C   0  0  0  0  0  0  0  0  0  0  0  0
   19.3428   -7.3606    6.4044 C   0  0  0  0  0  0  0  0  0  0  0  0
   18.3747   -8.0877    5.7911 N   0  0  0  0  0  0  0  0  0  0  0  0
   18.1270   -8.0824    4.8383 H   0  0  0  0  0  0  0  0  0  0  0  0
   15.8090   -8.3728   16.9861 C   0  0  0  0  0  0  0  0  0  0  0  0
   15.1651   -7.4698   16.3854 O   0  0  0  0  0  0  0  0  0  0  0  0
   15.7537   -8.4817   18.4168 N   0  0  0  0  0  0  0  0  0  0  0  0
   16.2791   -9.2081   18.8237 H   0  0  0  0  0  0  0  0  0  0  0  0
   15.0140   -7.6442   19.3158 C   0  0  0  0  0  0  0  0  0  0  0  0
   15.5758   -7.3293   20.5582 C   0  0  0  0  0  0  0  0  0  0  0  0
   14.8854   -6.5157   21.4619 C   0  0  0  0  0  0  0  0  0  0  0  0
   13.6260   -6.0113   21.1268 C   0  0  0  0  0  0  0  0  0  0  0  0
   13.0574   -6.3206   19.8885 C   0  0  0  0  0  0  0  0  0  0  0  0
   13.7487   -7.1341   18.9861 C   0  0  0  0  0  0  0  0  0  0  0  0
   11.8368   -5.8324   19.5624 F   0  0  0  0  0  0  0  0  0  0  0  0
 12 13  1  0  0  0
 13 14  1  0  0  0
 13 15  1  0  0  0
 15 16  2  0  0  0
 16 17  1  0  0  0
 17 18  2  0  0  0
 18 19  1  0  0  0
 19 20  2  0  0  0
 20 21  1  0  0  0
 21 22  2  0  0  0
 22 23  1  0  0  0
 13  8  1  0  0  0
  8  9  2  0  0  0
  8 10  1  0  0  0
 10  1  1  0  0  0
  1  2  2  0  0  0
  2  3  1  0  0  0
  3  4  2  0  0  0
  4  5  1  0  0  0
  5  6  2  0  0  0
  6  7  1  0  0  0
  3 25  1  0  0  0
 25 26  2  0  0  0
 25 27  1  0  0  0
 27 29  1  0  0  0
 29 30  2  0  0  0
 30 31  1  0  0  0
 31 32  2  0  0  0
 32 33  1  0  0  0
 33 34  2  0  0  0
 33 35  1  0  0  0
 14 12  1  0  0  0
 20 15  1  0  0  0
  6  1  1  0  0  0
 34 29  1  0  0  0
 23 19  1  0  0  0
 23 24  1  0  0  0
 10 11  1  0  0  0
 27 28  1  0  0  0
M  END
>  <minimizedAffinity>
-6.32278

>  <minimizedRMSD>
1.62444

$$$$
CHEMBL4067604 PubChem-72545687


 27 28  0  0  0  0  0  0  0  0999 V2000
   18.1111   -9.6614   12.4461 N   0  0  0  0  0  0  0  0  0  0  0  0
   18.6202   -8.8241   12.5408 H   0  0  0  0  0  0  0  0  0  0  0  0
   18.0091   -8.2926    7.4357 C   0  0  0  0  0  0  0  0  0  0  0  0
   16.7965   -8.9202    7.7290 C   0  0  0  0  0  0  0  0  0  0  0  0
   16.5466   -9.3968    9.0193 C   0  0  0  0  0  0  0  0  0  0  0  0
   17.5195   -9.2475   10.0355 C   0  0  0  0  0  0  0  0  0  0  0  0
   18.7315   -8.6141    9.7230 C   0  0  0  0  0  0  0  0  0  0  0  0
   18.9757   -8.1395    8.4317 C   0  0  0  0  0  0  0  0  0  0  0  0
   20.2100   -7.4999    8.1318 N   0  0  0  0  0  0  0  0  0  0  0  0
   17.2162   -9.7475   11.3248 C   0  0  0  0  0  0  0  0  0  0  0  0
   16.0110  -10.3435   11.5286 N   0  0  0  0  0  0  0  0  0  0  0  0
   15.0951  -10.4738   10.5353 C   0  0  0  0  0  0  0  0  0  0  0  0
   15.3648  -10.0032    9.2926 N   0  0  0  0  0  0  0  0  0  0  0  0
   20.8917   -7.3918    8.8338 H   0  0  0  0  0  0  0  0  0  0  0  0
   20.3827   -7.1653    7.2222 H   0  0  0  0  0  0  0  0  0  0  0  0
   18.3431  -10.6833   13.4563 C   0  0  0  0  0  0  0  0  0  0  0  0
   17.4356  -10.4523   14.6535 C   0  0  0  0  0  0  0  0  0  0  0  0
   17.7903   -9.1571   15.3737 C   0  0  0  0  0  0  0  0  0  0  0  0
   16.7490   -8.0718   15.1282 C   0  0  0  0  0  0  0  0  0  0  0  0
   15.5231   -8.2678   16.0119 C   0  0  0  0  0  0  0  0  0  0  0  0
   15.9207   -8.4935   17.4680 C   0  0  0  0  0  0  0  0  0  0  0  0
   15.0719   -7.7307   18.4410 C   0  0  0  0  0  0  0  0  0  0  0  0
   14.1334   -6.9864   18.0450 O   0  0  0  0  0  0  0  0  0  0  0  0
   15.3344   -7.8621   19.8357 N   0  0  0  0  0  0  0  0  0  0  0  0
   14.5914   -7.1939   20.7485 O   0  0  0  0  0  0  0  0  0  0  0  0
   16.0660   -8.4467   20.1392 H   0  0  0  0  0  0  0  0  0  0  0  0
   13.9172   -6.6659   20.2928 H   0  0  0  0  0  0  0  0  0  0  0  0
  3  4  2  0  0  0
  4  5  1  0  0  0
  5  6  2  0  0  0
  6  7  1  0  0  0
  6 10  1  0  0  0
  7  8  2  0  0  0
  8  9  1  0  0  0
  8  3  1  0  0  0
 10 11  2  0  0  0
 10  1  1  0  0  0
 11 12  1  0  0  0
 12 13  2  0  0  0
 13  5  1  0  0  0
  1 16  1  0  0  0
 16 17  1  0  0  0
 17 18  1  0  0  0
 18 19  1  0  0  0
 19 20  1  0  0  0
 20 21  1  0  0  0
 21 22  1  0  0  0
 22 23  2  0  0  0
 22 24  1  0  0  0
 24 25  1  0  0  0
  9 14  1  0  0  0
  9 15  1  0  0  0
  1  2  1  0  0  0
 24 26  1  0  0  0
 25 27  1  0  0  0
M  END
>  <minimizedAffinity>
-6.71424

>  <minimizedRMSD>
1.62479

$$$$
CHEMBL3621284 PubChem-78323553


 26 27  0  0  0  0  0  0  0  0999 V2000
   16.5285   -9.5587   11.4138 C   0  0  0  0  0  0  0  0  0  0  0  0
   18.3451   -8.4828    7.0501 C   0  0  0  0  0  0  0  0  0  0  0  0
   19.1978   -7.5193    7.5164 N   0  0  0  0  0  0  0  0  0  0  0  0
   19.2529   -7.1999    8.8503 C   0  0  0  0  0  0  0  0  0  0  0  0
   18.4498   -7.8418    9.7522 N   0  0  0  0  0  0  0  0  0  0  0  0
   17.6064   -8.7922    9.2814 C   0  0  0  0  0  0  0  0  0  0  0  0
   17.5350   -9.1259    7.9753 C   0  0  0  0  0  0  0  0  0  0  0  0
   16.6312  -10.1066    7.7890 N   0  0  0  0  0  0  0  0  0  0  0  0
   16.1651  -10.3444    9.0486 C   0  0  0  0  0  0  0  0  0  0  0  0
   16.7462   -9.5421    9.9757 N   0  0  0  0  0  0  0  0  0  0  0  0
   19.1843   -8.2179    4.6887 C   0  0  0  0  0  0  0  0  0  0  0  0
   18.2902   -8.8194    5.6632 N   0  0  0  0  0  0  0  0  0  0  0  0
   17.6262   -9.4792    5.3581 H   0  0  0  0  0  0  0  0  0  0  0  0
   17.6879  -10.1940   12.1001 C   0  0  0  0  0  0  0  0  0  0  0  0
   18.8587   -9.9419   11.7088 O   0  0  0  0  0  0  0  0  0  0  0  0
   17.4589  -11.1147   13.1686 N   0  0  0  0  0  0  0  0  0  0  0  0
   16.5307  -11.3129   13.4302 H   0  0  0  0  0  0  0  0  0  0  0  0
   18.5426  -11.7723   13.8868 C   0  0  0  0  0  0  0  0  0  0  0  0
   18.8576  -11.0316   15.1764 C   0  0  0  0  0  0  0  0  0  0  0  0
   17.7746  -11.2883   16.2099 C   0  0  0  0  0  0  0  0  0  0  0  0
   16.8397  -10.1310   16.2750 C   0  0  0  0  0  0  0  0  0  0  0  0
   15.9326  -10.0022   15.4098 O   0  0  0  0  0  0  0  0  0  0  0  0
   16.9674   -9.1814   17.3302 N   0  0  0  0  0  0  0  0  0  0  0  0
   16.1277   -8.1237   17.4177 O   0  0  0  0  0  0  0  0  0  0  0  0
   17.6757   -9.2964   18.0043 H   0  0  0  0  0  0  0  0  0  0  0  0
   15.4925   -8.1537   16.6852 H   0  0  0  0  0  0  0  0  0  0  0  0
 11 12  1  0  0  0
 12  2  1  0  0  0
  2  3  2  0  0  0
  3  4  1  0  0  0
  4  5  2  0  0  0
  5  6  1  0  0  0
  6  7  2  0  0  0
  7  8  1  0  0  0
  8  9  2  0  0  0
  9 10  1  0  0  0
 10  1  1  0  0  0
  1 14  1  0  0  0
 14 15  2  0  0  0
 14 16  1  0  0  0
 16 18  1  0  0  0
 18 19  1  0  0  0
 19 20  1  0  0  0
 20 21  1  0  0  0
 21 22  2  0  0  0
 21 23  1  0  0  0
 23 24  1  0  0  0
  7  2  1  0  0  0
 10  6  1  0  0  0
 12 13  1  0  0  0
 16 17  1  0  0  0
 23 25  1  0  0  0
 24 26  1  0  0  0
M  END
>  <minimizedAffinity>
-7.20023

>  <minimizedRMSD>
1.62820

$$$$
CHEMBL1352466 5205499 LN00731306 MCULE-5468639536 MolPort-000-489-626 PubChem-4976030 ZINC000005205499 ZINC05205499


 28 30  0  0  0  0  0  0  0  0999 V2000
   16.3672   -9.9771   14.5928 C   0  0  0  0  0  0  0  0  0  0  0  0
   16.1682   -8.5434   15.0671 C   0  0  0  0  0  0  0  0  0  0  0  0
   15.0223   -7.5425   17.0811 N   0  0  0  0  0  0  0  0  0  0  0  0
   15.9441   -8.4977   16.5398 C   0  0  0  0  0  0  0  0  0  0  0  0
   16.5515   -9.3140   17.2822 O   0  0  0  0  0  0  0  0  0  0  0  0
   14.5821   -6.9406   16.4382 H   0  0  0  0  0  0  0  0  0  0  0  0
   13.9218   -7.0077   21.1479 C   0  0  0  0  0  0  0  0  0  0  0  0
   15.1570   -7.5958   20.8327 C   0  0  0  0  0  0  0  0  0  0  0  0
   15.5299   -7.7768   19.4983 C   0  0  0  0  0  0  0  0  0  0  0  0
   14.6748   -7.3729   18.4621 C   0  0  0  0  0  0  0  0  0  0  0  0
   13.4451   -6.7874   18.7796 C   0  0  0  0  0  0  0  0  0  0  0  0
   13.0704   -6.6056   20.1142 C   0  0  0  0  0  0  0  0  0  0  0  0
   14.3034   -6.0964   23.4155 C   0  0  0  0  0  0  0  0  0  0  0  0
   13.5186   -6.8124   22.4717 O   0  0  0  0  0  0  0  0  0  0  0  0
   17.3179  -10.0457   13.4028 C   0  0  0  0  0  0  0  0  0  0  0  0
   16.7375   -9.3379   12.1886 C   0  0  0  0  0  0  0  0  0  0  0  0
   16.4416  -10.3391   11.0820 C   0  0  0  0  0  0  0  0  0  0  0  0
   16.9178   -9.8343    9.7997 N   0  0  0  0  0  0  0  0  0  0  0  0
   16.2402  -10.1706    8.6998 N   0  0  0  0  0  0  0  0  0  0  0  0
   16.6190   -9.7593    7.4898 N   0  0  0  0  0  0  0  0  0  0  0  0
   17.7169   -8.9830    7.3324 C   0  0  0  0  0  0  0  0  0  0  0  0
   18.1039   -8.5564    6.0588 C   0  0  0  0  0  0  0  0  0  0  0  0
   19.2418   -7.7579    5.9069 C   0  0  0  0  0  0  0  0  0  0  0  0
   19.9932   -7.3864    7.0267 C   0  0  0  0  0  0  0  0  0  0  0  0
   19.6086   -7.8121    8.3020 C   0  0  0  0  0  0  0  0  0  0  0  0
   18.4675   -8.6122    8.4600 C   0  0  0  0  0  0  0  0  0  0  0  0
   18.0435   -9.0630    9.7134 C   0  0  0  0  0  0  0  0  0  0  0  0
   18.6963   -8.7631   10.7525 O   0  0  0  0  0  0  0  0  0  0  0  0
 13 14  1  0  0  0
 14  7  1  0  0  0
  7  8  2  0  0  0
  8  9  1  0  0  0
  9 10  2  0  0  0
 10  3  1  0  0  0
 10 11  1  0  0  0
  3  4  1  0  0  0
  4  5  2  0  0  0
  4  2  1  0  0  0
  2  1  1  0  0  0
  1 15  1  0  0  0
 15 16  1  0  0  0
 16 17  1  0  0  0
 17 18  1  0  0  0
 18 19  1  0  0  0
 19 20  2  0  0  0
 20 21  1  0  0  0
 21 22  2  0  0  0
 22 23  1  0  0  0
 23 24  2  0  0  0
 24 25  1  0  0  0
 25 26  2  0  0  0
 26 27  1  0  0  0
 26 21  1  0  0  0
 27 28  2  0  0  0
 27 18  1  0  0  0
 11 12  2  0  0  0
 12  7  1  0  0  0
  3  6  1  0  0  0
M  END
>  <minimizedAffinity>
-8.34209

>  <minimizedRMSD>
1.62927

$$$$
CHEMBL2139784 PubChem-49790203


 27 29  0  0  0  0  0  0  0  0999 V2000
   17.2973  -10.2397   15.4029 C   0  0  0  0  0  0  0  0  0  0  0  0
   16.7561  -11.6236   15.0604 C   0  0  0  0  0  0  0  0  0  0  0  0
   18.8271  -10.2253   15.2618 C   0  0  0  0  0  0  0  0  0  0  0  0
   19.2795  -10.4084   13.8118 C   0  0  0  0  0  0  0  0  0  0  0  0
   18.6498   -9.3387   12.9299 C   0  0  0  0  0  0  0  0  0  0  0  0
   17.1995   -9.3688   13.0923 N   0  0  0  0  0  0  0  0  0  0  0  0
   16.3048   -9.6610   12.0018 C   0  0  0  0  0  0  0  0  0  0  0  0
   15.1204  -10.0130   12.2591 O   0  0  0  0  0  0  0  0  0  0  0  0
   16.6713   -9.2101   14.4464 C   0  0  0  0  0  0  0  0  0  0  0  0
   16.7215   -9.5561   10.5839 C   0  0  0  0  0  0  0  0  0  0  0  0
   16.0982  -10.3479    9.6077 C   0  0  0  0  0  0  0  0  0  0  0  0
   16.4689  -10.2369    8.3043 N   0  0  0  0  0  0  0  0  0  0  0  0
   17.4362   -9.3631    7.9251 C   0  0  0  0  0  0  0  0  0  0  0  0
   17.8121   -9.2553    6.5835 C   0  0  0  0  0  0  0  0  0  0  0  0
   18.8095   -8.3472    6.2120 C   0  0  0  0  0  0  0  0  0  0  0  0
   19.4296   -7.5478    7.1794 C   0  0  0  0  0  0  0  0  0  0  0  0
   19.0560   -7.6526    8.5237 C   0  0  0  0  0  0  0  0  0  0  0  0
   18.0609   -8.5588    8.8988 C   0  0  0  0  0  0  0  0  0  0  0  0
   17.6853   -8.6742   10.1986 N   0  0  0  0  0  0  0  0  0  0  0  0
   16.2618   -8.6960   17.1363 N   0  0  0  0  0  0  0  0  0  0  0  0
   16.9508   -9.9130   16.8329 C   0  0  0  0  0  0  0  0  0  0  0  0
   17.2107  -10.7319   17.7582 O   0  0  0  0  0  0  0  0  0  0  0  0
   16.0314   -8.0826   16.4016 H   0  0  0  0  0  0  0  0  0  0  0  0
   15.8912   -8.3370   18.4959 C   0  0  0  0  0  0  0  0  0  0  0  0
   14.6098   -7.5246   18.4834 C   0  0  0  0  0  0  0  0  0  0  0  0
   12.5243   -7.6733   19.1863 C   0  0  0  0  0  0  0  0  0  0  0  0
   13.8434   -7.8290   19.6088 O   0  0  0  0  0  0  0  0  0  0  0  0
 26 27  1  0  0  0
 27 25  1  0  0  0
 25 24  1  0  0  0
 24 20  1  0  0  0
 20 21  1  0  0  0
 21 22  2  0  0  0
  1 21  1  0  0  0
  1  2  1  0  0  0
  1  3  1  0  0  0
  3  4  1  0  0  0
  4  5  1  0  0  0
  5  6  1  0  0  0
  6  7  1  0  0  0
  6  9  1  0  0  0
  7  8  2  0  0  0
  7 10  1  0  0  0
 10 11  2  0  0  0
 11 12  1  0  0  0
 12 13  2  0  0  0
 13 14  1  0  0  0
 14 15  2  0  0  0
 15 16  1  0  0  0
 16 17  2  0  0  0
 17 18  1  0  0  0
 18 19  2  0  0  0
 18 13  1  0  0  0
 19 10  1  0  0  0
  9  1  1  0  0  0
 20 23  1  0  0  0
M  END
>  <minimizedAffinity>
-6.59083

>  <minimizedRMSD>
1.63004

$$$$
CHEMBL4943836 67974225 MCULE-8205488556 MolPort-019-823-902 PubChem-56722353 ZINC000067974225 ZINC67974225


 30 33  0  0  0  0  0  0  0  0999 V2000
   16.1321   -8.7580   16.9980 C   0  0  0  0  0  0  0  0  0  0  0  0
   17.0975   -9.2199   17.8768 C   0  0  0  0  0  0  0  0  0  0  0  0
   17.9010  -10.0844   17.2155 N   0  0  0  0  0  0  0  0  0  0  0  0
   17.4067  -10.1202   15.9626 C   0  0  0  0  0  0  0  0  0  0  0  0
   17.9744  -10.9458   14.8556 C   0  0  0  0  0  0  0  0  0  0  0  0
   17.4054  -10.5135   13.5777 N   0  0  0  0  0  0  0  0  0  0  0  0
   15.9732  -10.2074   13.5167 C   0  0  0  0  0  0  0  0  0  0  0  0
   15.6000   -9.1363   14.5477 C   0  0  0  0  0  0  0  0  0  0  0  0
   16.3261   -9.3396   15.8007 N   0  0  0  0  0  0  0  0  0  0  0  0
   18.1383  -10.7502   12.3646 C   0  0  0  0  0  0  0  0  0  0  0  0
   19.1055  -11.5603   12.3678 O   0  0  0  0  0  0  0  0  0  0  0  0
   17.7711  -10.0832   11.0972 C   0  0  0  0  0  0  0  0  0  0  0  0
   16.4987  -10.3127   10.5597 C   0  0  0  0  0  0  0  0  0  0  0  0
   16.1181   -9.7205    9.3977 N   0  0  0  0  0  0  0  0  0  0  0  0
   16.9509   -8.8947    8.7138 C   0  0  0  0  0  0  0  0  0  0  0  0
   16.5216   -8.3026    7.5226 C   0  0  0  0  0  0  0  0  0  0  0  0
   17.3801   -7.4609    6.8099 C   0  0  0  0  0  0  0  0  0  0  0  0
   18.6708   -7.2099    7.2842 C   0  0  0  0  0  0  0  0  0  0  0  0
   19.5000   -6.3949    6.5895 F   0  0  0  0  0  0  0  0  0  0  0  0
   19.1075   -7.7991    8.4743 C   0  0  0  0  0  0  0  0  0  0  0  0
   18.2536   -8.6426    9.1996 C   0  0  0  0  0  0  0  0  0  0  0  0
   18.6671   -9.2497   10.3967 C   0  0  0  0  0  0  0  0  0  0  0  0
   20.0044   -9.0674   10.8644 N   0  0  0  0  0  0  0  0  0  0  0  0
   20.6237   -8.4836   10.3694 H   0  0  0  0  0  0  0  0  0  0  0  0
   20.3068   -9.5254   11.6817 H   0  0  0  0  0  0  0  0  0  0  0  0
   14.9343   -7.3106   18.6616 N   0  0  0  0  0  0  0  0  0  0  0  0
   15.0713   -7.7904   17.3280 C   0  0  0  0  0  0  0  0  0  0  0  0
   14.2784   -7.3802   16.4406 O   0  0  0  0  0  0  0  0  0  0  0  0
   14.2253   -6.6640   18.8818 H   0  0  0  0  0  0  0  0  0  0  0  0
   15.5486   -7.6255   19.3636 H   0  0  0  0  0  0  0  0  0  0  0  0
 26 27  1  0  0  0
 27 28  2  0  0  0
 27  1  1  0  0  0
  1  2  2  0  0  0
  2  3  1  0  0  0
  3  4  2  0  0  0
  4  5  1  0  0  0
  5  6  1  0  0  0
  6  7  1  0  0  0
  6 10  1  0  0  0
  7  8  1  0  0  0
  8  9  1  0  0  0
  9  1  1  0  0  0
  9  4  1  0  0  0
 10 11  2  0  0  0
 10 12  1  0  0  0
 12 13  2  0  0  0
 13 14  1  0  0  0
 14 15  2  0  0  0
 15 16  1  0  0  0
 16 17  2  0  0  0
 17 18  1  0  0  0
 18 19  1  0  0  0
 18 20  2  0  0  0
 20 21  1  0  0  0
 21 22  2  0  0  0
 21 15  1  0  0  0
 22 23  1  0  0  0
 22 12  1  0  0  0
 26 29  1  0  0  0
 26 30  1  0  0  0
 23 24  1  0  0  0
 23 25  1  0  0  0
M  END
>  <minimizedAffinity>
-2.32692

>  <minimizedRMSD>
1.63037

$$$$
CHEMBL4464442 PubChem-129066770


 32 35  0  0  0  0  0  0  0  0999 V2000
   16.6366   -9.8245   14.1051 C   0  0  0  0  0  0  0  0  0  0  0  0
   15.7707   -9.1904   14.9251 N   0  0  0  0  0  0  0  0  0  0  0  0
   16.3671   -8.7602   16.0716 C   0  0  0  0  0  0  0  0  0  0  0  0
   17.7309   -9.0680   16.1577 C   0  0  0  0  0  0  0  0  0  0  0  0
   18.1786   -9.8929   14.7625 S   0  0  0  0  0  0  0  0  0  0  0  0
   18.8443   -8.7076   17.4666 Cl  0  0  0  0  0  0  0  0  0  0  0  0
   15.5882   -8.0421   17.0984 C   0  0  0  0  0  0  0  0  0  0  0  0
   14.6931   -7.2307   16.7362 O   0  0  0  0  0  0  0  0  0  0  0  0
   15.8412   -8.2459   18.4913 N   0  0  0  0  0  0  0  0  0  0  0  0
   16.5769   -8.8454   18.7532 H   0  0  0  0  0  0  0  0  0  0  0  0
   15.0588   -7.6057   19.5388 C   0  0  0  0  0  0  0  0  0  0  0  0
   13.6563   -7.4013   19.0800 C   0  0  0  0  0  0  0  0  0  0  0  0
   12.8178   -8.4653   18.9647 N   0  0  0  0  0  0  0  0  0  0  0  0
   11.5433   -8.3028   18.5233 C   0  0  0  0  0  0  0  0  0  0  0  0
   11.0824   -7.0338   18.1753 C   0  0  0  0  0  0  0  0  0  0  0  0
   11.9594   -5.9562   18.2922 C   0  0  0  0  0  0  0  0  0  0  0  0
   13.2268   -6.1572   18.7388 N   0  0  0  0  0  0  0  0  0  0  0  0
   16.2541  -10.4060   12.7893 C   0  0  0  0  0  0  0  0  0  0  0  0
   15.0586   -9.6636   12.2211 C   0  0  0  0  0  0  0  0  0  0  0  0
   14.8720  -10.0239   10.8247 N   0  0  0  0  0  0  0  0  0  0  0  0
   14.0295  -10.5895   10.7210 H   0  0  0  0  0  0  0  0  0  0  0  0
   16.0377  -10.7888   10.4080 C   0  0  0  0  0  0  0  0  0  0  0  0
   19.4658   -7.1944    7.2005 C   0  0  0  0  0  0  0  0  0  0  0  0
   18.8694   -7.8726    6.1134 C   0  0  0  0  0  0  0  0  0  0  0  0
   17.9296   -8.8957    6.3379 C   0  0  0  0  0  0  0  0  0  0  0  0
   17.6228   -9.2031    7.6612 C   0  0  0  0  0  0  0  0  0  0  0  0
   18.1983   -8.5501    8.7087 C   0  0  0  0  0  0  0  0  0  0  0  0
   19.1295   -7.5314    8.5249 C   0  0  0  0  0  0  0  0  0  0  0  0
   17.7265   -9.0276    9.8687 N   0  0  0  0  0  0  0  0  0  0  0  0
   16.8602   -9.9893    9.4559 C   0  0  0  0  0  0  0  0  0  0  0  0
   16.7591  -10.1257    8.1077 N   0  0  0  0  0  0  0  0  0  0  0  0
   17.9508   -8.7515   10.7867 H   0  0  0  0  0  0  0  0  0  0  0  0
 23 24  2  0  0  0
 24 25  1  0  0  0
 25 26  2  0  0  0
 26 27  1  0  0  0
 27 28  2  0  0  0
 27 29  1  0  0  0
 29 30  1  0  0  0
 30 31  2  0  0  0
 30 22  1  0  0  0
 22 20  1  0  0  0
 20 19  1  0  0  0
 19 18  1  0  0  0
 18  1  1  0  0  0
  1  2  2  0  0  0
  2  3  1  0  0  0
  3  4  2  0  0  0
  4  5  1  0  0  0
  4  6  1  0  0  0
  3  7  1  0  0  0
  7  8  2  0  0  0
  7  9  1  0  0  0
  9 11  1  0  0  0
 11 12  1  0  0  0
 12 13  2  0  0  0
 13 14  1  0  0  0
 14 15  2  0  0  0
 15 16  1  0  0  0
 16 17  2  0  0  0
 28 23  1  0  0  0
 31 26  1  0  0  0
  5  1  1  0  0  0
 17 12  1  0  0  0
 29 32  1  0  0  0
 20 21  1  0  0  0
  9 10  1  0  0  0
M  END
>  <minimizedAffinity>
-6.80545

>  <minimizedRMSD>
1.63049

$$$$
CHEMBL4574441 PubChem-129052538


 32 35  0  0  0  0  0  0  0  0999 V2000
   16.6447   -9.8015   14.1561 C   0  0  0  0  0  0  0  0  0  0  0  0
   15.7642   -9.1766   14.9673 N   0  0  0  0  0  0  0  0  0  0  0  0
   16.3437   -8.7444   16.1219 C   0  0  0  0  0  0  0  0  0  0  0  0
   17.7092   -9.0410   16.2229 C   0  0  0  0  0  0  0  0  0  0  0  0
   18.1801   -9.8580   14.8309 S   0  0  0  0  0  0  0  0  0  0  0  0
   18.8063   -8.6701   17.5433 Cl  0  0  0  0  0  0  0  0  0  0  0  0
   15.5482   -8.0330   17.1405 C   0  0  0  0  0  0  0  0  0  0  0  0
   14.6582   -7.2204   16.7695 O   0  0  0  0  0  0  0  0  0  0  0  0
   15.7803   -8.2440   18.5359 N   0  0  0  0  0  0  0  0  0  0  0  0
   16.5142   -8.8422   18.8056 H   0  0  0  0  0  0  0  0  0  0  0  0
   14.9788   -7.6129   19.5752 C   0  0  0  0  0  0  0  0  0  0  0  0
   13.5705   -7.4535   19.1144 C   0  0  0  0  0  0  0  0  0  0  0  0
   12.7839   -8.5470   18.9301 N   0  0  0  0  0  0  0  0  0  0  0  0
   11.5248   -8.4328   18.5010 N   0  0  0  0  0  0  0  0  0  0  0  0
   10.9779   -7.2189   18.2269 C   0  0  0  0  0  0  0  0  0  0  0  0
   11.7443   -6.0666   18.3951 C   0  0  0  0  0  0  0  0  0  0  0  0
   13.0580   -6.1851   18.8431 C   0  0  0  0  0  0  0  0  0  0  0  0
   16.2836  -10.3811   12.8333 C   0  0  0  0  0  0  0  0  0  0  0  0
   15.0894   -9.6455   12.2524 C   0  0  0  0  0  0  0  0  0  0  0  0
   14.9053  -10.0248   10.8607 N   0  0  0  0  0  0  0  0  0  0  0  0
   14.0716  -10.6047   10.7654 H   0  0  0  0  0  0  0  0  0  0  0  0
   16.0819  -10.7761   10.4507 C   0  0  0  0  0  0  0  0  0  0  0  0
   19.4445   -7.2022    7.1517 C   0  0  0  0  0  0  0  0  0  0  0  0
   18.8409   -7.9009    6.0816 C   0  0  0  0  0  0  0  0  0  0  0  0
   17.9090   -8.9258    6.3319 C   0  0  0  0  0  0  0  0  0  0  0  0
   17.6176   -9.2139    7.6629 C   0  0  0  0  0  0  0  0  0  0  0  0
   18.1995   -8.5409    8.6942 C   0  0  0  0  0  0  0  0  0  0  0  0
   19.1236   -7.5200    8.4849 C   0  0  0  0  0  0  0  0  0  0  0  0
   17.7459   -9.0058    9.8665 N   0  0  0  0  0  0  0  0  0  0  0  0
   16.8831   -9.9805    9.4778 C   0  0  0  0  0  0  0  0  0  0  0  0
   16.7675  -10.1373    8.1328 N   0  0  0  0  0  0  0  0  0  0  0  0
   17.9788   -8.7149   10.7777 H   0  0  0  0  0  0  0  0  0  0  0  0
 23 24  2  0  0  0
 24 25  1  0  0  0
 25 26  2  0  0  0
 26 27  1  0  0  0
 27 28  2  0  0  0
 27 29  1  0  0  0
 29 30  1  0  0  0
 30 31  2  0  0  0
 30 22  1  0  0  0
 22 20  1  0  0  0
 20 19  1  0  0  0
 19 18  1  0  0  0
 18  1  1  0  0  0
  1  2  2  0  0  0
  2  3  1  0  0  0
  3  4  2  0  0  0
  4  5  1  0  0  0
  4  6  1  0  0  0
  3  7  1  0  0  0
  7  8  2  0  0  0
  7  9  1  0  0  0
  9 11  1  0  0  0
 11 12  1  0  0  0
 12 13  2  0  0  0
 13 14  1  0  0  0
 14 15  2  0  0  0
 15 16  1  0  0  0
 16 17  2  0  0  0
 28 23  1  0  0  0
 31 26  1  0  0  0
  5  1  1  0  0  0
 17 12  1  0  0  0
 29 32  1  0  0  0
 20 21  1  0  0  0
  9 10  1  0  0  0
M  END
>  <minimizedAffinity>
-6.57887

>  <minimizedRMSD>
1.63104

$$$$
CHEMBL4095709 ChemDiv-G357-1305 MCULE-6424616040 MolPort-007-847-485 PubChem-46343391 ZINC000021016907


 37 42  0  0  0  0  0  0  0  0999 V2000
   16.9936  -10.2872   15.4617 C   0  0  0  0  0  0  0  0  0  0  0  0
   16.2062   -9.2375   14.9716 C   0  0  0  0  0  0  0  0  0  0  0  0
   15.6322   -8.3160   15.8515 C   0  0  0  0  0  0  0  0  0  0  0  0
   15.8380   -8.4324   17.2341 C   0  0  0  0  0  0  0  0  0  0  0  0
   16.6229   -9.4818   17.7224 C   0  0  0  0  0  0  0  0  0  0  0  0
   17.1985  -10.4033   16.8434 C   0  0  0  0  0  0  0  0  0  0  0  0
   15.2624   -7.5101   18.1690 N   0  0  0  0  0  0  0  0  0  0  0  0
   13.8941   -7.4548   18.6004 C   0  0  0  0  0  0  0  0  0  0  0  0
   13.0446   -8.2439   18.1029 O   0  0  0  0  0  0  0  0  0  0  0  0
   15.8720   -6.8418   18.5576 H   0  0  0  0  0  0  0  0  0  0  0  0
   13.4492   -6.4516   19.6055 C   0  0  0  0  0  0  0  0  0  0  0  0
   12.6124   -5.4152   19.1605 C   0  0  0  0  0  0  0  0  0  0  0  0
   12.1564   -4.4251   20.0308 C   0  0  0  0  0  0  0  0  0  0  0  0
   12.5264   -4.4510   21.3732 C   0  0  0  0  0  0  0  0  0  0  0  0
   13.3498   -5.4691   21.8526 C   0  0  0  0  0  0  0  0  0  0  0  0
   13.7004   -5.4839   23.2057 C   0  0  0  0  0  0  0  0  0  0  0  0
   14.5108   -6.5023   23.7101 C   0  0  0  0  0  0  0  0  0  0  0  0
   14.9722   -7.5113   22.8637 C   0  0  0  0  0  0  0  0  0  0  0  0
   14.6277   -7.5021   21.5100 C   0  0  0  0  0  0  0  0  0  0  0  0
   13.8198   -6.4841   20.9775 C   0  0  0  0  0  0  0  0  0  0  0  0
   17.5944  -11.2561   14.5311 C   0  0  0  0  0  0  0  0  0  0  0  0
   18.0093  -12.3692   14.9578 O   0  0  0  0  0  0  0  0  0  0  0  0
   17.7015  -10.9379   13.1755 O   0  0  0  0  0  0  0  0  0  0  0  0
   18.3274   -9.7433   12.7311 C   0  0  0  0  0  0  0  0  0  0  0  0
   17.5145   -9.1161    8.6418 N   0  0  0  0  0  0  0  0  0  0  0  0
   16.5994   -9.8048    9.3737 C   0  0  0  0  0  0  0  0  0  0  0  0
   15.5385  -10.2321    8.8461 O   0  0  0  0  0  0  0  0  0  0  0  0
   16.8538  -10.0325   10.7304 C   0  0  0  0  0  0  0  0  0  0  0  0
   18.0490   -9.5446   11.2845 C   0  0  0  0  0  0  0  0  0  0  0  0
   18.9322   -8.8497   10.5132 N   0  0  0  0  0  0  0  0  0  0  0  0
   18.6512   -8.6520    9.2021 C   0  0  0  0  0  0  0  0  0  0  0  0
   19.6025   -7.8269    8.0914 S   0  0  0  0  0  0  0  0  0  0  0  0
   18.4560   -8.1339    6.8749 C   0  0  0  0  0  0  0  0  0  0  0  0
   17.3907   -8.8276    7.3485 N   0  0  0  0  0  0  0  0  0  0  0  0
   18.5546   -7.6332    5.4714 C   0  0  0  0  0  0  0  0  0  0  0  0
   19.9994   -7.3045    5.1444 C   0  0  0  0  0  0  0  0  0  0  0  0
   19.3866   -8.5898    4.6371 C   0  0  0  0  0  0  0  0  0  0  0  0
 25 26  1  0  0  0
 26 27  2  0  0  0
 26 28  1  0  0  0
 28 29  2  0  0  0
 29 30  1  0  0  0
 30 31  2  0  0  0
 31 32  1  0  0  0
 32 33  1  0  0  0
 33 35  1  0  0  0
 35 36  1  0  0  0
 36 37  1  0  0  0
 33 34  2  0  0  0
 29 24  1  0  0  0
 24 23  1  0  0  0
 23 21  1  0  0  0
 21 22  2  0  0  0
 21  1  1  0  0  0
  1  2  2  0  0  0
  2  3  1  0  0  0
  3  4  2  0  0  0
  4  5  1  0  0  0
  5  6  2  0  0  0
  4  7  1  0  0  0
  7  8  1  0  0  0
  8  9  2  0  0  0
  8 11  1  0  0  0
 11 12  2  0  0  0
 12 13  1  0  0  0
 13 14  2  0  0  0
 14 15  1  0  0  0
 15 16  2  0  0  0
 16 17  1  0  0  0
 17 18  2  0  0  0
 18 19  1  0  0  0
 19 20  2  0  0  0
 31 25  1  0  0  0
 37 35  1  0  0  0
  6  1  1  0  0  0
 20 11  1  0  0  0
 34 25  1  0  0  0
 20 15  1  0  0  0
  7 10  1  0  0  0
M  END
>  <minimizedAffinity>
-9.45408

>  <minimizedRMSD>
1.63144

$$$$
CHEMBL5092005


 34 39  0  0  0  0  0  0  0  0999 V2000
   12.7742   -6.5275   18.0964 C   0  0  0  0  0  0  0  0  0  0  0  0
   12.5253   -5.9239   19.3423 C   0  0  0  0  0  0  0  0  0  0  0  0
   13.4355   -6.0663   20.4228 C   0  0  0  0  0  0  0  0  0  0  0  0
   14.6096   -6.8331   20.2407 C   0  0  0  0  0  0  0  0  0  0  0  0
   14.8230   -7.4151   18.9950 C   0  0  0  0  0  0  0  0  0  0  0  0
   13.9442   -7.2684   17.9684 C   0  0  0  0  0  0  0  0  0  0  0  0
   14.3820   -7.9253   16.8855 N   0  0  0  0  0  0  0  0  0  0  0  0
   15.5539   -8.4633   17.3197 C   0  0  0  0  0  0  0  0  0  0  0  0
   15.8606   -8.1722   18.6129 N   0  0  0  0  0  0  0  0  0  0  0  0
   16.6472   -8.4485   19.1365 H   0  0  0  0  0  0  0  0  0  0  0  0
   13.1594   -5.4480   21.6935 N   0  0  0  0  0  0  0  0  0  0  0  0
   14.2484   -5.0857   22.6013 C   0  0  0  0  0  0  0  0  0  0  0  0
   13.8205   -5.3513   24.0425 C   0  0  0  0  0  0  0  0  0  0  0  0
   12.5652   -4.6583   24.3243 N   0  0  0  0  0  0  0  0  0  0  0  0
   11.5181   -5.2452   23.4906 C   0  0  0  0  0  0  0  0  0  0  0  0
   11.8135   -4.9740   22.0175 C   0  0  0  0  0  0  0  0  0  0  0  0
   12.2211   -4.9617   25.7010 C   0  0  0  0  0  0  0  0  0  0  0  0
   16.4177   -9.2912   16.4619 C   0  0  0  0  0  0  0  0  0  0  0  0
   16.3547   -9.1693   15.0666 C   0  0  0  0  0  0  0  0  0  0  0  0
   17.1745   -9.9554   14.2515 C   0  0  0  0  0  0  0  0  0  0  0  0
   18.0628  -10.8684   14.8270 C   0  0  0  0  0  0  0  0  0  0  0  0
   18.1313  -10.9955   16.2170 C   0  0  0  0  0  0  0  0  0  0  0  0
   17.3112  -10.2093   17.0320 C   0  0  0  0  0  0  0  0  0  0  0  0
   17.1037   -9.8244   12.8241 C   0  0  0  0  0  0  0  0  0  0  0  0
   17.0441   -9.7126   11.6254 C   0  0  0  0  0  0  0  0  0  0  0  0
   16.9734   -9.5763   10.1961 C   0  0  0  0  0  0  0  0  0  0  0  0
   16.0355  -10.1580    9.3540 C   0  0  0  0  0  0  0  0  0  0  0  0
   16.3084   -9.7855    8.0736 N   0  0  0  0  0  0  0  0  0  0  0  0
   17.3955   -8.9955    8.1827 C   0  0  0  0  0  0  0  0  0  0  0  0
   17.8109   -8.8563    9.4443 N   0  0  0  0  0  0  0  0  0  0  0  0
   18.8632   -8.1259    9.8075 N   0  0  0  0  0  0  0  0  0  0  0  0
   19.5730   -7.4720    8.8441 C   0  0  0  0  0  0  0  0  0  0  0  0
   19.1827   -7.5808    7.4947 C   0  0  0  0  0  0  0  0  0  0  0  0
   18.0677   -8.3597    7.1460 C   0  0  0  0  0  0  0  0  0  0  0  0
  1  2  2  0  0  0
  2  3  1  0  0  0
  3  4  2  0  0  0
  4  5  1  0  0  0
  5  6  2  0  0  0
  6  7  1  0  0  0
  7  8  2  0  0  0
  8  9  1  0  0  0
  8 18  1  0  0  0
 18 19  2  0  0  0
 19 20  1  0  0  0
 20 21  2  0  0  0
 21 22  1  0  0  0
 22 23  2  0  0  0
 20 24  1  0  0  0
 24 25  3  0  0  0
 25 26  1  0  0  0
 26 27  2  0  0  0
 27 28  1  0  0  0
 28 29  2  0  0  0
 29 30  1  0  0  0
 30 31  1  0  0  0
 31 32  2  0  0  0
 32 33  1  0  0  0
 33 34  2  0  0  0
  3 11  1  0  0  0
 11 12  1  0  0  0
 12 13  1  0  0  0
 13 14  1  0  0  0
 14 15  1  0  0  0
 15 16  1  0  0  0
 14 17  1  0  0  0
  6  1  1  0  0  0
 23 18  1  0  0  0
 30 26  1  0  0  0
 16 11  1  0  0  0
  9  5  1  0  0  0
 34 29  1  0  0  0
  9 10  1  0  0  0
M  END
>  <minimizedAffinity>
-12.27961

>  <minimizedRMSD>
1.63345

$$$$
CHEMBL4641517 PubChem-156016417


 30 34  0  0  0  0  0  0  0  0999 V2000
   17.8922   -9.9334   15.0667 C   0  0  0  0  0  0  0  0  0  0  0  0
   17.2505   -9.0551   13.9975 C   0  0  0  0  0  0  0  0  0  0  0  0
   18.2832   -9.9839   13.4044 C   0  0  0  0  0  0  0  0  0  0  0  0
   19.2768   -9.6625   14.4924 C   0  0  0  0  0  0  0  0  0  0  0  0
   17.7518  -11.1644   14.1777 C   0  0  0  0  0  0  0  0  0  0  0  0
   17.5571   -9.9213   16.5626 C   0  0  0  0  0  0  0  0  0  0  0  0
   17.6296  -11.3263   17.1364 C   0  0  0  0  0  0  0  0  0  0  0  0
   16.2256   -9.3029   16.8846 C   0  0  0  0  0  0  0  0  0  0  0  0
   15.2198   -9.5253   16.1566 O   0  0  0  0  0  0  0  0  0  0  0  0
   16.1234   -8.4507   18.0339 N   0  0  0  0  0  0  0  0  0  0  0  0
   16.9471   -8.3140   18.5554 H   0  0  0  0  0  0  0  0  0  0  0  0
   14.9476   -7.7768   18.5033 C   0  0  0  0  0  0  0  0  0  0  0  0
   14.8339   -7.4951   19.8695 C   0  0  0  0  0  0  0  0  0  0  0  0
   13.7026   -6.8400   20.3655 C   0  0  0  0  0  0  0  0  0  0  0  0
   12.6763   -6.4624   19.4956 C   0  0  0  0  0  0  0  0  0  0  0  0
   12.7810   -6.7396   18.1301 C   0  0  0  0  0  0  0  0  0  0  0  0
   13.9127   -7.3946   17.6356 C   0  0  0  0  0  0  0  0  0  0  0  0
   11.5802   -5.8278   19.9758 F   0  0  0  0  0  0  0  0  0  0  0  0
   18.6381  -10.0230   11.9918 N   0  0  0  0  0  0  0  0  0  0  0  0
   19.5835  -10.1549   11.7508 H   0  0  0  0  0  0  0  0  0  0  0  0
   17.6807   -9.8793   10.9359 C   0  0  0  0  0  0  0  0  0  0  0  0
   16.4685  -10.4938   11.0198 N   0  0  0  0  0  0  0  0  0  0  0  0
   15.5432  -10.3730   10.0318 C   0  0  0  0  0  0  0  0  0  0  0  0
   15.8138   -9.6278    8.9288 N   0  0  0  0  0  0  0  0  0  0  0  0
   17.0065   -8.9938    8.7936 C   0  0  0  0  0  0  0  0  0  0  0  0
   17.9814   -9.1055    9.8069 C   0  0  0  0  0  0  0  0  0  0  0  0
   19.2113   -8.4490    9.6628 C   0  0  0  0  0  0  0  0  0  0  0  0
   19.4679   -7.6874    8.5187 C   0  0  0  0  0  0  0  0  0  0  0  0
   18.4991   -7.5785    7.5158 C   0  0  0  0  0  0  0  0  0  0  0  0
   17.2698   -8.2307    7.6525 C   0  0  0  0  0  0  0  0  0  0  0  0
  6  1  1  0  0  0
  1  2  1  0  0  0
  2  3  1  0  0  0
  3 19  1  0  0  0
 19 21  1  0  0  0
 21 22  2  0  0  0
 22 23  1  0  0  0
 23 24  2  0  0  0
 24 25  1  0  0  0
 25 26  2  0  0  0
 26 27  1  0  0  0
 27 28  2  0  0  0
 28 29  1  0  0  0
 29 30  2  0  0  0
  3  4  1  0  0  0
  3  5  1  0  0  0
  6  8  1  0  0  0
  8  9  2  0  0  0
  8 10  1  0  0  0
 10 12  1  0  0  0
 12 13  2  0  0  0
 13 14  1  0  0  0
 14 15  2  0  0  0
 15 16  1  0  0  0
 16 17  2  0  0  0
 15 18  1  0  0  0
  6  7  1  0  0  0
  4  1  1  0  0  0
 17 12  1  0  0  0
  5  1  1  0  0  0
 26 21  1  0  0  0
 30 25  1  0  0  0
 19 20  1  0  0  0
 10 11  1  0  0  0
M  END
>  <minimizedAffinity>
-9.99464

>  <minimizedRMSD>
1.63978

$$$$
CHEMBL1433580 8607692 ChemDiv-G357-1544 MCULE-5529437515 MolPort-007-847-575 PubChem-16027638 ZINC000008607692 ZINC08607692


 32 35  0  0  0  0  0  0  0  0999 V2000
   15.7697   -8.3851   17.1488 C   0  0  0  0  0  0  0  0  0  0  0  0
   16.5242   -9.4437   17.6643 C   0  0  0  0  0  0  0  0  0  0  0  0
   17.1440  -10.3555   16.8051 C   0  0  0  0  0  0  0  0  0  0  0  0
   17.0159  -10.2187   15.4158 C   0  0  0  0  0  0  0  0  0  0  0  0
   16.2603   -9.1587   14.8984 C   0  0  0  0  0  0  0  0  0  0  0  0
   15.6413   -8.2480   15.7588 C   0  0  0  0  0  0  0  0  0  0  0  0
   13.7505   -7.3651   18.3667 C   0  0  0  0  0  0  0  0  0  0  0  0
   12.9220   -8.1300   17.8006 O   0  0  0  0  0  0  0  0  0  0  0  0
   15.1497   -7.4714   18.0637 N   0  0  0  0  0  0  0  0  0  0  0  0
   15.7491   -6.8489   18.5356 H   0  0  0  0  0  0  0  0  0  0  0  0
   13.7445   -6.2793   20.6731 C   0  0  0  0  0  0  0  0  0  0  0  0
   13.2595   -6.3609   19.3440 C   0  0  0  0  0  0  0  0  0  0  0  0
   12.2708   -5.4548   18.9257 C   0  0  0  0  0  0  0  0  0  0  0  0
   11.7667   -4.4866   19.7948 C   0  0  0  0  0  0  0  0  0  0  0  0
   12.2449   -4.4082   21.1011 C   0  0  0  0  0  0  0  0  0  0  0  0
   13.2265   -5.2982   21.5367 C   0  0  0  0  0  0  0  0  0  0  0  0
   15.9618   -6.7325   21.6879 C   0  0  0  0  0  0  0  0  0  0  0  0
   14.7297   -7.1651   21.1264 O   0  0  0  0  0  0  0  0  0  0  0  0
   17.6660  -11.1752   14.5058 C   0  0  0  0  0  0  0  0  0  0  0  0
   18.2034  -12.2207   14.9658 O   0  0  0  0  0  0  0  0  0  0  0  0
   17.6848  -10.9201   13.1327 O   0  0  0  0  0  0  0  0  0  0  0  0
   18.5346   -9.9355   12.5630 C   0  0  0  0  0  0  0  0  0  0  0  0
   18.0776   -9.6219   11.1835 C   0  0  0  0  0  0  0  0  0  0  0  0
   16.8340  -10.0949   10.7357 C   0  0  0  0  0  0  0  0  0  0  0  0
   16.4137   -9.7625    9.4431 C   0  0  0  0  0  0  0  0  0  0  0  0
   15.3036  -10.1767    9.0136 O   0  0  0  0  0  0  0  0  0  0  0  0
   17.2206   -8.9880    8.6675 N   0  0  0  0  0  0  0  0  0  0  0  0
   16.9626   -8.5743    7.3971 C   0  0  0  0  0  0  0  0  0  0  0  0
   17.9698   -7.7798    6.8369 C   0  0  0  0  0  0  0  0  0  0  0  0
   19.2008   -7.6108    7.9919 S   0  0  0  0  0  0  0  0  0  0  0  0
   18.4060   -8.5422    9.1288 C   0  0  0  0  0  0  0  0  0  0  0  0
   18.8484   -8.8418   10.3745 N   0  0  0  0  0  0  0  0  0  0  0  0
 17 18  1  0  0  0
 18 11  1  0  0  0
 11 12  2  0  0  0
 12 13  1  0  0  0
 12  7  1  0  0  0
 13 14  2  0  0  0
 14 15  1  0  0  0
 15 16  2  0  0  0
 16 11  1  0  0  0
  7  8  2  0  0  0
  7  9  1  0  0  0
  9  1  1  0  0  0
  1  2  2  0  0  0
  2  3  1  0  0  0
  3  4  2  0  0  0
  4  5  1  0  0  0
  4 19  1  0  0  0
  5  6  2  0  0  0
  6  1  1  0  0  0
 19 20  2  0  0  0
 19 21  1  0  0  0
 21 22  1  0  0  0
 22 23  1  0  0  0
 23 24  2  0  0  0
 24 25  1  0  0  0
 25 26  2  0  0  0
 25 27  1  0  0  0
 27 28  1  0  0  0
 28 29  2  0  0  0
 29 30  1  0  0  0
 30 31  1  0  0  0
 31 32  2  0  0  0
 31 27  1  0  0  0
 32 23  1  0  0  0
  9 10  1  0  0  0
M  END
>  <minimizedAffinity>
-8.06868

>  <minimizedRMSD>
1.64036

$$$$
CHEMBL5003574 96151539 MCULE-8390264413 MolPort-029-898-450 PubChem-72895893 ZINC000096151539


 26 29  0  0  0  0  0  0  0  0999 V2000
   17.0450   -9.0866   11.0537 N   0  0  0  0  0  0  0  0  0  0  0  0
   18.2853   -9.0290   11.8360 C   0  0  0  0  0  0  0  0  0  0  0  0
   18.0109   -8.7130   13.3076 C   0  0  0  0  0  0  0  0  0  0  0  0
   16.9378   -9.6401   13.9039 C   0  0  0  0  0  0  0  0  0  0  0  0
   15.7638   -9.9274   12.9534 C   0  0  0  0  0  0  0  0  0  0  0  0
   15.7569   -9.0004   11.7424 C   0  0  0  0  0  0  0  0  0  0  0  0
   17.0601   -9.3430    9.6361 C   0  0  0  0  0  0  0  0  0  0  0  0
   16.2051  -10.2687    9.1082 N   0  0  0  0  0  0  0  0  0  0  0  0
   16.1791  -10.5481    7.7714 C   0  0  0  0  0  0  0  0  0  0  0  0
   17.0131   -9.8964    6.9129 N   0  0  0  0  0  0  0  0  0  0  0  0
   17.8707   -8.9642    7.3954 C   0  0  0  0  0  0  0  0  0  0  0  0
   18.7499   -8.2164    6.6071 C   0  0  0  0  0  0  0  0  0  0  0  0
   19.4999   -7.3044    7.3542 C   0  0  0  0  0  0  0  0  0  0  0  0
   19.0417   -7.4557    8.9770 S   0  0  0  0  0  0  0  0  0  0  0  0
   17.9113   -8.6739    8.7436 C   0  0  0  0  0  0  0  0  0  0  0  0
   17.5122  -10.9284   14.4242 C   0  0  0  0  0  0  0  0  0  0  0  0
   18.1919  -11.8109   13.6658 N   0  0  0  0  0  0  0  0  0  0  0  0
   18.5333  -12.8044   14.5151 C   0  0  0  0  0  0  0  0  0  0  0  0
   18.0572  -12.5098   15.7812 C   0  0  0  0  0  0  0  0  0  0  0  0
   17.4145  -11.3337   15.7031 N   0  0  0  0  0  0  0  0  0  0  0  0
   16.8003  -10.6238   16.8166 C   0  0  0  0  0  0  0  0  0  0  0  0
   17.1684   -9.1804   16.7735 C   0  0  0  0  0  0  0  0  0  0  0  0
   18.5275   -8.7878   16.9222 N   0  0  0  0  0  0  0  0  0  0  0  0
   16.2820   -8.3109   16.5705 O   0  0  0  0  0  0  0  0  0  0  0  0
   19.2217   -9.4675   17.0811 H   0  0  0  0  0  0  0  0  0  0  0  0
   18.7739   -7.8362   16.8663 H   0  0  0  0  0  0  0  0  0  0  0  0
  7  8  2  0  0  0
  8  9  1  0  0  0
  9 10  2  0  0  0
 10 11  1  0  0  0
 11 12  1  0  0  0
 12 13  2  0  0  0
 13 14  1  0  0  0
 14 15  1  0  0  0
  7  1  1  0  0  0
  1  2  1  0  0  0
  2  3  1  0  0  0
  3  4  1  0  0  0
  4  5  1  0  0  0
  5  6  1  0  0  0
  4 16  1  0  0  0
 16 17  2  0  0  0
 17 18  1  0  0  0
 18 19  2  0  0  0
 19 20  1  0  0  0
 20 21  1  0  0  0
 21 22  1  0  0  0
 22 23  1  0  0  0
 22 24  2  0  0  0
 15  7  1  0  0  0
  6  1  1  0  0  0
 20 16  1  0  0  0
 15 11  2  0  0  0
 23 25  1  0  0  0
 23 26  1  0  0  0
M  END
>  <minimizedAffinity>
-2.32898

>  <minimizedRMSD>
1.64132

$$$$
CHEMBL5208403


 39 42  0  0  0  0  0  0  0  0999 V2000
   17.3567  -10.4021   13.7416 C   0  0  0  0  0  0  0  0  0  0  0  0
   16.8412   -9.7246   14.9617 C   0  0  0  0  0  0  0  0  0  0  0  0
   17.0378  -10.3030   16.2192 C   0  0  0  0  0  0  0  0  0  0  0  0
   16.5313   -9.6795   17.3631 C   0  0  0  0  0  0  0  0  0  0  0  0
   15.8196   -8.4755   17.2584 C   0  0  0  0  0  0  0  0  0  0  0  0
   15.6192   -7.9055   15.9924 C   0  0  0  0  0  0  0  0  0  0  0  0
   16.1262   -8.5284   14.8484 C   0  0  0  0  0  0  0  0  0  0  0  0
   15.2808   -7.8222   18.4638 C   0  0  0  0  0  0  0  0  0  0  0  0
   14.6784   -6.7179   18.3666 O   0  0  0  0  0  0  0  0  0  0  0  0
   15.4439   -8.4380   19.7456 N   0  0  0  0  0  0  0  0  0  0  0  0
   15.9641   -9.2718   19.8044 H   0  0  0  0  0  0  0  0  0  0  0  0
   14.8741   -7.8853   20.9670 C   0  0  0  0  0  0  0  0  0  0  0  0
   13.6097   -7.1548   20.6654 C   0  0  0  0  0  0  0  0  0  0  0  0
   13.4491   -5.8309   21.0864 C   0  0  0  0  0  0  0  0  0  0  0  0
   12.2703   -5.1408   20.7900 C   0  0  0  0  0  0  0  0  0  0  0  0
   11.2433   -5.7708   20.0674 C   0  0  0  0  0  0  0  0  0  0  0  0
   11.4119   -7.0940   19.6464 C   0  0  0  0  0  0  0  0  0  0  0  0
   12.5909   -7.7844   19.9425 C   0  0  0  0  0  0  0  0  0  0  0  0
   10.0527   -5.1084   19.7569 O   0  0  0  0  0  0  0  0  0  0  0  0
   10.0234   -3.7909   19.2251 C   0  0  0  0  0  0  0  0  0  0  0  0
   17.2385   -9.5109   12.5986 N   0  0  0  0  0  0  0  0  0  0  0  0
   16.8439   -8.6174   12.8923 H   0  0  0  0  0  0  0  0  0  0  0  0
   16.3558  -10.1529   11.6380 C   0  0  0  0  0  0  0  0  0  0  0  0
   17.9017   -8.8332    6.4222 N   0  0  0  0  0  0  0  0  0  0  0  0
   19.0221   -8.0930    6.2074 C   0  0  0  0  0  0  0  0  0  0  0  0
   19.7770   -7.6724    7.2584 N   0  0  0  0  0  0  0  0  0  0  0  0
   19.4356   -7.9792    8.5379 C   0  0  0  0  0  0  0  0  0  0  0  0
   18.2886   -8.7391    8.7806 C   0  0  0  0  0  0  0  0  0  0  0  0
   17.9007   -9.0750   10.0396 N   0  0  0  0  0  0  0  0  0  0  0  0
   16.7819   -9.8197   10.2493 C   0  0  0  0  0  0  0  0  0  0  0  0
   16.0137  -10.2360    9.1564 C   0  0  0  0  0  0  0  0  0  0  0  0
   16.4010   -9.9016    7.8963 N   0  0  0  0  0  0  0  0  0  0  0  0
   17.5219   -9.1641    7.6828 C   0  0  0  0  0  0  0  0  0  0  0  0
   20.2479   -7.5227    9.6150 N   0  0  0  0  0  0  0  0  0  0  0  0
   19.4033   -7.7529    4.8802 N   0  0  0  0  0  0  0  0  0  0  0  0
   21.0539   -6.9879    9.4314 H   0  0  0  0  0  0  0  0  0  0  0  0
   20.0035   -7.7420   10.5431 H   0  0  0  0  0  0  0  0  0  0  0  0
   18.8583   -8.0563    4.1185 H   0  0  0  0  0  0  0  0  0  0  0  0
   20.2121   -7.2140    4.7231 H   0  0  0  0  0  0  0  0  0  0  0  0
 24 25  2  0  0  0
 25 26  1  0  0  0
 26 27  2  0  0  0
 27 28  1  0  0  0
 28 29  2  0  0  0
 29 30  1  0  0  0
 30 23  1  0  0  0
 23 21  1  0  0  0
 21  1  1  0  0  0
  1  2  1  0  0  0
  2  3  2  0  0  0
  3  4  1  0  0  0
  4  5  2  0  0  0
  5  6  1  0  0  0
  6  7  2  0  0  0
  5  8  1  0  0  0
  8  9  2  0  0  0
  8 10  1  0  0  0
 10 12  1  0  0  0
 12 13  1  0  0  0
 13 14  2  0  0  0
 14 15  1  0  0  0
 15 16  2  0  0  0
 16 17  1  0  0  0
 17 18  2  0  0  0
 16 19  1  0  0  0
 19 20  1  0  0  0
 30 31  2  0  0  0
 31 32  1  0  0  0
 32 33  2  0  0  0
 27 34  1  0  0  0
 25 35  1  0  0  0
 33 24  1  0  0  0
 33 28  1  0  0  0
  7  2  1  0  0  0
 18 13  1  0  0  0
 21 22  1  0  0  0
 10 11  1  0  0  0
 34 36  1  0  0  0
 34 37  1  0  0  0
 35 38  1  0  0  0
 35 39  1  0  0  0
M  END
>  <minimizedAffinity>
-6.83121

>  <minimizedRMSD>
1.64180

$$$$
CHEMBL5081099 PubChem-72949557


 36 41  0  0  0  0  0  0  0  0999 V2000
   13.5448   -5.9596   20.2153 C   0  0  0  0  0  0  0  0  0  0  0  0
   14.7403   -6.6769   20.0198 C   0  0  0  0  0  0  0  0  0  0  0  0
   14.8849   -7.3683   18.8200 C   0  0  0  0  0  0  0  0  0  0  0  0
   13.9210   -7.3610   17.8594 C   0  0  0  0  0  0  0  0  0  0  0  0
   12.7277   -6.6605   18.0126 C   0  0  0  0  0  0  0  0  0  0  0  0
   12.5455   -5.9498   19.2133 C   0  0  0  0  0  0  0  0  0  0  0  0
   14.3070   -8.0997   16.8102 N   0  0  0  0  0  0  0  0  0  0  0  0
   15.5358   -8.5405   17.1943 C   0  0  0  0  0  0  0  0  0  0  0  0
   15.9273   -8.1120   18.4252 N   0  0  0  0  0  0  0  0  0  0  0  0
   16.7659   -8.3009   18.9050 H   0  0  0  0  0  0  0  0  0  0  0  0
   16.3717   -9.4086   16.3489 C   0  0  0  0  0  0  0  0  0  0  0  0
   16.3480   -9.2724   14.9547 C   0  0  0  0  0  0  0  0  0  0  0  0
   17.1392  -10.0935   14.1455 C   0  0  0  0  0  0  0  0  0  0  0  0
   17.9671  -11.0657   14.7357 C   0  0  0  0  0  0  0  0  0  0  0  0
   17.9913  -11.2022   16.1268 C   0  0  0  0  0  0  0  0  0  0  0  0
   17.1984  -10.3787   16.9297 C   0  0  0  0  0  0  0  0  0  0  0  0
   18.9830  -12.1256   13.7689 Cl  0  0  0  0  0  0  0  0  0  0  0  0
   17.0857   -9.9208   12.7181 C   0  0  0  0  0  0  0  0  0  0  0  0
   17.0412   -9.7761   11.5222 C   0  0  0  0  0  0  0  0  0  0  0  0
   16.9892   -9.6024   10.0963 C   0  0  0  0  0  0  0  0  0  0  0  0
   16.0646  -10.1647    9.2268 C   0  0  0  0  0  0  0  0  0  0  0  0
   16.3543   -9.7589    7.9603 N   0  0  0  0  0  0  0  0  0  0  0  0
   17.4377   -8.9695    8.1045 C   0  0  0  0  0  0  0  0  0  0  0  0
   17.8351   -8.8615    9.3749 N   0  0  0  0  0  0  0  0  0  0  0  0
   18.8805   -8.1385    9.7713 N   0  0  0  0  0  0  0  0  0  0  0  0
   19.6021   -7.4589    8.8348 C   0  0  0  0  0  0  0  0  0  0  0  0
   19.2309   -7.5342    7.4777 C   0  0  0  0  0  0  0  0  0  0  0  0
   18.1228   -8.3062    7.0939 C   0  0  0  0  0  0  0  0  0  0  0  0
   13.3455   -5.1967   21.4813 C   0  0  0  0  0  0  0  0  0  0  0  0
   12.6895   -5.2833   26.0394 C   0  0  0  0  0  0  0  0  0  0  0  0
   13.0710   -4.3943   24.9483 N   0  0  0  0  0  0  0  0  0  0  0  0
   11.9761   -4.2954   23.9785 C   0  0  0  0  0  0  0  0  0  0  0  0
   11.7477   -5.6117   23.2167 C   0  0  0  0  0  0  0  0  0  0  0  0
   12.9685   -6.0991   22.5680 N   0  0  0  0  0  0  0  0  0  0  0  0
   14.0589   -6.2051   23.5444 C   0  0  0  0  0  0  0  0  0  0  0  0
   14.2915   -4.8889   24.3042 C   0  0  0  0  0  0  0  0  0  0  0  0
 30 31  1  0  0  0
 31 32  1  0  0  0
 32 33  1  0  0  0
 33 34  1  0  0  0
 34 35  1  0  0  0
 34 29  1  0  0  0
 35 36  1  0  0  0
 36 31  1  0  0  0
 29  1  1  0  0  0
  1  2  2  0  0  0
  2  3  1  0  0  0
  3  4  2  0  0  0
  4  5  1  0  0  0
  4  7  1  0  0  0
  5  6  2  0  0  0
  6  1  1  0  0  0
  7  8  2  0  0  0
  8  9  1  0  0  0
  8 11  1  0  0  0
  9  3  1  0  0  0
 11 12  2  0  0  0
 12 13  1  0  0  0
 13 14  2  0  0  0
 13 18  1  0  0  0
 14 15  1  0  0  0
 14 17  1  0  0  0
 15 16  2  0  0  0
 16 11  1  0  0  0
 18 19  3  0  0  0
 19 20  1  0  0  0
 20 21  2  0  0  0
 21 22  1  0  0  0
 22 23  2  0  0  0
 23 24  1  0  0  0
 24 25  1  0  0  0
 24 20  1  0  0  0
 25 26  2  0  0  0
 26 27  1  0  0  0
 27 28  2  0  0  0
 28 23  1  0  0  0
  9 10  1  0  0  0
M  END
>  <minimizedAffinity>
-11.98718

>  <minimizedRMSD>
1.64584

$$$$
CHEMBL4975538 72287231 CSC027538128 MCULE-2712844443 MolPort-023-154-887 PubChem-72133187 Z1224472274 ZINC000072287231 ZINC72287231


 25 27  0  0  0  0  0  0  0  0999 V2000
   17.8039  -10.0949   13.8901 C   0  0  0  0  0  0  0  0  0  0  0  0
   15.7330   -8.3921   17.2420 C   0  0  0  0  0  0  0  0  0  0  0  0
   15.5389   -7.8692   15.9585 C   0  0  0  0  0  0  0  0  0  0  0  0
   16.2084   -8.4271   14.8655 C   0  0  0  0  0  0  0  0  0  0  0  0
   17.0739   -9.5109   15.0526 C   0  0  0  0  0  0  0  0  0  0  0  0
   17.2745  -10.0288   16.3369 C   0  0  0  0  0  0  0  0  0  0  0  0
   16.6048   -9.4704   17.4295 C   0  0  0  0  0  0  0  0  0  0  0  0
   16.0576   -7.1068   19.7620 N   0  0  0  0  0  0  0  0  0  0  0  0
   14.9019   -7.6842   18.6146 S   0  0  0  0  0  0  0  0  0  0  0  0
   14.0403   -8.7230   19.2757 O   0  0  0  0  0  0  0  0  0  0  0  0
   14.0441   -6.5420   18.1492 O   0  0  0  0  0  0  0  0  0  0  0  0
   15.5701   -6.6961   20.5583 H   0  0  0  0  0  0  0  0  0  0  0  0
   16.6482   -6.4001   19.3236 H   0  0  0  0  0  0  0  0  0  0  0  0
   17.1669   -9.6663   12.5778 C   0  0  0  0  0  0  0  0  0  0  0  0
   17.9723  -10.1279   11.4567 N   0  0  0  0  0  0  0  0  0  0  0  0
   18.2781  -11.0637   11.4666 H   0  0  0  0  0  0  0  0  0  0  0  0
   18.3505   -9.3143   10.3402 C   0  0  0  0  0  0  0  0  0  0  0  0
   19.3712   -8.4171   10.4798 N   0  0  0  0  0  0  0  0  0  0  0  0
   19.7770   -7.6105    9.4507 C   0  0  0  0  0  0  0  0  0  0  0  0
   19.1354   -7.6941    8.2061 C   0  0  0  0  0  0  0  0  0  0  0  0
   18.1276   -8.5896    8.0930 N   0  0  0  0  0  0  0  0  0  0  0  0
   17.3374   -8.8954    7.0540 C   0  0  0  0  0  0  0  0  0  0  0  0
   16.4682   -9.8638    7.4319 N   0  0  0  0  0  0  0  0  0  0  0  0
   16.7063  -10.1704    8.7045 N   0  0  0  0  0  0  0  0  0  0  0  0
   17.7232   -9.3812    9.0891 C   0  0  0  0  0  0  0  0  0  0  0  0
  8  9  1  0  0  0
  9 10  2  0  0  0
  9 11  2  0  0  0
  9  2  1  0  0  0
  2  3  2  0  0  0
  3  4  1  0  0  0
  4  5  2  0  0  0
  5  1  1  0  0  0
  5  6  1  0  0  0
  1 14  1  0  0  0
 14 15  1  0  0  0
 15 17  1  0  0  0
 17 18  2  0  0  0
 18 19  1  0  0  0
 19 20  2  0  0  0
 20 21  1  0  0  0
 21 22  1  0  0  0
 22 23  2  0  0  0
 23 24  1  0  0  0
 24 25  2  0  0  0
 25 17  1  0  0  0
 25 21  1  0  0  0
  6  7  2  0  0  0
  7  2  1  0  0  0
  8 12  1  0  0  0
  8 13  1  0  0  0
 15 16  1  0  0  0
M  END
>  <minimizedAffinity>
-4.98649

>  <minimizedRMSD>
1.65323

$$$$
CHEMBL359176 Z223822242 ZINC09156838


 26 28  0  0  0  0  0  0  0  0999 V2000
   16.4425  -10.1080   11.0401 S   0  0  0  0  0  0  0  0  0  0  0  0
   18.7934   -8.1801    5.6222 C   0  0  0  0  0  0  0  0  0  0  0  0
   19.5622   -7.3256    6.4553 C   0  0  0  0  0  0  0  0  0  0  0  0
   19.4138   -7.3570    7.8539 C   0  0  0  0  0  0  0  0  0  0  0  0
   18.4886   -8.2547    8.3777 C   0  0  0  0  0  0  0  0  0  0  0  0
   17.7486   -9.0767    7.5847 C   0  0  0  0  0  0  0  0  0  0  0  0
   17.8688   -9.0730    6.1977 C   0  0  0  0  0  0  0  0  0  0  0  0
   16.9383   -9.8380    8.3329 N   0  0  0  0  0  0  0  0  0  0  0  0
   17.2356   -9.4253    9.5923 C   0  0  0  0  0  0  0  0  0  0  0  0
   18.1834   -8.4550    9.6672 N   0  0  0  0  0  0  0  0  0  0  0  0
   18.5521   -8.0120   10.4654 H   0  0  0  0  0  0  0  0  0  0  0  0
   20.1916   -8.0381    3.5875 C   0  0  0  0  0  0  0  0  0  0  0  0
   18.9309   -8.1591    4.2317 O   0  0  0  0  0  0  0  0  0  0  0  0
   18.0051  -10.1186   11.9780 C   0  0  0  0  0  0  0  0  0  0  0  0
   17.9255  -10.9318   13.2392 C   0  0  0  0  0  0  0  0  0  0  0  0
   18.2558  -12.1498   13.2322 O   0  0  0  0  0  0  0  0  0  0  0  0
   17.4600  -10.3097   14.4946 C   0  0  0  0  0  0  0  0  0  0  0  0
   17.5878  -10.9956   15.7116 C   0  0  0  0  0  0  0  0  0  0  0  0
   17.1490  -10.4120   16.9033 C   0  0  0  0  0  0  0  0  0  0  0  0
   16.5781   -9.1368   16.8904 C   0  0  0  0  0  0  0  0  0  0  0  0
   16.4460   -8.4435   15.6807 C   0  0  0  0  0  0  0  0  0  0  0  0
   16.8855   -9.0293   14.4900 C   0  0  0  0  0  0  0  0  0  0  0  0
   15.8799   -7.1752   15.6557 O   0  0  0  0  0  0  0  0  0  0  0  0
   16.1447   -8.5643   18.0796 O   0  0  0  0  0  0  0  0  0  0  0  0
   15.5838   -6.7786   16.4513 H   0  0  0  0  0  0  0  0  0  0  0  0
   16.2358   -9.0331   18.8858 H   0  0  0  0  0  0  0  0  0  0  0  0
 12 13  1  0  0  0
 13  2  1  0  0  0
  2  3  2  0  0  0
  3  4  1  0  0  0
  4  5  2  0  0  0
  5  6  1  0  0  0
  6  7  2  0  0  0
  6  8  1  0  0  0
  7  2  1  0  0  0
  8  9  2  0  0  0
  9 10  1  0  0  0
  9  1  1  0  0  0
 10  5  1  0  0  0
  1 14  1  0  0  0
 14 15  1  0  0  0
 15 16  2  0  0  0
 15 17  1  0  0  0
 17 18  2  0  0  0
 18 19  1  0  0  0
 19 20  2  0  0  0
 20 21  1  0  0  0
 20 24  1  0  0  0
 21 22  2  0  0  0
 21 23  1  0  0  0
 22 17  1  0  0  0
 10 11  1  0  0  0
 23 25  1  0  0  0
 24 26  1  0  0  0
M  END
>  <minimizedAffinity>
-8.41068

>  <minimizedRMSD>
1.65395

$$$$
CHEMBL5094239 PubChem-72949376


 36 41  0  0  0  0  0  0  0  0999 V2000
   19.1887  -11.6307   13.8862 C   0  0  0  0  0  0  0  0  0  0  0  0
   18.2476  -10.8193   14.7121 C   0  0  0  0  0  0  0  0  0  0  0  0
   17.3053   -9.9532   14.1245 C   0  0  0  0  0  0  0  0  0  0  0  0
   16.4433   -9.2122   14.9391 C   0  0  0  0  0  0  0  0  0  0  0  0
   16.5080   -9.3229   16.3343 C   0  0  0  0  0  0  0  0  0  0  0  0
   17.4479  -10.1860   16.9115 C   0  0  0  0  0  0  0  0  0  0  0  0
   18.3123  -10.9295   16.1043 C   0  0  0  0  0  0  0  0  0  0  0  0
   15.5966   -8.5396   17.1846 C   0  0  0  0  0  0  0  0  0  0  0  0
   14.4715   -7.9430   16.7050 N   0  0  0  0  0  0  0  0  0  0  0  0
   13.9632   -7.3574   17.7978 C   0  0  0  0  0  0  0  0  0  0  0  0
   14.7588   -7.6006   18.8748 C   0  0  0  0  0  0  0  0  0  0  0  0
   15.8088   -8.3517   18.5155 N   0  0  0  0  0  0  0  0  0  0  0  0
   14.4638   -7.1028   20.1413 C   0  0  0  0  0  0  0  0  0  0  0  0
   13.2934   -6.3317   20.2781 C   0  0  0  0  0  0  0  0  0  0  0  0
   12.4705   -6.0760   19.1569 C   0  0  0  0  0  0  0  0  0  0  0  0
   12.8020   -6.5950   17.8916 C   0  0  0  0  0  0  0  0  0  0  0  0
   16.5481   -8.6842   19.0741 H   0  0  0  0  0  0  0  0  0  0  0  0
   12.9369   -5.7549   21.6049 C   0  0  0  0  0  0  0  0  0  0  0  0
   13.9717   -4.8207   22.0428 N   0  0  0  0  0  0  0  0  0  0  0  0
   14.8222   -5.4589   23.0517 C   0  0  0  0  0  0  0  0  0  0  0  0
   14.0719   -5.7209   24.3684 C   0  0  0  0  0  0  0  0  0  0  0  0
   13.4519   -4.5072   24.9086 N   0  0  0  0  0  0  0  0  0  0  0  0
   12.6062   -3.8631   23.8993 C   0  0  0  0  0  0  0  0  0  0  0  0
   13.3606   -3.6020   22.5854 C   0  0  0  0  0  0  0  0  0  0  0  0
   14.4835   -3.5796   25.3578 C   0  0  0  0  0  0  0  0  0  0  0  0
   17.2034   -9.8064   12.6954 C   0  0  0  0  0  0  0  0  0  0  0  0
   17.1187   -9.6830   11.4992 C   0  0  0  0  0  0  0  0  0  0  0  0
   17.0192   -9.5340   10.0730 C   0  0  0  0  0  0  0  0  0  0  0  0
   16.0646  -10.1087    9.2452 C   0  0  0  0  0  0  0  0  0  0  0  0
   16.3125   -9.7258    7.9626 N   0  0  0  0  0  0  0  0  0  0  0  0
   17.4019   -8.9369    8.0566 C   0  0  0  0  0  0  0  0  0  0  0  0
   17.8420   -8.8079    9.3107 N   0  0  0  0  0  0  0  0  0  0  0  0
   18.9014   -8.0804    9.6591 N   0  0  0  0  0  0  0  0  0  0  0  0
   19.5922   -7.4187    8.6872 C   0  0  0  0  0  0  0  0  0  0  0  0
   19.1754   -7.5166    7.3450 C   0  0  0  0  0  0  0  0  0  0  0  0
   18.0536   -8.2925    7.0120 C   0  0  0  0  0  0  0  0  0  0  0  0
  1  2  1  0  0  0
  2  3  2  0  0  0
  3  4  1  0  0  0
  3 26  1  0  0  0
  4  5  2  0  0  0
  5  6  1  0  0  0
  5  8  1  0  0  0
  6  7  2  0  0  0
  7  2  1  0  0  0
  8  9  2  0  0  0
  9 10  1  0  0  0
 10 11  2  0  0  0
 11 12  1  0  0  0
 11 13  1  0  0  0
 12  8  1  0  0  0
 13 14  2  0  0  0
 14 15  1  0  0  0
 14 18  1  0  0  0
 15 16  2  0  0  0
 16 10  1  0  0  0
 18 19  1  0  0  0
 19 20  1  0  0  0
 20 21  1  0  0  0
 21 22  1  0  0  0
 22 23  1  0  0  0
 22 25  1  0  0  0
 23 24  1  0  0  0
 24 19  1  0  0  0
 26 27  3  0  0  0
 27 28  1  0  0  0
 28 29  2  0  0  0
 29 30  1  0  0  0
 30 31  2  0  0  0
 31 32  1  0  0  0
 32 33  1  0  0  0
 32 28  1  0  0  0
 33 34  2  0  0  0
 34 35  1  0  0  0
 35 36  2  0  0  0
 36 31  1  0  0  0
 12 17  1  0  0  0
M  END
>  <minimizedAffinity>
-12.52997

>  <minimizedRMSD>
1.65540

$$$$
CHEMBL1221819 PubChem-9543552


 29 31  0  0  0  0  0  0  0  0999 V2000
   18.0704  -11.8435   15.0339 C   0  0  0  0  0  0  0  0  0  0  0  0
   18.1953  -11.5059   13.5860 C   0  0  0  0  0  0  0  0  0  0  0  0
   19.0611  -12.0910   12.8816 O   0  0  0  0  0  0  0  0  0  0  0  0
   17.3150  -10.5266   13.0205 N   0  0  0  0  0  0  0  0  0  0  0  0
   16.6413  -10.1373   13.6237 H   0  0  0  0  0  0  0  0  0  0  0  0
   17.3147  -10.0557   11.6663 C   0  0  0  0  0  0  0  0  0  0  0  0
   16.2651  -10.4279   10.8194 C   0  0  0  0  0  0  0  0  0  0  0  0
   16.2298   -9.9953    9.5297 N   0  0  0  0  0  0  0  0  0  0  0  0
   17.2029   -9.1929    9.0229 C   0  0  0  0  0  0  0  0  0  0  0  0
   17.1410   -8.7622    7.6947 C   0  0  0  0  0  0  0  0  0  0  0  0
   18.1464   -7.9358    7.1817 C   0  0  0  0  0  0  0  0  0  0  0  0
   19.2143   -7.5390    7.9945 C   0  0  0  0  0  0  0  0  0  0  0  0
   19.2825   -7.9666    9.3245 C   0  0  0  0  0  0  0  0  0  0  0  0
   18.2804   -8.7919    9.8411 C   0  0  0  0  0  0  0  0  0  0  0  0
   18.3282   -9.2283   11.1643 C   0  0  0  0  0  0  0  0  0  0  0  0
   18.2525  -10.6085   15.9024 C   0  0  0  0  0  0  0  0  0  0  0  0
   16.9343  -10.2093   16.5386 C   0  0  0  0  0  0  0  0  0  0  0  0
   16.8551   -8.6974   16.6339 C   0  0  0  0  0  0  0  0  0  0  0  0
   15.4236   -8.2262   16.4350 C   0  0  0  0  0  0  0  0  0  0  0  0
   13.7514   -7.0932   17.6883 O   0  0  0  0  0  0  0  0  0  0  0  0
   14.8587   -7.6933   17.7075 C   0  0  0  0  0  0  0  0  0  0  0  0
   15.5744   -7.8963   18.9330 N   0  0  0  0  0  0  0  0  0  0  0  0
   16.4324   -8.3748   18.8691 H   0  0  0  0  0  0  0  0  0  0  0  0
   15.1697   -7.4742   20.2424 C   0  0  0  0  0  0  0  0  0  0  0  0
   16.1025   -6.8243   21.0586 C   0  0  0  0  0  0  0  0  0  0  0  0
   15.7453   -6.3985   22.3416 C   0  0  0  0  0  0  0  0  0  0  0  0
   14.4500   -6.6212   22.8167 C   0  0  0  0  0  0  0  0  0  0  0  0
   13.5123   -7.2698   22.0089 C   0  0  0  0  0  0  0  0  0  0  0  0
   13.8707   -7.6948   20.7263 C   0  0  0  0  0  0  0  0  0  0  0  0
 20 21  2  0  0  0
 21 19  1  0  0  0
 21 22  1  0  0  0
 19 18  1  0  0  0
 18 17  1  0  0  0
 17 16  1  0  0  0
 16  1  1  0  0  0
  1  2  1  0  0  0
  2  3  2  0  0  0
  2  4  1  0  0  0
  4  6  1  0  0  0
  6  7  2  0  0  0
  7  8  1  0  0  0
  8  9  2  0  0  0
  9 10  1  0  0  0
 10 11  2  0  0  0
 11 12  1  0  0  0
 12 13  2  0  0  0
 13 14  1  0  0  0
 14 15  2  0  0  0
 14  9  1  0  0  0
 15  6  1  0  0  0
 22 24  1  0  0  0
 24 25  2  0  0  0
 25 26  1  0  0  0
 26 27  2  0  0  0
 27 28  1  0  0  0
 28 29  2  0  0  0
 29 24  1  0  0  0
  4  5  1  0  0  0
 22 23  1  0  0  0
M  END
>  <minimizedAffinity>
-9.73894

>  <minimizedRMSD>
1.65791

$$$$
CHEMBL4856843 PubChem-164614140


 34 36  0  0  0  0  0  0  0  0999 V2000
   17.8026   -8.8694   10.7631 N   0  0  0  0  0  0  0  0  0  0  0  0
   17.4224   -9.8732   11.7093 C   0  0  0  0  0  0  0  0  0  0  0  0
   16.9045  -10.9570   11.3253 O   0  0  0  0  0  0  0  0  0  0  0  0
   17.6426   -9.6351   13.1008 N   0  0  0  0  0  0  0  0  0  0  0  0
   18.2127   -8.0463   11.1146 H   0  0  0  0  0  0  0  0  0  0  0  0
   18.0849   -8.7979   13.3706 H   0  0  0  0  0  0  0  0  0  0  0  0
   19.7171   -7.5099    6.1392 C   0  0  0  0  0  0  0  0  0  0  0  0
   18.5450   -8.3061    6.0317 C   0  0  0  0  0  0  0  0  0  0  0  0
   17.9573   -8.7210    7.1842 N   0  0  0  0  0  0  0  0  0  0  0  0
   18.4361   -8.4109    8.3899 C   0  0  0  0  0  0  0  0  0  0  0  0
   17.6331   -8.9694    9.3450 C   0  0  0  0  0  0  0  0  0  0  0  0
   16.6356   -9.6381    8.6383 C   0  0  0  0  0  0  0  0  0  0  0  0
   16.8671   -9.4637    7.3105 N   0  0  0  0  0  0  0  0  0  0  0  0
   19.5473   -7.6566    8.5492 N   0  0  0  0  0  0  0  0  0  0  0  0
   20.1903   -7.2045    7.4355 C   0  0  0  0  0  0  0  0  0  0  0  0
   17.9476   -8.6953    4.7169 C   0  0  0  0  0  0  0  0  0  0  0  0
   20.4700   -6.9823    4.9766 C   0  0  0  0  0  0  0  0  0  0  0  0
   21.0875   -7.7584    4.1968 O   0  0  0  0  0  0  0  0  0  0  0  0
   20.4925   -5.6041    4.7460 O   0  0  0  0  0  0  0  0  0  0  0  0
   21.0813   -3.5841    3.6010 C   0  0  0  0  0  0  0  0  0  0  0  0
   21.5107   -4.9875    3.9723 C   0  0  0  0  0  0  0  0  0  0  0  0
   17.2416  -10.5763   14.1381 C   0  0  0  0  0  0  0  0  0  0  0  0
   16.6793   -9.8490   15.3123 C   0  0  0  0  0  0  0  0  0  0  0  0
   16.9902  -10.2658   16.6115 C   0  0  0  0  0  0  0  0  0  0  0  0
   16.4735   -9.5741   17.7109 C   0  0  0  0  0  0  0  0  0  0  0  0
   15.6446   -8.4638   17.5152 C   0  0  0  0  0  0  0  0  0  0  0  0
   15.3395   -8.0438   16.2156 C   0  0  0  0  0  0  0  0  0  0  0  0
   15.8558   -8.7354   15.1160 C   0  0  0  0  0  0  0  0  0  0  0  0
   15.0062   -7.5887   18.8945 S   0  0  0  0  0  0  0  0  0  0  0  0
   14.1539   -6.4478   18.4162 O   0  0  0  0  0  0  0  0  0  0  0  0
   14.1785   -8.5136   19.7419 O   0  0  0  0  0  0  0  0  0  0  0  0
   16.3086   -6.9743   19.8495 N   0  0  0  0  0  0  0  0  0  0  0  0
   16.8775   -6.3446   19.2835 H   0  0  0  0  0  0  0  0  0  0  0  0
   16.8842   -7.7495   20.1784 H   0  0  0  0  0  0  0  0  0  0  0  0
 20 21  1  0  0  0
 21 19  1  0  0  0
 19 17  1  0  0  0
 17 18  2  0  0  0
 17  7  1  0  0  0
  7  8  2  0  0  0
  8  9  1  0  0  0
  9 10  1  0  0  0
 10 11  2  0  0  0
 11 12  1  0  0  0
 12 13  2  0  0  0
 11  1  1  0  0  0
  1  2  1  0  0  0
  2  3  2  0  0  0
  2  4  1  0  0  0
  4 22  1  0  0  0
 22 23  1  0  0  0
 23 24  2  0  0  0
 24 25  1  0  0  0
 25 26  2  0  0  0
 26 27  1  0  0  0
 27 28  2  0  0  0
 26 29  1  0  0  0
 29 30  2  0  0  0
 29 31  2  0  0  0
 29 32  1  0  0  0
 10 14  1  0  0  0
 14 15  2  0  0  0
  8 16  1  0  0  0
 15  7  1  0  0  0
 13  9  1  0  0  0
 28 23  1  0  0  0
  1  5  1  0  0  0
  4  6  1  0  0  0
 32 33  1  0  0  0
 32 34  1  0  0  0
M  END
>  <minimizedAffinity>
-5.52555

>  <minimizedRMSD>
1.65804

$$$$
CHEMBL3098910 PubChem-136227752


 32 34  0  0  0  0  0  0  0  0999 V2000
   16.7784   -9.7441   13.3477 C   0  0  0  0  0  0  0  0  0  0  0  0
   15.7793  -10.2968   13.8843 O   0  0  0  0  0  0  0  0  0  0  0  0
   17.8204   -9.1985   14.1617 N   0  0  0  0  0  0  0  0  0  0  0  0
   18.6189   -8.8288   13.7201 H   0  0  0  0  0  0  0  0  0  0  0  0
   20.0560   -7.1254    7.4729 N   0  0  0  0  0  0  0  0  0  0  0  0
   19.0397   -7.9404    8.0435 C   0  0  0  0  0  0  0  0  0  0  0  0
   18.9233   -8.0314    9.3954 N   0  0  0  0  0  0  0  0  0  0  0  0
   17.9590   -8.8049    9.9566 C   0  0  0  0  0  0  0  0  0  0  0  0
   17.8442   -8.8944   11.3070 N   0  0  0  0  0  0  0  0  0  0  0  0
   16.8814   -9.6665   11.8830 C   0  0  0  0  0  0  0  0  0  0  0  0
   15.9949  -10.3795   11.0629 C   0  0  0  0  0  0  0  0  0  0  0  0
   16.1067  -10.2924    9.7107 N   0  0  0  0  0  0  0  0  0  0  0  0
   17.0694   -9.5206    9.1391 C   0  0  0  0  0  0  0  0  0  0  0  0
   17.2062   -9.4133    7.7524 C   0  0  0  0  0  0  0  0  0  0  0  0
   16.4313  -10.0369    6.9795 O   0  0  0  0  0  0  0  0  0  0  0  0
   18.1870   -8.6267    7.2352 N   0  0  0  0  0  0  0  0  0  0  0  0
   20.6737   -6.6283    8.0564 H   0  0  0  0  0  0  0  0  0  0  0  0
   20.1417   -7.0584    6.4944 H   0  0  0  0  0  0  0  0  0  0  0  0
   18.2820   -8.5523    6.2581 H   0  0  0  0  0  0  0  0  0  0  0  0
   17.7502   -9.1669   15.6158 C   0  0  0  0  0  0  0  0  0  0  0  0
   16.8491   -8.0341   16.0795 C   0  0  0  0  0  0  0  0  0  0  0  0
   15.4848   -8.5633   16.4849 C   0  0  0  0  0  0  0  0  0  0  0  0
   14.9971   -7.8517   17.6977 C   0  0  0  0  0  0  0  0  0  0  0  0
   14.0310   -7.0508   17.5924 O   0  0  0  0  0  0  0  0  0  0  0  0
   15.6215   -8.1014   18.9647 N   0  0  0  0  0  0  0  0  0  0  0  0
   16.3590   -8.7536   18.9722 H   0  0  0  0  0  0  0  0  0  0  0  0
   15.2829   -7.4997   20.2215 C   0  0  0  0  0  0  0  0  0  0  0  0
   13.9793   -7.5446   20.7401 C   0  0  0  0  0  0  0  0  0  0  0  0
   13.6862   -6.9451   21.9685 C   0  0  0  0  0  0  0  0  0  0  0  0
   14.6940   -6.2964   22.6869 C   0  0  0  0  0  0  0  0  0  0  0  0
   15.9940   -6.2474   22.1763 C   0  0  0  0  0  0  0  0  0  0  0  0
   16.2858   -6.8474   20.9475 C   0  0  0  0  0  0  0  0  0  0  0  0
  5  6  1  0  0  0
  6  7  2  0  0  0
  7  8  1  0  0  0
  8  9  2  0  0  0
  9 10  1  0  0  0
 10  1  1  0  0  0
 10 11  2  0  0  0
  1  2  2  0  0  0
  1  3  1  0  0  0
  3 20  1  0  0  0
 20 21  1  0  0  0
 21 22  1  0  0  0
 22 23  1  0  0  0
 23 24  2  0  0  0
 23 25  1  0  0  0
 25 27  1  0  0  0
 27 28  2  0  0  0
 28 29  1  0  0  0
 29 30  2  0  0  0
 30 31  1  0  0  0
 31 32  2  0  0  0
 32 27  1  0  0  0
 11 12  1  0  0  0
 12 13  2  0  0  0
 13 14  1  0  0  0
 13  8  1  0  0  0
 14 15  2  0  0  0
 14 16  1  0  0  0
 16  6  1  0  0  0
  5 17  1  0  0  0
  5 18  1  0  0  0
  3  4  1  0  0  0
 25 26  1  0  0  0
 16 19  1  0  0  0
M  END
>  <minimizedAffinity>
-6.33902

>  <minimizedRMSD>
1.65922

$$$$
CHEMBL432615 PubChem-500988


 40 44  0  0  0  0  0  0  0  0999 V2000
   17.0860  -10.8091   12.6595 C   0  0  0  0  0  0  0  0  0  0  0  0
   16.0724   -9.9944   13.0473 N   0  0  0  0  0  0  0  0  0  0  0  0
   16.3339   -9.7287   14.3334 C   0  0  0  0  0  0  0  0  0  0  0  0
   17.4881  -10.3635   14.6877 C   0  0  0  0  0  0  0  0  0  0  0  0
   17.9900  -11.0527   13.6451 N   0  0  0  0  0  0  0  0  0  0  0  0
   18.0149  -10.2672   15.9718 C   0  0  0  0  0  0  0  0  0  0  0  0
   17.3087   -9.4854   16.9047 C   0  0  0  0  0  0  0  0  0  0  0  0
   16.1078   -8.8241   16.5440 C   0  0  0  0  0  0  0  0  0  0  0  0
   15.6079   -8.9469   15.2295 C   0  0  0  0  0  0  0  0  0  0  0  0
   15.3852   -8.0110   17.5372 C   0  0  0  0  0  0  0  0  0  0  0  0
   14.5239   -7.1720   17.1559 O   0  0  0  0  0  0  0  0  0  0  0  0
   15.6579   -8.1819   18.9355 N   0  0  0  0  0  0  0  0  0  0  0  0
   16.3105   -8.8748   19.1873 H   0  0  0  0  0  0  0  0  0  0  0  0
   15.0464   -7.4119   20.0168 C   0  0  0  0  0  0  0  0  0  0  0  0
   16.0790   -6.9001   20.9738 C   0  0  0  0  0  0  0  0  0  0  0  0
   17.2158   -6.5420   20.5673 O   0  0  0  0  0  0  0  0  0  0  0  0
   15.7772   -6.8222   22.3264 O   0  0  0  0  0  0  0  0  0  0  0  0
   14.9328   -7.0873   22.6341 H   0  0  0  0  0  0  0  0  0  0  0  0
   14.1450   -6.3070   19.4751 C   0  0  0  0  0  0  0  0  0  0  0  0
   12.8285   -5.9010   20.6624 P   0  0  0  0  0  0  0  0  0  0  0  0
   13.0884   -4.5448   21.2775 O   0  0  0  0  0  0  0  0  0  0  0  0
   11.3427   -5.8729   19.8563 O   0  0  0  0  0  0  0  0  0  0  0  0
   12.7824   -7.0730   21.8807 O   0  0  0  0  0  0  0  0  0  0  0  0
   11.3669   -5.2011   19.1569 H   0  0  0  0  0  0  0  0  0  0  0  0
   13.6341   -7.0909   22.3446 H   0  0  0  0  0  0  0  0  0  0  0  0
   14.9288   -9.5488   12.2616 C   0  0  0  0  0  0  0  0  0  0  0  0
   14.3917  -10.6968   11.4288 C   0  0  0  0  0  0  0  0  0  0  0  0
   12.8942  -10.5353   11.2758 C   0  0  0  0  0  0  0  0  0  0  0  0
   13.8160  -10.1480   10.1398 C   0  0  0  0  0  0  0  0  0  0  0  0
   17.2371  -11.3504   11.2762 C   0  0  0  0  0  0  0  0  0  0  0  0
   17.6525  -10.2648   10.3449 C   0  0  0  0  0  0  0  0  0  0  0  0
   17.1234  -10.1275    9.1010 N   0  0  0  0  0  0  0  0  0  0  0  0
   17.7354   -9.0242    8.6497 C   0  0  0  0  0  0  0  0  0  0  0  0
   18.5823   -8.5340    9.5968 C   0  0  0  0  0  0  0  0  0  0  0  0
   18.5472   -9.3034   10.6935 N   0  0  0  0  0  0  0  0  0  0  0  0
   19.3415   -7.3852    9.3883 C   0  0  0  0  0  0  0  0  0  0  0  0
   19.2050   -6.7369    8.1466 C   0  0  0  0  0  0  0  0  0  0  0  0
   18.3262   -7.2455    7.1639 C   0  0  0  0  0  0  0  0  0  0  0  0
   17.5734   -8.4088    7.4110 C   0  0  0  0  0  0  0  0  0  0  0  0
   19.0436   -9.1987   11.5373 H   0  0  0  0  0  0  0  0  0  0  0  0
  1  2  1  0  0  0
  2  3  1  0  0  0
  3  4  2  0  0  0
  4  5  1  0  0  0
  4  6  1  0  0  0
  6  7  2  0  0  0
  7  8  1  0  0  0
  8 10  1  0  0  0
 10 11  2  0  0  0
 10 12  1  0  0  0
 12 14  1  0  0  0
 14 19  1  0  0  0
 19 20  1  0  0  0
 20 21  2  0  0  0
 20 22  1  0  0  0
 20 23  1  0  0  0
 14 15  1  0  0  0
 15 16  2  0  0  0
 15 17  1  0  0  0
  8  9  2  0  0  0
  2 26  1  0  0  0
 26 27  1  0  0  0
 27 28  1  0  0  0
 28 29  1  0  0  0
  1 30  1  0  0  0
 30 31  1  0  0  0
 31 32  2  0  0  0
 32 33  1  0  0  0
 33 34  2  0  0  0
 34 35  1  0  0  0
 34 36  1  0  0  0
 36 37  2  0  0  0
 37 38  1  0  0  0
 38 39  2  0  0  0
  5  1  2  0  0  0
 29 27  1  0  0  0
 35 31  1  0  0  0
  9  3  1  0  0  0
 39 33  1  0  0  0
 12 13  1  0  0  0
 22 24  1  0  0  0
 23 25  1  0  0  0
 17 18  1  0  0  0
 35 40  1  0  0  0
M  END
>  <minimizedAffinity>
-3.90333

>  <minimizedRMSD>
1.65975

$$$$
CHEMBL3968579 PubChem-86692153


 29 33  0  0  0  0  0  0  0  0999 V2000
   18.7004  -11.1489   13.7707 C   0  0  0  0  0  0  0  0  0  0  0  0
   19.2976   -9.7506   13.8674 C   0  0  0  0  0  0  0  0  0  0  0  0
   19.0587   -9.0958   12.5194 C   0  0  0  0  0  0  0  0  0  0  0  0
   18.1485   -9.9687   11.7997 N   0  0  0  0  0  0  0  0  0  0  0  0
   17.8487  -11.1931   12.5151 C   0  0  0  0  0  0  0  0  0  0  0  0
   17.5841   -9.6792   10.5086 C   0  0  0  0  0  0  0  0  0  0  0  0
   16.3822  -10.2258   10.1517 N   0  0  0  0  0  0  0  0  0  0  0  0
   15.8086   -9.9742    8.9345 C   0  0  0  0  0  0  0  0  0  0  0  0
   16.4291   -9.1594    8.0327 N   0  0  0  0  0  0  0  0  0  0  0  0
   17.6196   -8.6102    8.3720 C   0  0  0  0  0  0  0  0  0  0  0  0
   18.3484   -7.7926    7.6013 N   0  0  0  0  0  0  0  0  0  0  0  0
   19.4386   -7.5052    8.3548 C   0  0  0  0  0  0  0  0  0  0  0  0
   19.3940   -8.1419    9.5974 C   0  0  0  0  0  0  0  0  0  0  0  0
   18.2096   -8.8448    9.5741 C   0  0  0  0  0  0  0  0  0  0  0  0
   18.1399   -7.4728    6.6938 H   0  0  0  0  0  0  0  0  0  0  0  0
   17.9728  -12.8894   15.3835 C   0  0  0  0  0  0  0  0  0  0  0  0
   17.9291  -11.4969   14.9660 N   0  0  0  0  0  0  0  0  0  0  0  0
   17.1464  -10.5509   15.7274 C   0  0  0  0  0  0  0  0  0  0  0  0
   16.1808   -9.7420   15.1093 C   0  0  0  0  0  0  0  0  0  0  0  0
   15.4411   -8.8394   15.8728 C   0  0  0  0  0  0  0  0  0  0  0  0
   15.6616   -8.7418   17.2492 C   0  0  0  0  0  0  0  0  0  0  0  0
   16.6312   -9.5618   17.8349 C   0  0  0  0  0  0  0  0  0  0  0  0
   17.3417  -10.4354   17.0724 N   0  0  0  0  0  0  0  0  0  0  0  0
   14.8888   -7.7948   18.0661 C   0  0  0  0  0  0  0  0  0  0  0  0
   13.8336   -7.0888   17.6197 N   0  0  0  0  0  0  0  0  0  0  0  0
   13.4435   -6.3739   18.6622 N   0  0  0  0  0  0  0  0  0  0  0  0
   14.2247   -6.6310   19.6993 N   0  0  0  0  0  0  0  0  0  0  0  0
   15.1434   -7.5197   19.3586 N   0  0  0  0  0  0  0  0  0  0  0  0
   14.1355   -6.2221   20.5904 H   0  0  0  0  0  0  0  0  0  0  0  0
 16 17  1  0  0  0
  1 17  1  0  0  0
  1  2  1  0  0  0
  2  3  1  0  0  0
  3  4  1  0  0  0
  4  5  1  0  0  0
  4  6  1  0  0  0
  6  7  2  0  0  0
  7  8  1  0  0  0
  8  9  2  0  0  0
  9 10  1  0  0  0
 10 11  1  0  0  0
 11 12  1  0  0  0
 12 13  2  0  0  0
 13 14  1  0  0  0
 17 18  1  0  0  0
 18 19  2  0  0  0
 19 20  1  0  0  0
 20 21  2  0  0  0
 21 22  1  0  0  0
 22 23  2  0  0  0
 21 24  1  0  0  0
 24 25  1  0  0  0
 25 26  2  0  0  0
 26 27  1  0  0  0
 27 28  1  0  0  0
  5  1  1  0  0  0
 14  6  1  0  0  0
 23 18  1  0  0  0
 28 24  2  0  0  0
 14 10  2  0  0  0
 11 15  1  0  0  0
 27 29  1  0  0  0
M  END
>  <minimizedAffinity>
-5.16607

>  <minimizedRMSD>
1.66197

$$$$
CHEMBL2336024 PubChem-71625036 ZINC000095587855


 31 34  0  0  0  0  0  0  0  0999 V2000
   18.4697  -12.3839   13.6030 C   0  0  0  0  0  0  0  0  0  0  0  0
   17.7616  -11.3736   14.4423 C   0  0  0  0  0  0  0  0  0  0  0  0
   17.5927  -11.6350   15.8047 C   0  0  0  0  0  0  0  0  0  0  0  0
   16.9370  -10.7126   16.6232 C   0  0  0  0  0  0  0  0  0  0  0  0
   16.4487   -9.5117   16.0908 C   0  0  0  0  0  0  0  0  0  0  0  0
   16.6048   -9.2587   14.7213 C   0  0  0  0  0  0  0  0  0  0  0  0
   17.2605  -10.1770   13.8951 C   0  0  0  0  0  0  0  0  0  0  0  0
   15.7367   -8.5384   16.9453 C   0  0  0  0  0  0  0  0  0  0  0  0
   14.5726   -8.1761   16.6279 O   0  0  0  0  0  0  0  0  0  0  0  0
   16.3071   -8.0282   18.1589 N   0  0  0  0  0  0  0  0  0  0  0  0
   15.6963   -7.8937   18.9192 H   0  0  0  0  0  0  0  0  0  0  0  0
   17.6861   -7.6967   18.3636 C   0  0  0  0  0  0  0  0  0  0  0  0
   18.0601   -7.0369   19.5373 C   0  0  0  0  0  0  0  0  0  0  0  0
   19.3926   -6.6743   19.7474 C   0  0  0  0  0  0  0  0  0  0  0  0
   20.3573   -6.9631   18.7787 C   0  0  0  0  0  0  0  0  0  0  0  0
   19.9993   -7.6128   17.5863 C   0  0  0  0  0  0  0  0  0  0  0  0
   18.6557   -7.9670   17.3869 C   0  0  0  0  0  0  0  0  0  0  0  0
   20.9909   -7.9120   16.5862 N   0  0  0  0  0  0  0  0  0  0  0  0
   22.3251   -7.3351   16.6502 C   0  0  0  0  0  0  0  0  0  0  0  0
   20.6981   -8.8115   15.4804 C   0  0  0  0  0  0  0  0  0  0  0  0
   17.4044   -9.8691   12.4955 C   0  0  0  0  0  0  0  0  0  0  0  0
   17.5252   -9.6119   11.3237 C   0  0  0  0  0  0  0  0  0  0  0  0
   17.6694   -9.3065    9.9292 C   0  0  0  0  0  0  0  0  0  0  0  0
   16.8030   -9.8792    8.9775 C   0  0  0  0  0  0  0  0  0  0  0  0
   16.9420   -9.5877    7.6507 N   0  0  0  0  0  0  0  0  0  0  0  0
   17.9288   -8.7383    7.2726 C   0  0  0  0  0  0  0  0  0  0  0  0
   18.2374   -8.3170    5.9995 C   0  0  0  0  0  0  0  0  0  0  0  0
   19.3273   -7.4658    6.2258 C   0  0  0  0  0  0  0  0  0  0  0  0
   19.6201   -7.4074    7.5489 N   0  0  0  0  0  0  0  0  0  0  0  0
   18.7560   -8.1891    8.1623 N   0  0  0  0  0  0  0  0  0  0  0  0
   18.6749   -8.4340    9.4915 C   0  0  0  0  0  0  0  0  0  0  0  0
  1  2  1  0  0  0
  2  3  2  0  0  0
  3  4  1  0  0  0
  4  5  2  0  0  0
  5  8  1  0  0  0
  5  6  1  0  0  0
  8  9  2  0  0  0
  8 10  1  0  0  0
 10 12  1  0  0  0
 12 13  2  0  0  0
 13 14  1  0  0  0
 14 15  2  0  0  0
 15 16  1  0  0  0
 16 18  1  0  0  0
 16 17  2  0  0  0
 18 19  1  0  0  0
 18 20  1  0  0  0
 17 12  1  0  0  0
  6  7  2  0  0  0
  7 21  1  0  0  0
  7  2  1  0  0  0
 21 22  3  0  0  0
 22 23  1  0  0  0
 23 24  1  0  0  0
 24 25  2  0  0  0
 25 26  1  0  0  0
 26 27  2  0  0  0
 27 28  1  0  0  0
 28 29  2  0  0  0
 29 30  1  0  0  0
 30 31  1  0  0  0
 30 26  1  0  0  0
 31 23  2  0  0  0
 10 11  1  0  0  0
M  END
>  <minimizedAffinity>
4.26855

>  <minimizedRMSD>
1.66246

$$$$
CHEMBL4855993 PubChem-164610806


 33 35  0  0  0  0  0  0  0  0999 V2000
   17.8018   -8.8748   10.7773 N   0  0  0  0  0  0  0  0  0  0  0  0
   17.4197   -9.8772   11.7242 C   0  0  0  0  0  0  0  0  0  0  0  0
   16.8996  -10.9601   11.3409 O   0  0  0  0  0  0  0  0  0  0  0  0
   17.6409   -9.6387   13.1155 N   0  0  0  0  0  0  0  0  0  0  0  0
   18.2136   -8.0522   11.1281 H   0  0  0  0  0  0  0  0  0  0  0  0
   18.0850   -8.8024   13.3847 H   0  0  0  0  0  0  0  0  0  0  0  0
   17.9429   -8.6990    4.7306 C   0  0  0  0  0  0  0  0  0  0  0  0
   18.5391   -8.3081    6.0454 C   0  0  0  0  0  0  0  0  0  0  0  0
   19.7079   -7.5075    6.1523 C   0  0  0  0  0  0  0  0  0  0  0  0
   20.1811   -7.2003    7.4482 C   0  0  0  0  0  0  0  0  0  0  0  0
   19.5404   -7.6550    8.5624 N   0  0  0  0  0  0  0  0  0  0  0  0
   18.4321   -8.4135    8.4037 C   0  0  0  0  0  0  0  0  0  0  0  0
   17.6317   -8.9753    9.3592 C   0  0  0  0  0  0  0  0  0  0  0  0
   16.6363   -9.6477    8.6530 C   0  0  0  0  0  0  0  0  0  0  0  0
   16.8664   -9.4723    7.3252 N   0  0  0  0  0  0  0  0  0  0  0  0
   17.9535   -8.7255    7.1983 N   0  0  0  0  0  0  0  0  0  0  0  0
   20.4569   -6.9779    4.9888 C   0  0  0  0  0  0  0  0  0  0  0  0
   21.0849   -7.7422    4.2100 O   0  0  0  0  0  0  0  0  0  0  0  0
   20.4735   -5.6096    4.7421 O   0  0  0  0  0  0  0  0  0  0  0  0
   20.0119   -5.0254    5.3109 H   0  0  0  0  0  0  0  0  0  0  0  0
   17.2381  -10.5786   14.1534 C   0  0  0  0  0  0  0  0  0  0  0  0
   16.6756   -9.8498   15.3265 C   0  0  0  0  0  0  0  0  0  0  0  0
   16.9901  -10.2620   16.6264 C   0  0  0  0  0  0  0  0  0  0  0  0
   16.4733   -9.5688   17.7247 C   0  0  0  0  0  0  0  0  0  0  0  0
   15.6405   -8.4617   17.5274 C   0  0  0  0  0  0  0  0  0  0  0  0
   15.3318   -8.0464   16.2272 C   0  0  0  0  0  0  0  0  0  0  0  0
   15.8484   -8.7393   15.1285 C   0  0  0  0  0  0  0  0  0  0  0  0
   15.0018   -7.5848   18.9055 S   0  0  0  0  0  0  0  0  0  0  0  0
   14.1533   -6.4417   18.4254 O   0  0  0  0  0  0  0  0  0  0  0  0
   14.1701   -8.5074   19.7514 O   0  0  0  0  0  0  0  0  0  0  0  0
   16.3039   -6.9734   19.8626 N   0  0  0  0  0  0  0  0  0  0  0  0
   16.8755   -6.3453   19.2977 H   0  0  0  0  0  0  0  0  0  0  0  0
   16.8770   -7.7500   20.1928 H   0  0  0  0  0  0  0  0  0  0  0  0
  7  8  1  0  0  0
  8  9  2  0  0  0
  9 10  1  0  0  0
 10 11  2  0  0  0
 11 12  1  0  0  0
 12 13  2  0  0  0
 13 14  1  0  0  0
 14 15  2  0  0  0
 15 16  1  0  0  0
 13  1  1  0  0  0
  1  2  1  0  0  0
  2  3  2  0  0  0
  2  4  1  0  0  0
  4 21  1  0  0  0
 21 22  1  0  0  0
 22 23  2  0  0  0
 23 24  1  0  0  0
 24 25  2  0  0  0
 25 26  1  0  0  0
 26 27  2  0  0  0
 25 28  1  0  0  0
 28 29  2  0  0  0
 28 30  2  0  0  0
 28 31  1  0  0  0
  9 17  1  0  0  0
 17 18  2  0  0  0
 17 19  1  0  0  0
 16  8  1  0  0  0
 16 12  1  0  0  0
 27 22  1  0  0  0
  1  5  1  0  0  0
  4  6  1  0  0  0
 31 32  1  0  0  0
 31 33  1  0  0  0
 19 20  1  0  0  0
M  END
>  <minimizedAffinity>
-5.48685

>  <minimizedRMSD>
1.66253

$$$$
CHEMBL5191629 PubChem-139533573


 36 39  0  0  0  0  0  0  0  0999 V2000
   17.4440  -10.2439   13.2841 C   0  0  0  0  0  0  0  0  0  0  0  0
   17.2887   -9.0985   12.4984 C   0  0  0  0  0  0  0  0  0  0  0  0
   18.1005   -8.8857   11.3807 C   0  0  0  0  0  0  0  0  0  0  0  0
   19.0803   -9.8371   11.0305 C   0  0  0  0  0  0  0  0  0  0  0  0
   19.2493  -10.9701   11.8324 C   0  0  0  0  0  0  0  0  0  0  0  0
   18.4359  -11.1755   12.9491 C   0  0  0  0  0  0  0  0  0  0  0  0
   17.9465   -7.7423   10.6685 F   0  0  0  0  0  0  0  0  0  0  0  0
   16.5867  -10.4233   14.4185 N   0  0  0  0  0  0  0  0  0  0  0  0
   15.6193  -10.4645   14.2407 H   0  0  0  0  0  0  0  0  0  0  0  0
   16.6194   -9.7069   16.8154 C   0  0  0  0  0  0  0  0  0  0  0  0
   17.2509  -10.1998   17.9432 C   0  0  0  0  0  0  0  0  0  0  0  0
   17.9554  -11.2807   17.5544 N   0  0  0  0  0  0  0  0  0  0  0  0
   17.8155  -11.5061   16.2583 N   0  0  0  0  0  0  0  0  0  0  0  0
   16.9974  -10.5488   15.7865 C   0  0  0  0  0  0  0  0  0  0  0  0
   18.7695  -12.1020   18.4299 C   0  0  0  0  0  0  0  0  0  0  0  0
   14.8612   -8.2451   17.8431 N   0  0  0  0  0  0  0  0  0  0  0  0
   15.7375   -8.5324   16.7515 C   0  0  0  0  0  0  0  0  0  0  0  0
   15.7535   -7.7828   15.7379 O   0  0  0  0  0  0  0  0  0  0  0  0
   14.8656   -8.8402   18.6274 H   0  0  0  0  0  0  0  0  0  0  0  0
   12.7379   -7.4145   18.6646 C   0  0  0  0  0  0  0  0  0  0  0  0
   13.9635   -7.1020   17.8321 C   0  0  0  0  0  0  0  0  0  0  0  0
   19.9205   -9.6777    9.9189 O   0  0  0  0  0  0  0  0  0  0  0  0
   19.7024   -8.7816    8.8619 C   0  0  0  0  0  0  0  0  0  0  0  0
   18.4147   -8.4915    8.3617 C   0  0  0  0  0  0  0  0  0  0  0  0
   17.2674   -9.1097    8.8715 C   0  0  0  0  0  0  0  0  0  0  0  0
   15.9968   -8.8079    8.3588 C   0  0  0  0  0  0  0  0  0  0  0  0
   15.8725   -7.8807    7.3129 C   0  0  0  0  0  0  0  0  0  0  0  0
   17.0222   -7.2714    6.7842 C   0  0  0  0  0  0  0  0  0  0  0  0
   18.2855   -7.5743    7.2954 C   0  0  0  0  0  0  0  0  0  0  0  0
   19.3909   -6.9992    6.7532 N   0  0  0  0  0  0  0  0  0  0  0  0
   20.6390   -7.2879    7.2072 C   0  0  0  0  0  0  0  0  0  0  0  0
   20.8140   -8.1855    8.2616 C   0  0  0  0  0  0  0  0  0  0  0  0
   14.6003   -7.5828    6.8127 O   0  0  0  0  0  0  0  0  0  0  0  0
   14.2821   -6.3343    6.2131 C   0  0  0  0  0  0  0  0  0  0  0  0
   14.8474   -9.4158    8.8755 O   0  0  0  0  0  0  0  0  0  0  0  0
   14.8688  -10.2405   10.0327 C   0  0  0  0  0  0  0  0  0  0  0  0
 20 21  1  0  0  0
 21 16  1  0  0  0
 16 17  1  0  0  0
 17 18  2  0  0  0
 17 10  1  0  0  0
 10 11  2  0  0  0
 11 12  1  0  0  0
 12 13  1  0  0  0
 13 14  2  0  0  0
 14  8  1  0  0  0
  8  1  1  0  0  0
  1  2  2  0  0  0
  2  3  1  0  0  0
  3  4  2  0  0  0
  4  5  1  0  0  0
  5  6  2  0  0  0
  4 22  1  0  0  0
 22 23  1  0  0  0
 23 24  1  0  0  0
 24 25  2  0  0  0
 25 26  1  0  0  0
 26 27  2  0  0  0
 27 28  1  0  0  0
 28 29  2  0  0  0
 29 30  1  0  0  0
 30 31  2  0  0  0
 31 32  1  0  0  0
 27 33  1  0  0  0
 33 34  1  0  0  0
 26 35  1  0  0  0
 35 36  1  0  0  0
  3  7  1  0  0  0
 12 15  1  0  0  0
 14 10  1  0  0  0
  6  1  1  0  0  0
 32 23  2  0  0  0
 29 24  1  0  0  0
 16 19  1  0  0  0
  8  9  1  0  0  0
M  END
>  <minimizedAffinity>
11.51231

>  <minimizedRMSD>
1.66409

$$$$
CHEMBL251724 PubChem-25093460


 33 36  0  0  0  0  0  0  0  0999 V2000
   17.2288  -10.2138   16.7020 C   0  0  0  0  0  0  0  0  0  0  0  0
   17.6613  -11.5021   17.0302 C   0  0  0  0  0  0  0  0  0  0  0  0
   18.1188  -12.3640   16.0304 C   0  0  0  0  0  0  0  0  0  0  0  0
   18.1496  -11.9372   14.6999 C   0  0  0  0  0  0  0  0  0  0  0  0
   17.7265  -10.6439   14.3595 C   0  0  0  0  0  0  0  0  0  0  0  0
   17.2709   -9.7856   15.3697 C   0  0  0  0  0  0  0  0  0  0  0  0
   17.7587  -10.1915   12.9571 C   0  0  0  0  0  0  0  0  0  0  0  0
   16.7256  -10.3851   12.0286 C   0  0  0  0  0  0  0  0  0  0  0  0
   17.0538   -9.8417   10.7864 C   0  0  0  0  0  0  0  0  0  0  0  0
   16.2602   -9.8658    9.6759 N   0  0  0  0  0  0  0  0  0  0  0  0
   16.6954   -9.2944    8.5054 C   0  0  0  0  0  0  0  0  0  0  0  0
   17.9671   -8.6912    8.4859 C   0  0  0  0  0  0  0  0  0  0  0  0
   18.5519   -8.0858    7.4321 N   0  0  0  0  0  0  0  0  0  0  0  0
   19.7544   -7.6702    7.9079 C   0  0  0  0  0  0  0  0  0  0  0  0
   19.8591   -8.0393    9.2407 C   0  0  0  0  0  0  0  0  0  0  0  0
   21.0243   -7.7706   10.1293 C   0  0  0  0  0  0  0  0  0  0  0  0
   18.7323   -8.6781    9.5895 N   0  0  0  0  0  0  0  0  0  0  0  0
   18.2988   -9.2433   10.7420 C   0  0  0  0  0  0  0  0  0  0  0  0
   19.0546   -9.3559   12.2336 S   0  0  0  0  0  0  0  0  0  0  0  0
   15.8801   -9.3094    7.3326 N   0  0  0  0  0  0  0  0  0  0  0  0
   15.0519  -10.4513    6.9840 C   0  0  0  0  0  0  0  0  0  0  0  0
   15.8792   -8.5216    6.7421 H   0  0  0  0  0  0  0  0  0  0  0  0
   16.7556   -9.2966   17.7879 C   0  0  0  0  0  0  0  0  0  0  0  0
   15.8456   -8.1665   17.2945 C   0  0  0  0  0  0  0  0  0  0  0  0
   15.0952   -8.5650   16.1137 N   0  0  0  0  0  0  0  0  0  0  0  0
   14.4733   -9.3379   16.3509 H   0  0  0  0  0  0  0  0  0  0  0  0
   15.7426   -8.8614   15.3834 H   0  0  0  0  0  0  0  0  0  0  0  0
   15.1333   -8.0808   19.7145 N   0  0  0  0  0  0  0  0  0  0  0  0
   14.9354   -7.6518   18.3656 C   0  0  0  0  0  0  0  0  0  0  0  0
   13.9812   -6.8796   18.0739 O   0  0  0  0  0  0  0  0  0  0  0  0
   15.8635   -8.7131   19.9045 H   0  0  0  0  0  0  0  0  0  0  0  0
   14.9936   -6.4974   21.5653 C   0  0  0  0  0  0  0  0  0  0  0  0
   14.3031   -7.6244   20.8200 C   0  0  0  0  0  0  0  0  0  0  0  0
 32 33  1  0  0  0
 33 28  1  0  0  0
 28 29  1  0  0  0
 29 30  2  0  0  0
 24 29  1  0  0  0
 24 25  1  0  0  0
 24 23  1  0  0  0
 23  1  1  0  0  0
  1  2  2  0  0  0
  2  3  1  0  0  0
  3  4  2  0  0  0
  4  5  1  0  0  0
  5  7  1  0  0  0
  5  6  2  0  0  0
  7  8  2  0  0  0
  8  9  1  0  0  0
  9 10  1  0  0  0
 10 11  2  0  0  0
 11 20  1  0  0  0
 11 12  1  0  0  0
 20 21  1  0  0  0
 12 13  2  0  0  0
 13 14  1  0  0  0
 14 15  2  0  0  0
 15 16  1  0  0  0
 15 17  1  0  0  0
 17 18  1  0  0  0
 17 12  1  0  0  0
 18 19  1  0  0  0
 18  9  2  0  0  0
 19  7  1  0  0  0
  6  1  1  0  0  0
 28 31  1  0  0  0
 25 26  1  0  0  0
 25 27  1  0  0  0
 20 22  1  0  0  0
M  END
>  <minimizedAffinity>
1.59491

>  <minimizedRMSD>
1.66579

$$$$
CHEMBL3352837


 37 41  0  0  0  0  0  0  0  0999 V2000
   16.0130   -8.9595   17.2730 C   0  0  0  0  0  0  0  0  0  0  0  0
   15.9563   -8.6783   15.9015 C   0  0  0  0  0  0  0  0  0  0  0  0
   16.6092   -9.4965   14.9674 C   0  0  0  0  0  0  0  0  0  0  0  0
   17.3275  -10.6158   15.4251 C   0  0  0  0  0  0  0  0  0  0  0  0
   17.3866  -10.9000   16.7923 C   0  0  0  0  0  0  0  0  0  0  0  0
   16.7335  -10.0769   17.7117 C   0  0  0  0  0  0  0  0  0  0  0  0
   18.0361  -11.5176   14.4730 C   0  0  0  0  0  0  0  0  0  0  0  0
   15.3225   -8.0898   18.2414 C   0  0  0  0  0  0  0  0  0  0  0  0
   14.5857   -7.1539   17.8263 O   0  0  0  0  0  0  0  0  0  0  0  0
   15.4946   -8.3153   19.6490 N   0  0  0  0  0  0  0  0  0  0  0  0
   16.0825   -9.0618   19.9065 H   0  0  0  0  0  0  0  0  0  0  0  0
   14.9006   -7.5682   20.7194 C   0  0  0  0  0  0  0  0  0  0  0  0
   15.7389   -6.9173   21.6314 C   0  0  0  0  0  0  0  0  0  0  0  0
   15.1978   -6.1790   22.6886 C   0  0  0  0  0  0  0  0  0  0  0  0
   13.8113   -6.0878   22.8394 C   0  0  0  0  0  0  0  0  0  0  0  0
   12.9666   -6.7346   21.9335 C   0  0  0  0  0  0  0  0  0  0  0  0
   13.5092   -7.4722   20.8772 C   0  0  0  0  0  0  0  0  0  0  0  0
   16.0665   -5.5149   23.6187 C   0  0  0  0  0  0  0  0  0  0  0  0
   16.7667   -4.9795   24.3685 N   0  0  0  0  0  0  0  0  0  0  0  0
   16.5546   -9.2188   13.5584 N   0  0  0  0  0  0  0  0  0  0  0  0
   16.7347   -9.9802   12.9609 H   0  0  0  0  0  0  0  0  0  0  0  0
   16.2694   -7.9661   12.9147 C   0  0  0  0  0  0  0  0  0  0  0  0
   16.2588   -7.8778   11.5026 C   0  0  0  0  0  0  0  0  0  0  0  0
   16.0111   -6.6268   10.9196 C   0  0  0  0  0  0  0  0  0  0  0  0
   15.7820   -5.5030   11.7097 C   0  0  0  0  0  0  0  0  0  0  0  0
   15.8005   -5.6351   13.0949 C   0  0  0  0  0  0  0  0  0  0  0  0
   16.0423   -6.8467   13.6586 N   0  0  0  0  0  0  0  0  0  0  0  0
   16.4756   -9.0635   10.6300 C   0  0  0  0  0  0  0  0  0  0  0  0
   15.9282  -10.2761   10.9531 N   0  0  0  0  0  0  0  0  0  0  0  0
   16.0994  -11.3828   10.1625 C   0  0  0  0  0  0  0  0  0  0  0  0
   16.8301  -11.3052    9.0113 N   0  0  0  0  0  0  0  0  0  0  0  0
   17.3716  -10.1093    8.6814 C   0  0  0  0  0  0  0  0  0  0  0  0
   18.1247   -9.8443    7.6072 N   0  0  0  0  0  0  0  0  0  0  0  0
   18.4130   -8.5243    7.7691 C   0  0  0  0  0  0  0  0  0  0  0  0
   17.8720   -7.9759    8.8912 N   0  0  0  0  0  0  0  0  0  0  0  0
   17.2153   -9.0061    9.4442 C   0  0  0  0  0  0  0  0  0  0  0  0
   18.4006  -10.4512    6.8828 H   0  0  0  0  0  0  0  0  0  0  0  0
  8  9  2  0  0  0
  8  1  1  0  0  0
  1  2  2  0  0  0
  2  3  1  0  0  0
  3  4  2  0  0  0
  4  5  1  0  0  0
  5  6  2  0  0  0
  4  7  1  0  0  0
  3 20  1  0  0  0
 20 22  1  0  0  0
 22 23  1  0  0  0
 23 24  2  0  0  0
 24 25  1  0  0  0
 25 26  2  0  0  0
 26 27  1  0  0  0
 23 28  1  0  0  0
 28 29  2  0  0  0
 29 30  1  0  0  0
 30 31  2  0  0  0
 31 32  1  0  0  0
 32 33  1  0  0  0
 33 34  1  0  0  0
 34 35  2  0  0  0
 35 36  1  0  0  0
  8 10  1  0  0  0
 10 12  1  0  0  0
 12 13  2  0  0  0
 13 14  1  0  0  0
 14 15  2  0  0  0
 15 16  1  0  0  0
 16 17  2  0  0  0
 14 18  1  0  0  0
 18 19  3  0  0  0
  6  1  1  0  0  0
 27 22  2  0  0  0
 36 28  1  0  0  0
 17 12  1  0  0  0
 36 32  2  0  0  0
 20 21  1  0  0  0
 33 37  1  0  0  0
 10 11  1  0  0  0
M  END
>  <minimizedAffinity>
9.89516

>  <minimizedRMSD>
1.66822

$$$$
CHEMBL194779 PubChem-44401484


 25 26  0  0  0  0  0  0  0  0999 V2000
   16.0866   -9.7043   12.1776 C   0  0  0  0  0  0  0  0  0  0  0  0
   15.0746  -10.1194   11.5516 O   0  0  0  0  0  0  0  0  0  0  0  0
   17.2577   -9.2565   11.4835 N   0  0  0  0  0  0  0  0  0  0  0  0
   18.0164   -8.9657   12.0394 H   0  0  0  0  0  0  0  0  0  0  0  0
   17.4382   -9.1885   10.0626 C   0  0  0  0  0  0  0  0  0  0  0  0
   16.6554   -9.9402    9.1733 C   0  0  0  0  0  0  0  0  0  0  0  0
   16.8539   -9.8484    7.8303 N   0  0  0  0  0  0  0  0  0  0  0  0
   17.8079   -9.0329    7.3086 C   0  0  0  0  0  0  0  0  0  0  0  0
   17.9909   -8.9573    5.9251 C   0  0  0  0  0  0  0  0  0  0  0  0
   18.9749   -8.1152    5.3964 C   0  0  0  0  0  0  0  0  0  0  0  0
   19.7768   -7.3479    6.2489 C   0  0  0  0  0  0  0  0  0  0  0  0
   19.5989   -7.4187    7.6344 C   0  0  0  0  0  0  0  0  0  0  0  0
   18.6173   -8.2585    8.1670 C   0  0  0  0  0  0  0  0  0  0  0  0
   18.4237   -8.3438    9.5455 C   0  0  0  0  0  0  0  0  0  0  0  0
   16.0785   -9.6918   13.6664 C   0  0  0  0  0  0  0  0  0  0  0  0
   16.1704   -8.2676   14.1777 C   0  0  0  0  0  0  0  0  0  0  0  0
   16.9004   -8.2522   15.5061 C   0  0  0  0  0  0  0  0  0  0  0  0
   16.2936   -9.2640   16.4648 C   0  0  0  0  0  0  0  0  0  0  0  0
   14.2464   -7.5124   17.4377 O   0  0  0  0  0  0  0  0  0  0  0  0
   15.1900   -7.8077   18.2185 C   0  0  0  0  0  0  0  0  0  0  0  0
   16.2190   -8.7110   17.8100 N   0  0  0  0  0  0  0  0  0  0  0  0
   16.9063   -8.9705   18.4654 H   0  0  0  0  0  0  0  0  0  0  0  0
   15.2085   -7.2465   19.5954 C   0  0  0  0  0  0  0  0  0  0  0  0
   13.5825   -7.4687   20.3714 S   0  0  0  0  0  0  0  0  0  0  0  0
   12.6378   -6.8218   19.6375 H   0  0  0  0  0  0  0  0  0  0  0  0
 19 20  2  0  0  0
 20 23  1  0  0  0
 20 21  1  0  0  0
 23 24  1  0  0  0
 21 18  1  0  0  0
 18 17  1  0  0  0
 17 16  1  0  0  0
 16 15  1  0  0  0
 15  1  1  0  0  0
  1  2  2  0  0  0
  1  3  1  0  0  0
  3  5  1  0  0  0
  5  6  2  0  0  0
  6  7  1  0  0  0
  7  8  2  0  0  0
  8  9  1  0  0  0
  9 10  2  0  0  0
 10 11  1  0  0  0
 11 12  2  0  0  0
 12 13  1  0  0  0
 13 14  2  0  0  0
 13  8  1  0  0  0
 14  5  1  0  0  0
 24 25  1  0  0  0
 21 22  1  0  0  0
  3  4  1  0  0  0
M  END
>  <minimizedAffinity>
-8.31867

>  <minimizedRMSD>
1.66898

$$$$
CHEMBL2235551 PubChem-25108387


 30 33  0  0  0  0  0  0  0  0999 V2000
   18.2326  -12.0479   15.7224 S   0  0  0  0  0  0  0  0  0  0  0  0
   18.0588  -11.2101   14.1521 C   0  0  0  0  0  0  0  0  0  0  0  0
   18.9471  -11.3030   13.1453 N   0  0  0  0  0  0  0  0  0  0  0  0
   18.4723  -10.5504   12.1649 N   0  0  0  0  0  0  0  0  0  0  0  0
   17.3171  -10.0291   12.6181 C   0  0  0  0  0  0  0  0  0  0  0  0
   17.0523  -10.4326   13.8363 O   0  0  0  0  0  0  0  0  0  0  0  0
   16.4338   -9.1367   11.8171 C   0  0  0  0  0  0  0  0  0  0  0  0
   16.5923   -9.4254   10.4002 N   0  0  0  0  0  0  0  0  0  0  0  0
   15.9226  -10.3624    9.7371 N   0  0  0  0  0  0  0  0  0  0  0  0
   16.3282  -10.4287    8.4687 N   0  0  0  0  0  0  0  0  0  0  0  0
   17.2945   -9.4996    8.3461 C   0  0  0  0  0  0  0  0  0  0  0  0
   18.0542   -9.1735    7.2272 C   0  0  0  0  0  0  0  0  0  0  0  0
   19.0205   -8.1596    7.3838 C   0  0  0  0  0  0  0  0  0  0  0  0
   19.1971   -7.5160    8.6326 C   0  0  0  0  0  0  0  0  0  0  0  0
   18.4094   -7.8750    9.7440 C   0  0  0  0  0  0  0  0  0  0  0  0
   17.4643   -8.8782    9.5442 C   0  0  0  0  0  0  0  0  0  0  0  0
   16.9917  -10.9934   16.5267 C   0  0  0  0  0  0  0  0  0  0  0  0
   17.4393   -9.5447   16.4821 C   0  0  0  0  0  0  0  0  0  0  0  0
   15.6705   -8.0663   15.9169 O   0  0  0  0  0  0  0  0  0  0  0  0
   16.3014   -8.6548   16.8346 C   0  0  0  0  0  0  0  0  0  0  0  0
   15.9243   -8.5089   18.2099 N   0  0  0  0  0  0  0  0  0  0  0  0
   16.4567   -9.0100   18.8691 H   0  0  0  0  0  0  0  0  0  0  0  0
   14.8516   -7.7084   18.7247 C   0  0  0  0  0  0  0  0  0  0  0  0
   13.7767   -7.3013   17.9216 C   0  0  0  0  0  0  0  0  0  0  0  0
   12.7497   -6.5214   18.4586 C   0  0  0  0  0  0  0  0  0  0  0  0
   12.7850   -6.1397   19.8026 C   0  0  0  0  0  0  0  0  0  0  0  0
   11.4733   -5.1594   20.4360 Cl  0  0  0  0  0  0  0  0  0  0  0  0
   13.8594   -6.5440   20.6133 C   0  0  0  0  0  0  0  0  0  0  0  0
   13.9531   -6.0923   22.3075 Cl  0  0  0  0  0  0  0  0  0  0  0  0
   14.8841   -7.3246   20.0690 C   0  0  0  0  0  0  0  0  0  0  0  0
 19 20  2  0  0  0
 20 18  1  0  0  0
 20 21  1  0  0  0
 18 17  1  0  0  0
 17  1  1  0  0  0
  1  2  1  0  0  0
  2  3  2  0  0  0
  3  4  1  0  0  0
  4  5  2  0  0  0
  5  7  1  0  0  0
  5  6  1  0  0  0
  7  8  1  0  0  0
  8  9  1  0  0  0
  9 10  2  0  0  0
 10 11  1  0  0  0
 11 12  2  0  0  0
 12 13  1  0  0  0
 13 14  2  0  0  0
 14 15  1  0  0  0
 15 16  2  0  0  0
 16  8  1  0  0  0
 16 11  1  0  0  0
  6  2  1  0  0  0
 21 23  1  0  0  0
 23 24  2  0  0  0
 24 25  1  0  0  0
 25 26  2  0  0  0
 26 27  1  0  0  0
 26 28  1  0  0  0
 28 29  1  0  0  0
 28 30  2  0  0  0
 30 23  1  0  0  0
 21 22  1  0  0  0
M  END
>  <minimizedAffinity>
-8.98266

>  <minimizedRMSD>
1.66955

$$$$
CHEMBL245644


 34 38  0  0  0  0  0  0  0  0999 V2000
   16.6353   -7.7882   10.0768 C   0  0  0  0  0  0  0  0  0  0  0  0
   16.2731   -9.6239    8.4051 C   0  0  0  0  0  0  0  0  0  0  0  0
   16.7975  -10.1285    7.2605 N   0  0  0  0  0  0  0  0  0  0  0  0
   17.7506   -9.2342    6.9450 C   0  0  0  0  0  0  0  0  0  0  0  0
   18.6503   -9.3211    5.8876 C   0  0  0  0  0  0  0  0  0  0  0  0
   19.6173   -8.3114    5.7699 C   0  0  0  0  0  0  0  0  0  0  0  0
   19.6567   -7.2474    6.6928 C   0  0  0  0  0  0  0  0  0  0  0  0
   18.7321   -7.1683    7.7540 C   0  0  0  0  0  0  0  0  0  0  0  0
   17.7876   -8.2122    7.8594 C   0  0  0  0  0  0  0  0  0  0  0  0
   16.8532   -8.4621    8.8003 N   0  0  0  0  0  0  0  0  0  0  0  0
   18.7635   -5.9838    8.6288 C   0  0  0  0  0  0  0  0  0  0  0  0
   19.4010   -6.0318    9.7168 O   0  0  0  0  0  0  0  0  0  0  0  0
   18.1596   -4.7932    8.2216 O   0  0  0  0  0  0  0  0  0  0  0  0
   17.7026   -3.8260    9.1547 C   0  0  0  0  0  0  0  0  0  0  0  0
   15.1695  -10.2988    9.1587 C   0  0  0  0  0  0  0  0  0  0  0  0
   16.8676  -12.1276    9.2350 C   0  0  0  0  0  0  0  0  0  0  0  0
   15.6895  -11.4905    9.9469 C   0  0  0  0  0  0  0  0  0  0  0  0
   16.9690   -8.6967   11.2128 C   0  0  0  0  0  0  0  0  0  0  0  0
   16.0628   -8.8578   12.2645 C   0  0  0  0  0  0  0  0  0  0  0  0
   16.3617   -9.7228   13.3203 C   0  0  0  0  0  0  0  0  0  0  0  0
   17.5750  -10.4269   13.3393 C   0  0  0  0  0  0  0  0  0  0  0  0
   18.4687  -10.2792   12.2683 C   0  0  0  0  0  0  0  0  0  0  0  0
   18.1692   -9.4145   11.2125 C   0  0  0  0  0  0  0  0  0  0  0  0
   17.8680  -11.3539   14.3967 N   0  0  0  0  0  0  0  0  0  0  0  0
   18.3939  -12.5768   14.1989 C   0  0  0  0  0  0  0  0  0  0  0  0
   18.4696  -13.2519   15.4039 C   0  0  0  0  0  0  0  0  0  0  0  0
   17.9715  -12.4011   16.3767 C   0  0  0  0  0  0  0  0  0  0  0  0
   17.6136  -11.2406   15.7197 C   0  0  0  0  0  0  0  0  0  0  0  0
   17.1327  -10.0330   16.4172 C   0  0  0  0  0  0  0  0  0  0  0  0
   15.8451   -9.6551   16.5103 N   0  0  0  0  0  0  0  0  0  0  0  0
   15.8777   -8.5016   17.1567 N   0  0  0  0  0  0  0  0  0  0  0  0
   17.1307   -8.1817   17.4370 N   0  0  0  0  0  0  0  0  0  0  0  0
   17.9443   -9.1193   16.9800 N   0  0  0  0  0  0  0  0  0  0  0  0
   18.9268   -9.1433   17.0388 H   0  0  0  0  0  0  0  0  0  0  0  0
 16 17  1  0  0  0
 17 15  1  0  0  0
 15  2  1  0  0  0
  2  3  2  0  0  0
  3  4  1  0  0  0
  4  5  2  0  0  0
  5  6  1  0  0  0
  6  7  2  0  0  0
  7  8  1  0  0  0
  8 11  1  0  0  0
  8  9  2  0  0  0
 11 12  2  0  0  0
 11 13  1  0  0  0
 13 14  1  0  0  0
  9 10  1  0  0  0
  9  4  1  0  0  0
 10  1  1  0  0  0
 10  2  1  0  0  0
  1 18  1  0  0  0
 18 19  2  0  0  0
 19 20  1  0  0  0
 20 21  2  0  0  0
 21 24  1  0  0  0
 21 22  1  0  0  0
 24 25  1  0  0  0
 25 26  2  0  0  0
 26 27  1  0  0  0
 27 28  2  0  0  0
 28 29  1  0  0  0
 28 24  1  0  0  0
 29 30  2  0  0  0
 30 31  1  0  0  0
 31 32  2  0  0  0
 32 33  1  0  0  0
 33 29  1  0  0  0
 22 23  2  0  0  0
 23 18  1  0  0  0
 33 34  1  0  0  0
M  END
>  <minimizedAffinity>
7.48265

>  <minimizedRMSD>
1.67215

$$$$
CHEMBL2235547 PubChem-25108448


 30 33  0  0  0  0  0  0  0  0999 V2000
   18.2452  -12.1066   15.6948 S   0  0  0  0  0  0  0  0  0  0  0  0
   18.0743  -11.2408   14.1395 C   0  0  0  0  0  0  0  0  0  0  0  0
   18.9771  -11.2952   13.1427 N   0  0  0  0  0  0  0  0  0  0  0  0
   18.4993  -10.5328   12.1715 N   0  0  0  0  0  0  0  0  0  0  0  0
   17.3280  -10.0444   12.6198 C   0  0  0  0  0  0  0  0  0  0  0  0
   17.0563  -10.4777   13.8263 O   0  0  0  0  0  0  0  0  0  0  0  0
   16.4373   -9.1533   11.8256 C   0  0  0  0  0  0  0  0  0  0  0  0
   16.5928   -9.4348   10.4070 N   0  0  0  0  0  0  0  0  0  0  0  0
   15.9214  -10.3682    9.7404 N   0  0  0  0  0  0  0  0  0  0  0  0
   16.3244  -10.4281    8.4709 N   0  0  0  0  0  0  0  0  0  0  0  0
   17.2906   -9.4985    8.3510 C   0  0  0  0  0  0  0  0  0  0  0  0
   18.0480   -9.1672    7.2321 C   0  0  0  0  0  0  0  0  0  0  0  0
   19.0150   -8.1543    7.3920 C   0  0  0  0  0  0  0  0  0  0  0  0
   19.1942   -7.5169    8.6435 C   0  0  0  0  0  0  0  0  0  0  0  0
   18.4088   -7.8815    9.7547 C   0  0  0  0  0  0  0  0  0  0  0  0
   17.4631   -8.8834    9.5518 C   0  0  0  0  0  0  0  0  0  0  0  0
   17.0430  -11.0317   16.5302 C   0  0  0  0  0  0  0  0  0  0  0  0
   17.4840   -9.5843   16.4236 C   0  0  0  0  0  0  0  0  0  0  0  0
   15.9640   -8.5678   18.1586 N   0  0  0  0  0  0  0  0  0  0  0  0
   16.3554   -8.6861   16.7846 C   0  0  0  0  0  0  0  0  0  0  0  0
   15.7438   -8.0665   15.8742 O   0  0  0  0  0  0  0  0  0  0  0  0
   16.4799   -9.0942   18.8113 H   0  0  0  0  0  0  0  0  0  0  0  0
   12.8461   -6.1820   19.7781 C   0  0  0  0  0  0  0  0  0  0  0  0
   13.9128   -6.6083   20.5752 C   0  0  0  0  0  0  0  0  0  0  0  0
   14.9326   -7.3934   20.0294 C   0  0  0  0  0  0  0  0  0  0  0  0
   14.8987   -7.7621   18.6807 C   0  0  0  0  0  0  0  0  0  0  0  0
   13.8290   -7.3350   17.8799 C   0  0  0  0  0  0  0  0  0  0  0  0
   12.8089   -6.5502   18.4239 C   0  0  0  0  0  0  0  0  0  0  0  0
   10.9512   -4.6045   19.5815 C   0  0  0  0  0  0  0  0  0  0  0  0
   11.8422   -5.3980   20.3532 O   0  0  0  0  0  0  0  0  0  0  0  0
 29 30  1  0  0  0
 30 23  1  0  0  0
 23 24  2  0  0  0
 24 25  1  0  0  0
 25 26  2  0  0  0
 26 19  1  0  0  0
 26 27  1  0  0  0
 19 20  1  0  0  0
 20 21  2  0  0  0
 20 18  1  0  0  0
 18 17  1  0  0  0
 17  1  1  0  0  0
  1  2  1  0  0  0
  2  3  2  0  0  0
  3  4  1  0  0  0
  4  5  2  0  0  0
  5  7  1  0  0  0
  5  6  1  0  0  0
  7  8  1  0  0  0
  8  9  1  0  0  0
  9 10  2  0  0  0
 10 11  1  0  0  0
 11 12  2  0  0  0
 12 13  1  0  0  0
 13 14  2  0  0  0
 14 15  1  0  0  0
 15 16  2  0  0  0
 16  8  1  0  0  0
 16 11  1  0  0  0
  6  2  1  0  0  0
 27 28  2  0  0  0
 28 23  1  0  0  0
 19 22  1  0  0  0
M  END
>  <minimizedAffinity>
-8.65403

>  <minimizedRMSD>
1.67611

$$$$
CHEMBL1408992


 29 32  0  0  0  0  0  0  0  0999 V2000
   17.0196   -9.9234   13.4924 C   0  0  0  0  0  0  0  0  0  0  0  0
   17.6107   -9.8223   12.3276 O   0  0  0  0  0  0  0  0  0  0  0  0
   16.6326   -9.8570   11.4547 C   0  0  0  0  0  0  0  0  0  0  0  0
   15.4369   -9.9797   12.0622 N   0  0  0  0  0  0  0  0  0  0  0  0
   15.6840  -10.0224   13.3623 N   0  0  0  0  0  0  0  0  0  0  0  0
   16.8113   -9.7728   10.0013 C   0  0  0  0  0  0  0  0  0  0  0  0
   16.0963  -10.4893    9.1018 N   0  0  0  0  0  0  0  0  0  0  0  0
   16.5058  -10.1765    7.8748 N   0  0  0  0  0  0  0  0  0  0  0  0
   17.4815   -9.2602    8.0007 C   0  0  0  0  0  0  0  0  0  0  0  0
   17.7034   -8.9796    9.3186 C   0  0  0  0  0  0  0  0  0  0  0  0
   18.6642   -8.0602    9.7338 C   0  0  0  0  0  0  0  0  0  0  0  0
   19.4137   -7.4177    8.7306 C   0  0  0  0  0  0  0  0  0  0  0  0
   19.1858   -7.7066    7.3656 C   0  0  0  0  0  0  0  0  0  0  0  0
   18.2053   -8.6423    6.9843 C   0  0  0  0  0  0  0  0  0  0  0  0
   15.3879  -11.1371    9.3203 H   0  0  0  0  0  0  0  0  0  0  0  0
   17.8761   -9.9313   15.0598 S   0  0  0  0  0  0  0  0  0  0  0  0
   17.0707   -8.3911   15.5884 C   0  0  0  0  0  0  0  0  0  0  0  0
   16.3466   -8.6066   16.8702 C   0  0  0  0  0  0  0  0  0  0  0  0
   16.3025   -9.7642   17.3636 O   0  0  0  0  0  0  0  0  0  0  0  0
   15.7271   -7.4927   17.5277 N   0  0  0  0  0  0  0  0  0  0  0  0
   15.8217   -6.6157   17.0905 H   0  0  0  0  0  0  0  0  0  0  0  0
   14.9831   -7.5204   18.7568 C   0  0  0  0  0  0  0  0  0  0  0  0
   13.5763   -7.5343   18.7180 C   0  0  0  0  0  0  0  0  0  0  0  0
   12.8417   -7.5629   19.9078 C   0  0  0  0  0  0  0  0  0  0  0  0
   13.4979   -7.5784   21.1407 C   0  0  0  0  0  0  0  0  0  0  0  0
   14.8930   -7.5654   21.1877 C   0  0  0  0  0  0  0  0  0  0  0  0
   15.6311   -7.5369   20.0021 C   0  0  0  0  0  0  0  0  0  0  0  0
   15.5930   -7.5821   22.4983 C   0  0  0  0  0  0  0  0  0  0  0  0
   12.8417   -7.5193   17.4211 C   0  0  0  0  0  0  0  0  0  0  0  0
 16  1  1  0  0  0
  1  2  1  0  0  0
  2  3  1  0  0  0
  3  4  2  0  0  0
  4  5  1  0  0  0
  3  6  1  0  0  0
  6  7  1  0  0  0
  7  8  1  0  0  0
  8  9  2  0  0  0
  9 10  1  0  0  0
 10 11  1  0  0  0
 11 12  2  0  0  0
 12 13  1  0  0  0
 13 14  2  0  0  0
 16 17  1  0  0  0
 17 18  1  0  0  0
 18 19  2  0  0  0
 18 20  1  0  0  0
 20 22  1  0  0  0
 22 23  2  0  0  0
 23 24  1  0  0  0
 24 25  2  0  0  0
 25 26  1  0  0  0
 26 27  2  0  0  0
 26 28  1  0  0  0
 23 29  1  0  0  0
  5  1  2  0  0  0
 10  6  2  0  0  0
 27 22  1  0  0  0
 14  9  1  0  0  0
  7 15  1  0  0  0
 20 21  1  0  0  0
M  END
>  <minimizedAffinity>
-9.37852

>  <minimizedRMSD>
1.67777

$$$$
CHEMBL4113706 PubChem-56848835


 29 32  0  0  0  0  0  0  0  0999 V2000
   18.6733  -11.1053   13.9370 C   0  0  0  0  0  0  0  0  0  0  0  0
   19.1495   -9.6627   14.0594 C   0  0  0  0  0  0  0  0  0  0  0  0
   18.8787   -9.0096   12.7169 C   0  0  0  0  0  0  0  0  0  0  0  0
   18.0753   -9.9531   11.9608 N   0  0  0  0  0  0  0  0  0  0  0  0
   17.8740  -11.2115   12.6507 C   0  0  0  0  0  0  0  0  0  0  0  0
   17.5184   -9.6966   10.6594 C   0  0  0  0  0  0  0  0  0  0  0  0
   16.3153  -10.2467   10.3120 N   0  0  0  0  0  0  0  0  0  0  0  0
   15.7487  -10.0261    9.0856 C   0  0  0  0  0  0  0  0  0  0  0  0
   16.3777   -9.2400    8.1645 N   0  0  0  0  0  0  0  0  0  0  0  0
   17.5695   -8.6876    8.4940 C   0  0  0  0  0  0  0  0  0  0  0  0
   18.3062   -7.8956    7.7044 N   0  0  0  0  0  0  0  0  0  0  0  0
   19.3944   -7.5929    8.4547 C   0  0  0  0  0  0  0  0  0  0  0  0
   19.3406   -8.1947    9.7144 C   0  0  0  0  0  0  0  0  0  0  0  0
   18.1527   -8.8919    9.7049 C   0  0  0  0  0  0  0  0  0  0  0  0
   18.1037   -7.6002    6.7874 H   0  0  0  0  0  0  0  0  0  0  0  0
   17.9104  -12.9277   15.4414 C   0  0  0  0  0  0  0  0  0  0  0  0
   17.8828  -11.5130   15.0988 N   0  0  0  0  0  0  0  0  0  0  0  0
   17.1022  -10.5847   15.8834 C   0  0  0  0  0  0  0  0  0  0  0  0
   17.3723  -10.3992   17.2482 C   0  0  0  0  0  0  0  0  0  0  0  0
   16.6054   -9.4992   17.9887 C   0  0  0  0  0  0  0  0  0  0  0  0
   15.5744   -8.7912   17.3702 C   0  0  0  0  0  0  0  0  0  0  0  0
   15.3313   -8.9936   16.0105 C   0  0  0  0  0  0  0  0  0  0  0  0
   16.0901   -9.8751   15.3062 N   0  0  0  0  0  0  0  0  0  0  0  0
   14.6081   -7.6484   18.2844 S   0  0  0  0  0  0  0  0  0  0  0  0
   13.8515   -6.7566   17.3405 O   0  0  0  0  0  0  0  0  0  0  0  0
   15.5045   -6.8139   19.1545 O   0  0  0  0  0  0  0  0  0  0  0  0
   13.4764   -8.5013   19.2729 N   0  0  0  0  0  0  0  0  0  0  0  0
   12.8679   -9.0677   18.6819 H   0  0  0  0  0  0  0  0  0  0  0  0
   12.9132   -7.8331   19.7990 H   0  0  0  0  0  0  0  0  0  0  0  0
 16 17  1  0  0  0
  1 17  1  0  0  0
  1  2  1  0  0  0
  2  3  1  0  0  0
  3  4  1  0  0  0
  4  5  1  0  0  0
  4  6  1  0  0  0
  6  7  2  0  0  0
  7  8  1  0  0  0
  8  9  2  0  0  0
  9 10  1  0  0  0
 10 11  1  0  0  0
 11 12  1  0  0  0
 12 13  2  0  0  0
 13 14  1  0  0  0
 17 18  1  0  0  0
 18 19  2  0  0  0
 19 20  1  0  0  0
 20 21  2  0  0  0
 21 22  1  0  0  0
 22 23  2  0  0  0
 21 24  1  0  0  0
 24 25  2  0  0  0
 24 26  2  0  0  0
 24 27  1  0  0  0
  5  1  1  0  0  0
 14  6  1  0  0  0
 23 18  1  0  0  0
 14 10  2  0  0  0
 11 15  1  0  0  0
 27 28  1  0  0  0
 27 29  1  0  0  0
M  END
>  <minimizedAffinity>
-2.40584

>  <minimizedRMSD>
1.68152

$$$$
CHEMBL5207909 PubChem-144457007 PubChem-58945732


 37 41  0  0  0  0  0  0  0  0999 V2000
   15.6474   -8.2526   17.0728 C   0  0  0  0  0  0  0  0  0  0  0  0
   14.9453   -7.3728   16.5037 O   0  0  0  0  0  0  0  0  0  0  0  0
   15.6849   -8.3441   18.5054 N   0  0  0  0  0  0  0  0  0  0  0  0
   16.2562   -9.0494   18.8867 H   0  0  0  0  0  0  0  0  0  0  0  0
   18.7585  -11.9685   13.9287 C   0  0  0  0  0  0  0  0  0  0  0  0
   17.9450  -10.9943   14.7134 C   0  0  0  0  0  0  0  0  0  0  0  0
   17.1746   -9.9975   14.0844 C   0  0  0  0  0  0  0  0  0  0  0  0
   16.4276   -9.1063   14.8614 C   0  0  0  0  0  0  0  0  0  0  0  0
   16.4370   -9.1947   16.2604 C   0  0  0  0  0  0  0  0  0  0  0  0
   17.2065  -10.1897   16.8777 C   0  0  0  0  0  0  0  0  0  0  0  0
   17.9554  -11.0833   16.1083 C   0  0  0  0  0  0  0  0  0  0  0  0
   17.1335   -9.8681   12.6506 C   0  0  0  0  0  0  0  0  0  0  0  0
   17.0989   -9.7597   11.4505 C   0  0  0  0  0  0  0  0  0  0  0  0
   17.0571   -9.6320   10.0194 C   0  0  0  0  0  0  0  0  0  0  0  0
   16.1745  -10.2677    9.1569 C   0  0  0  0  0  0  0  0  0  0  0  0
   16.4596   -9.8859    7.8818 N   0  0  0  0  0  0  0  0  0  0  0  0
   17.4987   -9.0372    8.0143 C   0  0  0  0  0  0  0  0  0  0  0  0
   17.8732   -8.8704    9.2852 N   0  0  0  0  0  0  0  0  0  0  0  0
   18.8743   -8.0820    9.6713 N   0  0  0  0  0  0  0  0  0  0  0  0
   19.5721   -7.3943    8.7227 C   0  0  0  0  0  0  0  0  0  0  0  0
   19.2235   -7.5300    7.3644 C   0  0  0  0  0  0  0  0  0  0  0  0
   18.1620   -8.3699    6.9917 C   0  0  0  0  0  0  0  0  0  0  0  0
   14.9782   -7.5166   19.4392 C   0  0  0  0  0  0  0  0  0  0  0  0
   13.6875   -7.0367   19.1773 C   0  0  0  0  0  0  0  0  0  0  0  0
   13.0247   -6.2222   20.1042 C   0  0  0  0  0  0  0  0  0  0  0  0
   13.6522   -5.9165   21.3187 C   0  0  0  0  0  0  0  0  0  0  0  0
   14.9432   -6.3885   21.5977 C   0  0  0  0  0  0  0  0  0  0  0  0
   15.5975   -7.1873   20.6482 C   0  0  0  0  0  0  0  0  0  0  0  0
   15.5845   -6.0625   22.8411 N   0  0  0  0  0  0  0  0  0  0  0  0
   15.0822   -5.2971   23.8265 C   0  0  0  0  0  0  0  0  0  0  0  0
   16.0268   -5.2476   24.8324 C   0  0  0  0  0  0  0  0  0  0  0  0
   17.1001   -5.9780   24.4647 N   0  0  0  0  0  0  0  0  0  0  0  0
   16.8033   -6.4643   23.2448 C   0  0  0  0  0  0  0  0  0  0  0  0
   11.6229   -5.7572   19.8375 C   0  0  0  0  0  0  0  0  0  0  0  0
   10.8993   -6.7899   19.2709 F   0  0  0  0  0  0  0  0  0  0  0  0
   11.6286   -4.6794   18.9687 F   0  0  0  0  0  0  0  0  0  0  0  0
   11.0103   -5.3695   21.0167 F   0  0  0  0  0  0  0  0  0  0  0  0
  5  6  1  0  0  0
  6  7  2  0  0  0
  7  8  1  0  0  0
  7 12  1  0  0  0
  8  9  2  0  0  0
  9 10  1  0  0  0
  9  1  1  0  0  0
 10 11  2  0  0  0
 11  6  1  0  0  0
  1  2  2  0  0  0
  1  3  1  0  0  0
  3 23  1  0  0  0
 23 24  2  0  0  0
 24 25  1  0  0  0
 25 26  2  0  0  0
 25 34  1  0  0  0
 26 27  1  0  0  0
 27 28  2  0  0  0
 27 29  1  0  0  0
 28 23  1  0  0  0
 29 30  1  0  0  0
 30 31  2  0  0  0
 31 32  1  0  0  0
 32 33  2  0  0  0
 33 29  1  0  0  0
 34 35  1  0  0  0
 34 36  1  0  0  0
 34 37  1  0  0  0
 12 13  3  0  0  0
 13 14  1  0  0  0
 14 15  2  0  0  0
 15 16  1  0  0  0
 16 17  2  0  0  0
 17 18  1  0  0  0
 18 19  1  0  0  0
 18 14  1  0  0  0
 19 20  2  0  0  0
 20 21  1  0  0  0
 21 22  2  0  0  0
 22 17  1  0  0  0
  3  4  1  0  0  0
M  END
>  <minimizedAffinity>
-13.18528

>  <minimizedRMSD>
1.69142

$$$$
CHEMBL3939312 PubChem-56948862


 39 44  0  0  0  0  0  0  0  0999 V2000
   17.3081  -10.8929   15.2162 C   0  0  0  0  0  0  0  0  0  0  0  0
   16.4182   -9.9669   14.6462 C   0  0  0  0  0  0  0  0  0  0  0  0
   15.7605   -9.0201   15.4326 C   0  0  0  0  0  0  0  0  0  0  0  0
   15.9797   -8.9748   16.8135 C   0  0  0  0  0  0  0  0  0  0  0  0
   16.8708   -9.8848   17.3930 C   0  0  0  0  0  0  0  0  0  0  0  0
   17.5318  -10.8366   16.6109 C   0  0  0  0  0  0  0  0  0  0  0  0
   18.4096  -11.6697   17.2217 F   0  0  0  0  0  0  0  0  0  0  0  0
   15.2890   -7.9756   17.6467 C   0  0  0  0  0  0  0  0  0  0  0  0
   14.4442   -7.1955   17.1274 O   0  0  0  0  0  0  0  0  0  0  0  0
   15.5723   -7.8930   19.0470 N   0  0  0  0  0  0  0  0  0  0  0  0
   16.2001   -8.5414   19.4402 H   0  0  0  0  0  0  0  0  0  0  0  0
   14.9693   -6.8873   19.9169 C   0  0  0  0  0  0  0  0  0  0  0  0
   13.5917   -7.3528   20.4485 C   0  0  0  0  0  0  0  0  0  0  0  0
   13.1192   -8.4901   19.7881 O   0  0  0  0  0  0  0  0  0  0  0  0
   13.7300   -7.6334   21.9504 C   0  0  0  0  0  0  0  0  0  0  0  0
   15.0933   -7.1626   22.2688 C   0  0  0  0  0  0  0  0  0  0  0  0
   15.6796   -7.1248   23.5346 C   0  0  0  0  0  0  0  0  0  0  0  0
   16.9903   -6.6383   23.6528 C   0  0  0  0  0  0  0  0  0  0  0  0
   17.6888   -6.2022   22.5133 C   0  0  0  0  0  0  0  0  0  0  0  0
   17.0806   -6.2529   21.2501 C   0  0  0  0  0  0  0  0  0  0  0  0
   15.7756   -6.7426   21.1540 C   0  0  0  0  0  0  0  0  0  0  0  0
   13.7384   -9.2241   19.9250 H   0  0  0  0  0  0  0  0  0  0  0  0
   17.9047  -13.2892   14.6733 C   0  0  0  0  0  0  0  0  0  0  0  0
   17.9774  -11.8665   14.3760 N   0  0  0  0  0  0  0  0  0  0  0  0
   18.7473  -11.5041   13.1837 C   0  0  0  0  0  0  0  0  0  0  0  0
   19.4894  -10.1858   13.3682 C   0  0  0  0  0  0  0  0  0  0  0  0
   19.2578   -9.3869   12.0993 C   0  0  0  0  0  0  0  0  0  0  0  0
   18.2511  -10.1087   11.3418 N   0  0  0  0  0  0  0  0  0  0  0  0
   17.8641  -11.3624   11.9572 C   0  0  0  0  0  0  0  0  0  0  0  0
   17.6769   -9.6554   10.1031 C   0  0  0  0  0  0  0  0  0  0  0  0
   16.4549  -10.1243    9.7060 N   0  0  0  0  0  0  0  0  0  0  0  0
   15.8721   -9.7180    8.5359 C   0  0  0  0  0  0  0  0  0  0  0  0
   16.5036   -8.8216    7.7236 N   0  0  0  0  0  0  0  0  0  0  0  0
   17.7141   -8.3477    8.1035 C   0  0  0  0  0  0  0  0  0  0  0  0
   18.4541   -7.4643    7.4213 N   0  0  0  0  0  0  0  0  0  0  0  0
   19.5611   -7.2936    8.1855 C   0  0  0  0  0  0  0  0  0  0  0  0
   19.5154   -8.0689    9.3469 C   0  0  0  0  0  0  0  0  0  0  0  0
   18.3128   -8.7349    9.2611 C   0  0  0  0  0  0  0  0  0  0  0  0
   18.2425   -7.0361    6.5604 H   0  0  0  0  0  0  0  0  0  0  0  0
 23 24  1  0  0  0
 25 24  1  0  0  0
 25 26  1  0  0  0
 26 27  1  0  0  0
 27 28  1  0  0  0
 28 29  1  0  0  0
 28 30  1  0  0  0
 30 31  2  0  0  0
 31 32  1  0  0  0
 32 33  2  0  0  0
 33 34  1  0  0  0
 34 35  1  0  0  0
 35 36  1  0  0  0
 36 37  2  0  0  0
 37 38  1  0  0  0
 24  1  1  0  0  0
  1  2  2  0  0  0
  2  3  1  0  0  0
  3  4  2  0  0  0
  4  5  1  0  0  0
  5  6  2  0  0  0
  6  7  1  0  0  0
  4  8  1  0  0  0
  8  9  2  0  0  0
  8 10  1  0  0  0
 10 12  1  0  0  0
 12 13  1  0  0  0
 13 14  1  0  0  0
 13 15  1  0  0  0
 15 16  1  0  0  0
 16 17  2  0  0  0
 17 18  1  0  0  0
 18 19  2  0  0  0
 19 20  1  0  0  0
 20 21  2  0  0  0
 29 25  1  0  0  0
 38 30  1  0  0  0
  6  1  1  0  0  0
 21 12  1  0  0  0
 38 34  2  0  0  0
 21 16  1  0  0  0
 35 39  1  0  0  0
 10 11  1  0  0  0
 14 22  1  0  0  0
M  END
>  <minimizedAffinity>
-6.56843

>  <minimizedRMSD>
1.69518

$$$$
CHEMBL3473590 67540135 MCULE-5164901783 MolPort-019-882-787 ZINC000067540135


 27 30  0  0  0  0  0  0  0  0999 V2000
   18.6893  -12.1891   13.6564 C   0  0  0  0  0  0  0  0  0  0  0  0
   18.4762  -11.4199   14.8790 N   0  0  0  0  0  0  0  0  0  0  0  0
   17.9367  -12.3461   15.8730 C   0  0  0  0  0  0  0  0  0  0  0  0
   17.9745  -11.7034   17.2541 C   0  0  0  0  0  0  0  0  0  0  0  0
   17.4609  -10.3378   17.2119 N   0  0  0  0  0  0  0  0  0  0  0  0
   17.2245   -9.6347   15.9879 C   0  0  0  0  0  0  0  0  0  0  0  0
   16.7007   -8.4886   16.0298 O   0  0  0  0  0  0  0  0  0  0  0  0
   17.5458  -10.2826   14.6582 C   0  0  0  0  0  0  0  0  0  0  0  0
   18.2550   -9.2139   13.7916 C   0  0  0  0  0  0  0  0  0  0  0  0
   18.0504   -9.4108   12.2868 C   0  0  0  0  0  0  0  0  0  0  0  0
   16.6345   -9.5880   11.9466 N   0  0  0  0  0  0  0  0  0  0  0  0
   15.6543   -9.7704   13.0160 C   0  0  0  0  0  0  0  0  0  0  0  0
   16.2037  -10.7572   14.0392 C   0  0  0  0  0  0  0  0  0  0  0  0
   16.1993   -9.6922   10.5772 C   0  0  0  0  0  0  0  0  0  0  0  0
   15.0572  -10.1655   10.3270 O   0  0  0  0  0  0  0  0  0  0  0  0
   17.2687   -9.8805   18.0623 H   0  0  0  0  0  0  0  0  0  0  0  0
   17.0375   -9.2556    9.4405 C   0  0  0  0  0  0  0  0  0  0  0  0
   16.8245   -9.7014    8.1729 N   0  0  0  0  0  0  0  0  0  0  0  0
   17.7653   -9.0546    7.4715 C   0  0  0  0  0  0  0  0  0  0  0  0
   18.0124   -9.1350    6.1034 C   0  0  0  0  0  0  0  0  0  0  0  0
   19.0627   -8.3519    5.5884 C   0  0  0  0  0  0  0  0  0  0  0  0
   19.3731   -8.3970    4.1359 C   0  0  0  0  0  0  0  0  0  0  0  0
   19.8234   -7.5225    6.4434 C   0  0  0  0  0  0  0  0  0  0  0  0
   19.5435   -7.4668    7.8217 C   0  0  0  0  0  0  0  0  0  0  0  0
   18.4981   -8.2563    8.2937 C   0  0  0  0  0  0  0  0  0  0  0  0
   18.0553   -8.3602    9.5539 N   0  0  0  0  0  0  0  0  0  0  0  0
   18.3846   -7.9026   10.3609 H   0  0  0  0  0  0  0  0  0  0  0  0
  1  2  1  0  0  0
  2  3  1  0  0  0
  3  4  1  0  0  0
  4  5  1  0  0  0
  5  6  1  0  0  0
  6  7  2  0  0  0
  6  8  1  0  0  0
  8  9  1  0  0  0
  9 10  1  0  0  0
 10 11  1  0  0  0
 11 12  1  0  0  0
 12 13  1  0  0  0
 11 14  1  0  0  0
 14 15  2  0  0  0
 14 17  1  0  0  0
 17 18  2  0  0  0
 18 19  1  0  0  0
 19 20  2  0  0  0
 20 21  1  0  0  0
 21 22  1  0  0  0
 21 23  2  0  0  0
 23 24  1  0  0  0
 24 25  2  0  0  0
 25 26  1  0  0  0
  8  2  1  0  0  0
 13  8  1  0  0  0
 26 17  1  0  0  0
 25 19  1  0  0  0
  5 16  1  0  0  0
 26 27  1  0  0  0
M  END
>  <minimizedAffinity>
-7.58199

>  <minimizedRMSD>
1.69734

$$$$
CHEMBL3951623 PubChem-127053796


 36 40  0  0  0  0  0  0  0  0999 V2000
   15.8588   -8.9340   17.3818 C   0  0  0  0  0  0  0  0  0  0  0  0
   15.6613   -8.9143   15.9972 C   0  0  0  0  0  0  0  0  0  0  0  0
   16.3589   -9.7990   15.1738 C   0  0  0  0  0  0  0  0  0  0  0  0
   17.2683  -10.7268   15.7091 C   0  0  0  0  0  0  0  0  0  0  0  0
   17.4701  -10.7358   17.1086 C   0  0  0  0  0  0  0  0  0  0  0  0
   18.3629  -11.5732   17.6912 F   0  0  0  0  0  0  0  0  0  0  0  0
   16.7688   -9.8460   17.9278 C   0  0  0  0  0  0  0  0  0  0  0  0
   15.1508   -8.1802   19.6746 N   0  0  0  0  0  0  0  0  0  0  0  0
   15.1238   -8.0023   18.2546 C   0  0  0  0  0  0  0  0  0  0  0  0
   14.4661   -7.0506   17.7508 O   0  0  0  0  0  0  0  0  0  0  0  0
   15.6494   -8.9448   20.0433 H   0  0  0  0  0  0  0  0  0  0  0  0
   14.1878   -5.9461   19.9271 C   0  0  0  0  0  0  0  0  0  0  0  0
   14.4733   -7.2802   20.5990 C   0  0  0  0  0  0  0  0  0  0  0  0
   15.3008   -7.0866   21.8291 C   0  0  0  0  0  0  0  0  0  0  0  0
   16.5976   -6.5752   21.7065 C   0  0  0  0  0  0  0  0  0  0  0  0
   17.3868   -6.3793   22.8440 C   0  0  0  0  0  0  0  0  0  0  0  0
   16.8810   -6.6928   24.1090 C   0  0  0  0  0  0  0  0  0  0  0  0
   15.5855   -7.2018   24.2378 C   0  0  0  0  0  0  0  0  0  0  0  0
   14.7955   -7.3980   23.1013 C   0  0  0  0  0  0  0  0  0  0  0  0
   17.9772  -11.6368   14.8301 N   0  0  0  0  0  0  0  0  0  0  0  0
   17.9427  -13.0745   15.0517 C   0  0  0  0  0  0  0  0  0  0  0  0
   18.7487  -11.1928   13.6666 C   0  0  0  0  0  0  0  0  0  0  0  0
   19.2487   -9.7626   13.8302 C   0  0  0  0  0  0  0  0  0  0  0  0
   18.9830   -9.0679   12.5074 C   0  0  0  0  0  0  0  0  0  0  0  0
   18.1550   -9.9737   11.7315 N   0  0  0  0  0  0  0  0  0  0  0  0
   17.9328  -11.2466   12.3879 C   0  0  0  0  0  0  0  0  0  0  0  0
   17.5950   -9.6703   10.4416 C   0  0  0  0  0  0  0  0  0  0  0  0
   16.3945  -10.2133   10.0748 N   0  0  0  0  0  0  0  0  0  0  0  0
   15.8250   -9.9489    8.8582 C   0  0  0  0  0  0  0  0  0  0  0  0
   16.4487   -9.1247    7.9672 N   0  0  0  0  0  0  0  0  0  0  0  0
   17.6378   -8.5788    8.3164 C   0  0  0  0  0  0  0  0  0  0  0  0
   18.3691   -7.7530    7.5570 N   0  0  0  0  0  0  0  0  0  0  0  0
   19.4566   -7.4734    8.3173 C   0  0  0  0  0  0  0  0  0  0  0  0
   19.4078   -8.1233    9.5530 C   0  0  0  0  0  0  0  0  0  0  0  0
   18.2235   -8.8259    9.5182 C   0  0  0  0  0  0  0  0  0  0  0  0
   18.1639   -7.4238    6.6521 H   0  0  0  0  0  0  0  0  0  0  0  0
 13 12  1  0  0  0
 13  8  1  0  0  0
  8  9  1  0  0  0
  9 10  2  0  0  0
  9  1  1  0  0  0
  1  2  2  0  0  0
  2  3  1  0  0  0
  3  4  2  0  0  0
  4 20  1  0  0  0
 20 21  1  0  0  0
 22 20  1  0  0  0
 22 23  1  0  0  0
 23 24  1  0  0  0
 24 25  1  0  0  0
 25 26  1  0  0  0
 25 27  1  0  0  0
 27 28  2  0  0  0
 28 29  1  0  0  0
 29 30  2  0  0  0
 30 31  1  0  0  0
 31 32  1  0  0  0
 32 33  1  0  0  0
 33 34  2  0  0  0
 34 35  1  0  0  0
  4  5  1  0  0  0
  5  6  1  0  0  0
  5  7  2  0  0  0
 13 14  1  0  0  0
 14 15  2  0  0  0
 15 16  1  0  0  0
 16 17  2  0  0  0
 17 18  1  0  0  0
 18 19  2  0  0  0
  7  1  1  0  0  0
 19 14  1  0  0  0
 26 22  1  0  0  0
 35 27  1  0  0  0
 35 31  2  0  0  0
  8 11  1  0  0  0
 32 36  1  0  0  0
M  END
>  <minimizedAffinity>
-6.68273

>  <minimizedRMSD>
1.69795

$$$$
CHEMBL5194696


 33 35  0  0  0  0  0  0  0  0999 V2000
   15.5935   -8.1759   10.6322 O   0  0  0  0  0  0  0  0  0  0  0  0
   16.4972   -8.8291   11.4781 C   0  0  0  0  0  0  0  0  0  0  0  0
   16.0125  -10.1844   11.9123 C   0  0  0  0  0  0  0  0  0  0  0  0
   17.2729  -11.0285   11.8907 C   0  0  0  0  0  0  0  0  0  0  0  0
   18.3551  -10.3044   11.3435 O   0  0  0  0  0  0  0  0  0  0  0  0
   17.8320   -9.1108   10.8108 C   0  0  0  0  0  0  0  0  0  0  0  0
   15.0956  -10.7134   11.0002 O   0  0  0  0  0  0  0  0  0  0  0  0
   14.7614   -8.0209   11.1060 H   0  0  0  0  0  0  0  0  0  0  0  0
   15.5043  -10.7613   10.1218 H   0  0  0  0  0  0  0  0  0  0  0  0
   17.7232   -9.2120    9.3551 N   0  0  0  0  0  0  0  0  0  0  0  0
   18.4383   -8.5491    8.4424 C   0  0  0  0  0  0  0  0  0  0  0  0
   18.0078   -8.8821    7.2068 C   0  0  0  0  0  0  0  0  0  0  0  0
   18.5997   -8.3116    6.0888 C   0  0  0  0  0  0  0  0  0  0  0  0
   19.6148   -7.4175    6.2961 N   0  0  0  0  0  0  0  0  0  0  0  0
   20.0330   -7.0940    7.5626 C   0  0  0  0  0  0  0  0  0  0  0  0
   19.4407   -7.6628    8.6564 N   0  0  0  0  0  0  0  0  0  0  0  0
   16.9967   -9.7674    7.2834 N   0  0  0  0  0  0  0  0  0  0  0  0
   16.8424   -9.9474    8.6261 C   0  0  0  0  0  0  0  0  0  0  0  0
   18.1604   -8.6457    4.7715 N   0  0  0  0  0  0  0  0  0  0  0  0
   18.8250   -8.1340    3.5851 C   0  0  0  0  0  0  0  0  0  0  0  0
   17.3836   -9.2410    4.6642 H   0  0  0  0  0  0  0  0  0  0  0  0
   17.6213  -11.5694   13.2756 C   0  0  0  0  0  0  0  0  0  0  0  0
   19.4035  -11.4385   13.6589 S   0  0  0  0  0  0  0  0  0  0  0  0
   19.1854  -10.0183   14.7714 C   0  0  0  0  0  0  0  0  0  0  0  0
   18.2443  -10.3815   15.9063 C   0  0  0  0  0  0  0  0  0  0  0  0
   17.4590   -9.1594   16.3523 C   0  0  0  0  0  0  0  0  0  0  0  0
   16.8029   -9.4400   17.6168 N   0  0  0  0  0  0  0  0  0  0  0  0
   16.1569  -10.2204   17.4988 H   0  0  0  0  0  0  0  0  0  0  0  0
   16.2871   -8.6149   17.9226 H   0  0  0  0  0  0  0  0  0  0  0  0
   16.4377   -8.7827   15.3288 C   0  0  0  0  0  0  0  0  0  0  0  0
   16.4946   -7.6540   14.7759 O   0  0  0  0  0  0  0  0  0  0  0  0
   15.4317   -9.6744   14.9760 O   0  0  0  0  0  0  0  0  0  0  0  0
   15.3865  -10.5158   15.3859 H   0  0  0  0  0  0  0  0  0  0  0  0
  2  1  1  0  0  0
  2  3  1  0  0  0
  3  4  1  0  0  0
  4  5  1  0  0  0
  5  6  1  0  0  0
  6 10  1  0  0  0
 10 11  1  0  0  0
 11 12  1  0  0  0
 12 13  2  0  0  0
 13 14  1  0  0  0
 14 15  2  0  0  0
 15 16  1  0  0  0
 13 19  1  0  0  0
 19 20  1  0  0  0
 12 17  1  0  0  0
 17 18  2  0  0  0
  4 22  1  0  0  0
 22 23  1  0  0  0
 23 24  1  0  0  0
 24 25  1  0  0  0
 25 26  1  0  0  0
 26 30  1  0  0  0
 30 31  2  0  0  0
 30 32  1  0  0  0
 26 27  1  0  0  0
  3  7  1  0  0  0
  6  2  1  0  0  0
 18 10  1  0  0  0
 16 11  2  0  0  0
  1  8  1  0  0  0
 19 21  1  0  0  0
 32 33  1  0  0  0
 27 28  1  0  0  0
 27 29  1  0  0  0
  7  9  1  0  0  0
M  END
>  <minimizedAffinity>
-1.83444

>  <minimizedRMSD>
1.69815

$$$$
CHEMBL1977394 CHEMBL2008624 6005048 NSC672425 PubChem-24202491 PubChem-461802 PubChem-5351428 ZINC000006005048


 28 31  0  0  0  0  0  0  0  0999 V2000
   19.7363   -7.4983    6.1988 C   0  0  0  0  0  0  0  0  0  0  0  0
   20.3951   -7.2979    7.4132 C   0  0  0  0  0  0  0  0  0  0  0  0
   19.8817   -7.8509    8.5882 C   0  0  0  0  0  0  0  0  0  0  0  0
   18.7030   -8.6104    8.5588 C   0  0  0  0  0  0  0  0  0  0  0  0
   18.0299   -8.8163    7.3251 C   0  0  0  0  0  0  0  0  0  0  0  0
   18.5614   -8.2525    6.1546 C   0  0  0  0  0  0  0  0  0  0  0  0
   16.8417   -9.5778    7.2741 C   0  0  0  0  0  0  0  0  0  0  0  0
   16.2452   -9.7600    6.1786 O   0  0  0  0  0  0  0  0  0  0  0  0
   16.3041  -10.1435    8.4346 C   0  0  0  0  0  0  0  0  0  0  0  0
   16.9343   -9.9641    9.6614 C   0  0  0  0  0  0  0  0  0  0  0  0
   18.1793   -9.1695    9.7310 C   0  0  0  0  0  0  0  0  0  0  0  0
   18.7733   -9.0104   10.9413 N   0  0  0  0  0  0  0  0  0  0  0  0
   18.2283   -9.5715   12.0516 C   0  0  0  0  0  0  0  0  0  0  0  0
   17.0330  -10.3272   11.9491 C   0  0  0  0  0  0  0  0  0  0  0  0
   16.4381  -10.4932   10.7713 O   0  0  0  0  0  0  0  0  0  0  0  0
   16.4776  -10.9007   13.0959 C   0  0  0  0  0  0  0  0  0  0  0  0
   17.0985  -10.7282   14.3365 C   0  0  0  0  0  0  0  0  0  0  0  0
   18.2789   -9.9821   14.4385 C   0  0  0  0  0  0  0  0  0  0  0  0
   18.8422   -9.4046   13.2949 C   0  0  0  0  0  0  0  0  0  0  0  0
   18.9324   -9.7917   15.7718 C   0  0  0  0  0  0  0  0  0  0  0  0
   17.9332   -9.5349   16.9037 C   0  0  0  0  0  0  0  0  0  0  0  0
   17.4391  -10.7894   17.4535 N   0  0  0  0  0  0  0  0  0  0  0  0
   16.9359  -11.3030   16.7300 H   0  0  0  0  0  0  0  0  0  0  0  0
   16.8099  -10.5949   18.2324 H   0  0  0  0  0  0  0  0  0  0  0  0
   16.8093   -8.6378   16.4733 C   0  0  0  0  0  0  0  0  0  0  0  0
   15.6443   -8.7965   16.9259 O   0  0  0  0  0  0  0  0  0  0  0  0
   17.0566   -7.6164   15.5654 O   0  0  0  0  0  0  0  0  0  0  0  0
   17.9203   -7.4918   15.2241 H   0  0  0  0  0  0  0  0  0  0  0  0
  1  2  2  0  0  0
  2  3  1  0  0  0
  3  4  2  0  0  0
  4  5  1  0  0  0
  5  6  2  0  0  0
  5  7  1  0  0  0
  6  1  1  0  0  0
  7  8  2  0  0  0
  7  9  1  0  0  0
  9 10  2  0  0  0
 10 11  1  0  0  0
 11 12  2  0  0  0
 11  4  1  0  0  0
 12 13  1  0  0  0
 13 14  2  0  0  0
 14 15  1  0  0  0
 14 16  1  0  0  0
 15 10  1  0  0  0
 16 17  2  0  0  0
 17 18  1  0  0  0
 18 19  2  0  0  0
 18 20  1  0  0  0
 19 13  1  0  0  0
 21 20  1  0  0  0
 21 25  1  0  0  0
 21 22  1  0  0  0
 25 26  2  0  0  0
 25 27  1  0  0  0
 27 28  1  0  0  0
 22 23  1  0  0  0
 22 24  1  0  0  0
M  END
>  <minimizedAffinity>
-2.21071

>  <minimizedRMSD>
1.69879

$$$$
CHEMBL1524414 8607128 ChemDiv-G357-1296 MCULE-4815775207 MolPort-007-847-481 PubChem-16027478 ZINC000008607128 ZINC08607128


 35 39  0  0  0  0  0  0  0  0999 V2000
   16.4295   -8.9283   16.5523 C   0  0  0  0  0  0  0  0  0  0  0  0
   16.1151   -8.1444   15.4324 C   0  0  0  0  0  0  0  0  0  0  0  0
   16.4558   -8.5775   14.1484 C   0  0  0  0  0  0  0  0  0  0  0  0
   17.1148   -9.8003   13.9660 C   0  0  0  0  0  0  0  0  0  0  0  0
   17.4277  -10.5846   15.0851 C   0  0  0  0  0  0  0  0  0  0  0  0
   17.0867  -10.1495   16.3692 C   0  0  0  0  0  0  0  0  0  0  0  0
   14.9458   -7.7591   18.2908 C   0  0  0  0  0  0  0  0  0  0  0  0
   14.0931   -7.3828   17.4410 O   0  0  0  0  0  0  0  0  0  0  0  0
   16.0962   -8.5168   17.8854 N   0  0  0  0  0  0  0  0  0  0  0  0
   16.7221   -8.7819   18.5975 H   0  0  0  0  0  0  0  0  0  0  0  0
   14.4051   -6.7573   22.4242 C   0  0  0  0  0  0  0  0  0  0  0  0
   13.3082   -7.1193   21.6365 C   0  0  0  0  0  0  0  0  0  0  0  0
   13.4837   -7.4465   20.2892 C   0  0  0  0  0  0  0  0  0  0  0  0
   14.7611   -7.4156   19.7117 C   0  0  0  0  0  0  0  0  0  0  0  0
   15.8610   -7.0536   20.5016 C   0  0  0  0  0  0  0  0  0  0  0  0
   15.6857   -6.7265   21.8490 C   0  0  0  0  0  0  0  0  0  0  0  0
   15.2197   -5.9005   24.5961 C   0  0  0  0  0  0  0  0  0  0  0  0
   14.1965   -6.4347   23.7675 O   0  0  0  0  0  0  0  0  0  0  0  0
   17.4708  -10.2518   12.6113 C   0  0  0  0  0  0  0  0  0  0  0  0
   18.1859  -11.2801   12.4545 O   0  0  0  0  0  0  0  0  0  0  0  0
   17.0157   -9.5351   11.5023 O   0  0  0  0  0  0  0  0  0  0  0  0
   16.4533  -10.1804   10.3686 C   0  0  0  0  0  0  0  0  0  0  0  0
   16.8811   -9.4740    9.1322 C   0  0  0  0  0  0  0  0  0  0  0  0
   16.0422   -8.5069    8.5531 C   0  0  0  0  0  0  0  0  0  0  0  0
   16.4817   -7.8350    7.4072 C   0  0  0  0  0  0  0  0  0  0  0  0
   15.7514   -6.9655    6.8616 O   0  0  0  0  0  0  0  0  0  0  0  0
   17.7064   -8.1358    6.9001 N   0  0  0  0  0  0  0  0  0  0  0  0
   18.2401   -7.5723    5.8188 N   0  0  0  0  0  0  0  0  0  0  0  0
   19.4780   -8.0568    5.5473 C   0  0  0  0  0  0  0  0  0  0  0  0
   19.9488   -9.2502    6.6624 S   0  0  0  0  0  0  0  0  0  0  0  0
   18.4947   -9.0635    7.4820 C   0  0  0  0  0  0  0  0  0  0  0  0
   18.1048   -9.7359    8.5924 N   0  0  0  0  0  0  0  0  0  0  0  0
   20.2842   -7.6351    4.3631 C   0  0  0  0  0  0  0  0  0  0  0  0
   20.4725   -6.1294    4.3765 C   0  0  0  0  0  0  0  0  0  0  0  0
   21.5994   -7.0330    4.8222 C   0  0  0  0  0  0  0  0  0  0  0  0
 17 18  1  0  0  0
 18 11  1  0  0  0
 11 12  2  0  0  0
 12 13  1  0  0  0
 13 14  2  0  0  0
 14 15  1  0  0  0
 15 16  2  0  0  0
 14  7  1  0  0  0
  7  8  2  0  0  0
  7  9  1  0  0  0
  9  1  1  0  0  0
  1  2  2  0  0  0
  2  3  1  0  0  0
  3  4  2  0  0  0
  4  5  1  0  0  0
  5  6  2  0  0  0
  4 19  1  0  0  0
 19 20  2  0  0  0
 19 21  1  0  0  0
 21 22  1  0  0  0
 22 23  1  0  0  0
 23 24  2  0  0  0
 24 25  1  0  0  0
 25 26  2  0  0  0
 25 27  1  0  0  0
 27 28  1  0  0  0
 28 29  2  0  0  0
 29 30  1  0  0  0
 30 31  1  0  0  0
 31 32  2  0  0  0
 29 33  1  0  0  0
 33 34  1  0  0  0
 34 35  1  0  0  0
 16 11  1  0  0  0
  6  1  1  0  0  0
 32 23  1  0  0  0
 35 33  1  0  0  0
 31 27  1  0  0  0
  9 10  1  0  0  0
M  END
>  <minimizedAffinity>
-5.29644

>  <minimizedRMSD>
1.69994

$$$$
CHEMBL109105 PubChem-11732020


 31 33  0  0  0  0  0  0  0  0999 V2000
   18.8252   -9.4703   11.7691 N   0  0  0  0  0  0  0  0  0  0  0  0
   19.7500   -9.1721   11.6107 H   0  0  0  0  0  0  0  0  0  0  0  0
   17.9395   -9.4710   10.6325 C   0  0  0  0  0  0  0  0  0  0  0  0
   16.6766  -10.1138   10.6412 C   0  0  0  0  0  0  0  0  0  0  0  0
   15.8713  -10.0677    9.4857 C   0  0  0  0  0  0  0  0  0  0  0  0
   16.2929   -9.4044    8.3794 N   0  0  0  0  0  0  0  0  0  0  0  0
   17.4911   -8.7706    8.3403 C   0  0  0  0  0  0  0  0  0  0  0  0
   18.3396   -8.7856    9.4704 C   0  0  0  0  0  0  0  0  0  0  0  0
   19.5739   -8.1204    9.4079 C   0  0  0  0  0  0  0  0  0  0  0  0
   19.9578   -7.4502    8.2433 C   0  0  0  0  0  0  0  0  0  0  0  0
   19.1129   -7.4391    7.1305 C   0  0  0  0  0  0  0  0  0  0  0  0
   17.8818   -8.0979    7.1788 C   0  0  0  0  0  0  0  0  0  0  0  0
   14.5134  -10.7099    9.4852 C   0  0  0  0  0  0  0  0  0  0  0  0
   13.4965  -10.0046   10.3989 C   0  0  0  0  0  0  0  0  0  0  0  0
   14.1023   -9.1870   11.5482 C   0  0  0  0  0  0  0  0  0  0  0  0
   14.9652  -10.0056   12.5178 C   0  0  0  0  0  0  0  0  0  0  0  0
   16.1132  -10.7886   11.8637 C   0  0  0  0  0  0  0  0  0  0  0  0
   18.4875   -9.8669   13.1279 C   0  0  0  0  0  0  0  0  0  0  0  0
   19.1574  -11.1894   13.4608 C   0  0  0  0  0  0  0  0  0  0  0  0
   18.7424  -11.6529   14.8444 C   0  0  0  0  0  0  0  0  0  0  0  0
   17.3601  -11.1219   15.1823 C   0  0  0  0  0  0  0  0  0  0  0  0
   17.3408  -10.5318   16.5873 C   0  0  0  0  0  0  0  0  0  0  0  0
   17.1370   -9.0103   16.6217 C   0  0  0  0  0  0  0  0  0  0  0  0
   16.8044   -8.6524   17.9291 O   0  0  0  0  0  0  0  0  0  0  0  0
   18.3234   -8.3600   16.2722 O   0  0  0  0  0  0  0  0  0  0  0  0
   16.0310   -9.0000   18.3277 H   0  0  0  0  0  0  0  0  0  0  0  0
   18.6946   -8.4877   15.4213 H   0  0  0  0  0  0  0  0  0  0  0  0
   16.0064   -8.5617   15.6821 C   0  0  0  0  0  0  0  0  0  0  0  0
   15.1815   -7.6659   16.3398 F   0  0  0  0  0  0  0  0  0  0  0  0
   15.2518   -9.6530   15.2874 F   0  0  0  0  0  0  0  0  0  0  0  0
   16.5215   -7.9387   14.5587 F   0  0  0  0  0  0  0  0  0  0  0  0
  3  4  2  0  0  0
  4  5  1  0  0  0
  5  6  2  0  0  0
  6  7  1  0  0  0
  7  8  2  0  0  0
  8  9  1  0  0  0
  9 10  2  0  0  0
 10 11  1  0  0  0
 11 12  2  0  0  0
  5 13  1  0  0  0
 13 14  1  0  0  0
 14 15  1  0  0  0
 15 16  1  0  0  0
 16 17  1  0  0  0
  3  1  1  0  0  0
  1 18  1  0  0  0
 18 19  1  0  0  0
 19 20  1  0  0  0
 20 21  1  0  0  0
 21 22  1  0  0  0
 22 23  1  0  0  0
 23 28  1  0  0  0
 28 29  1  0  0  0
 28 30  1  0  0  0
 28 31  1  0  0  0
 23 24  1  0  0  0
 23 25  1  0  0  0
  8  3  1  0  0  0
 17  4  1  0  0  0
 12  7  1  0  0  0
  1  2  1  0  0  0
 24 26  1  0  0  0
 25 27  1  0  0  0
M  END
>  <minimizedAffinity>
-3.76092

>  <minimizedRMSD>
1.70478

$$$$
CHEMBL34753 PubChem-3064100 PubChem-3064101


 33 36  0  0  0  0  0  0  0  0999 V2000
   18.7158   -9.8138   15.6245 C   0  0  0  0  0  0  0  0  0  0  0  0
   18.8703   -9.3814   14.3032 C   0  0  0  0  0  0  0  0  0  0  0  0
   18.4939  -10.1989   13.2337 C   0  0  0  0  0  0  0  0  0  0  0  0
   17.9636  -11.4686   13.4989 C   0  0  0  0  0  0  0  0  0  0  0  0
   17.8044  -11.9082   14.8145 C   0  0  0  0  0  0  0  0  0  0  0  0
   18.1763  -11.0846   15.8890 C   0  0  0  0  0  0  0  0  0  0  0  0
   18.6834   -9.7102   11.8973 N   0  0  0  0  0  0  0  0  0  0  0  0
   19.5739   -9.3393   11.7007 H   0  0  0  0  0  0  0  0  0  0  0  0
   17.7444   -9.6905   10.8068 C   0  0  0  0  0  0  0  0  0  0  0  0
   18.0841   -9.0398    9.6080 C   0  0  0  0  0  0  0  0  0  0  0  0
   17.1498   -9.0137    8.5460 C   0  0  0  0  0  0  0  0  0  0  0  0
   17.4718   -8.3721    7.3470 C   0  0  0  0  0  0  0  0  0  0  0  0
   18.7160   -7.7544    7.1955 C   0  0  0  0  0  0  0  0  0  0  0  0
   19.6432   -7.7769    8.2413 C   0  0  0  0  0  0  0  0  0  0  0  0
   19.3298   -8.4170    9.4434 C   0  0  0  0  0  0  0  0  0  0  0  0
   19.1138   -6.9506    5.6931 Cl  0  0  0  0  0  0  0  0  0  0  0  0
   15.9378   -9.6103    8.6902 N   0  0  0  0  0  0  0  0  0  0  0  0
   15.5893  -10.2400    9.8423 C   0  0  0  0  0  0  0  0  0  0  0  0
   16.4819  -10.2888   10.9142 C   0  0  0  0  0  0  0  0  0  0  0  0
   18.0173  -11.5076   17.2140 O   0  0  0  0  0  0  0  0  0  0  0  0
   16.7500  -11.8212   17.7748 C   0  0  0  0  0  0  0  0  0  0  0  0
   19.1082   -8.8976   16.7383 C   0  0  0  0  0  0  0  0  0  0  0  0
   16.6640   -8.2282   16.8530 C   0  0  0  0  0  0  0  0  0  0  0  0
   16.5506   -8.3287   15.6008 O   0  0  0  0  0  0  0  0  0  0  0  0
   15.5249   -7.8817   17.6509 N   0  0  0  0  0  0  0  0  0  0  0  0
   15.6780   -7.6367   19.0830 C   0  0  0  0  0  0  0  0  0  0  0  0
   14.4431   -8.1449   19.8227 C   0  0  0  0  0  0  0  0  0  0  0  0
   13.2378   -7.5586   19.2408 N   0  0  0  0  0  0  0  0  0  0  0  0
   13.1003   -8.0552   17.8734 C   0  0  0  0  0  0  0  0  0  0  0  0
   14.2536   -7.5421   17.0144 C   0  0  0  0  0  0  0  0  0  0  0  0
   12.1132   -8.0862   19.9908 C   0  0  0  0  0  0  0  0  0  0  0  0
   17.9298   -8.4651   17.4773 N   0  0  0  0  0  0  0  0  0  0  0  0
   18.0076   -8.3297   18.4493 H   0  0  0  0  0  0  0  0  0  0  0  0
 23 24  2  0  0  0
 23 25  1  0  0  0
 25 26  1  0  0  0
 26 27  1  0  0  0
 27 28  1  0  0  0
 28 29  1  0  0  0
 29 30  1  0  0  0
 28 31  1  0  0  0
 23 32  1  0  0  0
 32 22  1  0  0  0
 22  1  1  0  0  0
  1  2  2  0  0  0
  2  3  1  0  0  0
  3  7  1  0  0  0
  7  9  1  0  0  0
  9 10  1  0  0  0
 10 11  1  0  0  0
 11 12  2  0  0  0
 12 13  1  0  0  0
 13 14  2  0  0  0
 14 15  1  0  0  0
 13 16  1  0  0  0
 11 17  1  0  0  0
 17 18  2  0  0  0
 18 19  1  0  0  0
  3  4  2  0  0  0
  4  5  1  0  0  0
  5  6  2  0  0  0
  6 20  1  0  0  0
 20 21  1  0  0  0
 30 25  1  0  0  0
  6  1  1  0  0  0
 19  9  2  0  0  0
 15 10  2  0  0  0
 32 33  1  0  0  0
  7  8  1  0  0  0
M  END
>  <minimizedAffinity>
-5.04610

>  <minimizedRMSD>
1.70504

$$$$
CHEMBL259032 PubChem-24801012


 39 43  0  0  0  0  0  0  0  0999 V2000
   16.0104   -8.2992   17.9404 C   0  0  0  0  0  0  0  0  0  0  0  0
   16.3437   -8.6410   19.3793 C   0  0  0  0  0  0  0  0  0  0  0  0
   16.8995   -7.3599   18.7679 C   0  0  0  0  0  0  0  0  0  0  0  0
   17.2517   -9.5788   14.5774 C   0  0  0  0  0  0  0  0  0  0  0  0
   17.6881  -10.8703   14.9137 C   0  0  0  0  0  0  0  0  0  0  0  0
   17.5801  -11.3311   16.2285 C   0  0  0  0  0  0  0  0  0  0  0  0
   17.0400  -10.5032   17.2150 C   0  0  0  0  0  0  0  0  0  0  0  0
   16.6117   -9.2050   16.8945 C   0  0  0  0  0  0  0  0  0  0  0  0
   16.7137   -8.7552   15.5710 C   0  0  0  0  0  0  0  0  0  0  0  0
   17.3460   -9.0894   13.2718 O   0  0  0  0  0  0  0  0  0  0  0  0
   18.0882   -9.7509   12.2551 C   0  0  0  0  0  0  0  0  0  0  0  0
   13.9891  -10.5811    9.5524 C   0  0  0  0  0  0  0  0  0  0  0  0
   15.3663  -10.0328    9.6575 C   0  0  0  0  0  0  0  0  0  0  0  0
   16.0712  -10.1491   10.8570 C   0  0  0  0  0  0  0  0  0  0  0  0
   17.3669   -9.6370   10.9525 C   0  0  0  0  0  0  0  0  0  0  0  0
   17.9413   -8.9963    9.8404 C   0  0  0  0  0  0  0  0  0  0  0  0
   19.2344   -8.4548    9.8862 C   0  0  0  0  0  0  0  0  0  0  0  0
   19.7746   -7.8287    8.7598 C   0  0  0  0  0  0  0  0  0  0  0  0
   19.0286   -7.7384    7.5809 C   0  0  0  0  0  0  0  0  0  0  0  0
   17.7391   -8.2730    7.5234 C   0  0  0  0  0  0  0  0  0  0  0  0
   17.1905   -8.9006    8.6452 C   0  0  0  0  0  0  0  0  0  0  0  0
   15.9345   -9.4172    8.5870 N   0  0  0  0  0  0  0  0  0  0  0  0
   18.3707   -7.5030   18.5033 C   0  0  0  0  0  0  0  0  0  0  0  0
   19.2043   -7.1869   19.3938 O   0  0  0  0  0  0  0  0  0  0  0  0
   18.8259   -7.9324   17.2211 N   0  0  0  0  0  0  0  0  0  0  0  0
   20.1456   -8.0883   16.9689 O   0  0  0  0  0  0  0  0  0  0  0  0
   18.1705   -8.1178   16.5102 H   0  0  0  0  0  0  0  0  0  0  0  0
   20.6550   -7.8679   17.7643 H   0  0  0  0  0  0  0  0  0  0  0  0
   14.5974   -7.8516   17.7569 C   0  0  0  0  0  0  0  0  0  0  0  0
   14.2322   -7.3728   16.6501 O   0  0  0  0  0  0  0  0  0  0  0  0
   13.6593   -8.0047   18.8253 N   0  0  0  0  0  0  0  0  0  0  0  0
   13.9406   -8.4859   19.6369 H   0  0  0  0  0  0  0  0  0  0  0  0
   12.3047   -7.4765   18.7589 C   0  0  0  0  0  0  0  0  0  0  0  0
   12.1492   -6.3446   19.7163 C   0  0  0  0  0  0  0  0  0  0  0  0
   11.6393   -5.1161   19.2791 C   0  0  0  0  0  0  0  0  0  0  0  0
   11.5197   -4.0488   20.1750 C   0  0  0  0  0  0  0  0  0  0  0  0
   11.9129   -4.2074   21.5081 C   0  0  0  0  0  0  0  0  0  0  0  0
   12.4272   -5.4332   21.9453 C   0  0  0  0  0  0  0  0  0  0  0  0
   12.5483   -6.5000   21.0491 C   0  0  0  0  0  0  0  0  0  0  0  0
 12 13  1  0  0  0
 13 14  2  0  0  0
 14 15  1  0  0  0
 15 11  1  0  0  0
 15 16  2  0  0  0
 11 10  1  0  0  0
 10  4  1  0  0  0
  4  5  2  0  0  0
  5  6  1  0  0  0
  6  7  2  0  0  0
  7  8  1  0  0  0
  8  9  2  0  0  0
  1  8  1  0  0  0
  1 29  1  0  0  0
  1  2  1  0  0  0
 29 30  2  0  0  0
 29 31  1  0  0  0
 31 33  1  0  0  0
 33 34  1  0  0  0
 34 35  2  0  0  0
 35 36  1  0  0  0
 36 37  2  0  0  0
 37 38  1  0  0  0
 38 39  2  0  0  0
 39 34  1  0  0  0
  2  3  1  0  0  0
  3 23  1  0  0  0
  3  1  1  0  0  0
 23 24  2  0  0  0
 23 25  1  0  0  0
 25 26  1  0  0  0
  9  4  1  0  0  0
 16 17  1  0  0  0
 17 18  2  0  0  0
 18 19  1  0  0  0
 19 20  2  0  0  0
 20 21  1  0  0  0
 21 22  2  0  0  0
 21 16  1  0  0  0
 22 13  1  0  0  0
 31 32  1  0  0  0
 25 27  1  0  0  0
 26 28  1  0  0  0
M  END
>  <minimizedAffinity>
-1.22377

>  <minimizedRMSD>
1.70615

$$$$
CHEMBL203987


 34 38  0  0  0  0  0  0  0  0999 V2000
   15.8478  -10.7844   11.4161 N   0  0  0  0  0  0  0  0  0  0  0  0
   15.8984  -10.5007   12.7402 C   0  0  0  0  0  0  0  0  0  0  0  0
   16.9097  -10.7162   13.4617 O   0  0  0  0  0  0  0  0  0  0  0  0
   14.7493   -9.9533   13.2056 N   0  0  0  0  0  0  0  0  0  0  0  0
   13.9491   -9.8882   12.1248 C   0  0  0  0  0  0  0  0  0  0  0  0
   14.6140  -10.3955   11.0391 C   0  0  0  0  0  0  0  0  0  0  0  0
   14.0335  -10.4418    9.7724 C   0  0  0  0  0  0  0  0  0  0  0  0
   12.7225   -9.9462    9.6450 C   0  0  0  0  0  0  0  0  0  0  0  0
   12.0372   -9.4227   10.7650 C   0  0  0  0  0  0  0  0  0  0  0  0
   12.6517   -9.3870   12.0304 C   0  0  0  0  0  0  0  0  0  0  0  0
   16.9121  -11.3398   10.5883 C   0  0  0  0  0  0  0  0  0  0  0  0
   18.2042   -9.2279   10.1071 N   0  0  0  0  0  0  0  0  0  0  0  0
   17.4721  -10.2896    9.6826 C   0  0  0  0  0  0  0  0  0  0  0  0
   17.2687  -10.3017    8.3388 N   0  0  0  0  0  0  0  0  0  0  0  0
   17.9190   -9.1966    7.9273 C   0  0  0  0  0  0  0  0  0  0  0  0
   18.0406   -8.7201    6.6245 C   0  0  0  0  0  0  0  0  0  0  0  0
   18.7769   -7.5354    6.4339 C   0  0  0  0  0  0  0  0  0  0  0  0
   19.3637   -6.8679    7.5329 C   0  0  0  0  0  0  0  0  0  0  0  0
   19.2219   -7.3753    8.8377 C   0  0  0  0  0  0  0  0  0  0  0  0
   18.4859   -8.5498    8.9874 C   0  0  0  0  0  0  0  0  0  0  0  0
   18.6277   -8.9119   11.4642 C   0  0  0  0  0  0  0  0  0  0  0  0
   19.4976  -10.0309   12.0106 C   0  0  0  0  0  0  0  0  0  0  0  0
   18.9511  -10.5220   13.3383 C   0  0  0  0  0  0  0  0  0  0  0  0
   19.2345  -12.0024   13.4782 C   0  0  0  0  0  0  0  0  0  0  0  0
   19.6111   -9.7790   14.4846 C   0  0  0  0  0  0  0  0  0  0  0  0
   14.4676   -9.4729   14.5532 C   0  0  0  0  0  0  0  0  0  0  0  0
   15.7128   -9.5599   15.4297 C   0  0  0  0  0  0  0  0  0  0  0  0
   16.1144   -8.1931   15.9765 C   0  0  0  0  0  0  0  0  0  0  0  0
   15.4337   -7.8538   17.2671 C   0  0  0  0  0  0  0  0  0  0  0  0
   15.9257   -8.0993   18.4960 N   0  0  0  0  0  0  0  0  0  0  0  0
   15.0015   -7.6407   19.3238 N   0  0  0  0  0  0  0  0  0  0  0  0
   13.9914   -7.1375   18.6322 N   0  0  0  0  0  0  0  0  0  0  0  0
   14.2325   -7.2557   17.3369 N   0  0  0  0  0  0  0  0  0  0  0  0
   16.7827   -8.5253   18.7272 H   0  0  0  0  0  0  0  0  0  0  0  0
 12 13  1  0  0  0
 13 14  2  0  0  0
 14 15  1  0  0  0
 15 16  2  0  0  0
 16 17  1  0  0  0
 17 18  2  0  0  0
 18 19  1  0  0  0
 19 20  2  0  0  0
 13 11  1  0  0  0
 11  1  1  0  0  0
  1  2  1  0  0  0
  2  3  2  0  0  0
  2  4  1  0  0  0
  4  5  1  0  0  0
  5  6  2  0  0  0
  6  7  1  0  0  0
  7  8  2  0  0  0
  8  9  1  0  0  0
  9 10  2  0  0  0
  4 26  1  0  0  0
 26 27  1  0  0  0
 27 28  1  0  0  0
 28 29  1  0  0  0
 29 30  1  0  0  0
 30 31  1  0  0  0
 31 32  2  0  0  0
 32 33  1  0  0  0
 12 21  1  0  0  0
 21 22  1  0  0  0
 22 23  1  0  0  0
 23 24  1  0  0  0
 23 25  1  0  0  0
 20 12  1  0  0  0
  6  1  1  0  0  0
 33 29  2  0  0  0
 20 15  1  0  0  0
 10  5  1  0  0  0
 30 34  1  0  0  0
M  END
>  <minimizedAffinity>
7.81866

>  <minimizedRMSD>
1.70641

$$$$
CHEMBL4647108 PubChem-156021674


 31 35  0  0  0  0  0  0  0  0999 V2000
   17.8453   -9.8724   15.1202 C   0  0  0  0  0  0  0  0  0  0  0  0
   17.1648   -8.9954   14.0741 C   0  0  0  0  0  0  0  0  0  0  0  0
   18.1578   -9.9416   13.4420 C   0  0  0  0  0  0  0  0  0  0  0  0
   19.2047   -9.6233   14.4797 C   0  0  0  0  0  0  0  0  0  0  0  0
   17.6490  -11.1090   14.2496 C   0  0  0  0  0  0  0  0  0  0  0  0
   17.5805   -9.8438   16.6299 C   0  0  0  0  0  0  0  0  0  0  0  0
   17.7889  -11.2223   17.2338 C   0  0  0  0  0  0  0  0  0  0  0  0
   16.2213   -9.3203   17.0011 C   0  0  0  0  0  0  0  0  0  0  0  0
   15.1931   -9.6994   16.3763 O   0  0  0  0  0  0  0  0  0  0  0  0
   16.1181   -8.3772   18.0770 N   0  0  0  0  0  0  0  0  0  0  0  0
   16.9593   -8.1188   18.5183 H   0  0  0  0  0  0  0  0  0  0  0  0
   14.9186   -7.7711   18.5776 C   0  0  0  0  0  0  0  0  0  0  0  0
   14.7618   -7.6322   19.9612 C   0  0  0  0  0  0  0  0  0  0  0  0
   13.6063   -7.0468   20.4877 C   0  0  0  0  0  0  0  0  0  0  0  0
   12.5987   -6.5962   19.6307 C   0  0  0  0  0  0  0  0  0  0  0  0
   12.7465   -6.7309   18.2477 C   0  0  0  0  0  0  0  0  0  0  0  0
   13.9023   -7.3162   17.7229 C   0  0  0  0  0  0  0  0  0  0  0  0
   11.4793   -6.0290   20.1404 F   0  0  0  0  0  0  0  0  0  0  0  0
   18.4458   -9.9969   12.0148 N   0  0  0  0  0  0  0  0  0  0  0  0
   19.3846  -10.0801   11.7303 H   0  0  0  0  0  0  0  0  0  0  0  0
   17.4319   -9.9364   11.0047 C   0  0  0  0  0  0  0  0  0  0  0  0
   16.2163  -10.5121   11.2165 N   0  0  0  0  0  0  0  0  0  0  0  0
   15.2380  -10.4685   10.2743 C   0  0  0  0  0  0  0  0  0  0  0  0
   15.4573   -9.8417    9.0893 N   0  0  0  0  0  0  0  0  0  0  0  0
   16.6507   -9.2511    8.8257 C   0  0  0  0  0  0  0  0  0  0  0  0
   17.6802   -9.2845    9.7893 C   0  0  0  0  0  0  0  0  0  0  0  0
   18.9107   -8.6732    9.5127 C   0  0  0  0  0  0  0  0  0  0  0  0
   19.1141   -8.0338    8.2861 C   0  0  0  0  0  0  0  0  0  0  0  0
   18.0913   -8.0025    7.3326 C   0  0  0  0  0  0  0  0  0  0  0  0
   16.8609   -8.6101    7.6014 C   0  0  0  0  0  0  0  0  0  0  0  0
   20.3040   -7.4437    8.0207 F   0  0  0  0  0  0  0  0  0  0  0  0
  6  1  1  0  0  0
  1  2  1  0  0  0
  2  3  1  0  0  0
  3 19  1  0  0  0
 19 21  1  0  0  0
 21 22  2  0  0  0
 22 23  1  0  0  0
 23 24  2  0  0  0
 24 25  1  0  0  0
 25 26  2  0  0  0
 26 27  1  0  0  0
 27 28  2  0  0  0
 28 29  1  0  0  0
 29 30  2  0  0  0
 28 31  1  0  0  0
  3  4  1  0  0  0
  3  5  1  0  0  0
  6  8  1  0  0  0
  8  9  2  0  0  0
  8 10  1  0  0  0
 10 12  1  0  0  0
 12 13  2  0  0  0
 13 14  1  0  0  0
 14 15  2  0  0  0
 15 16  1  0  0  0
 16 17  2  0  0  0
 15 18  1  0  0  0
  6  7  1  0  0  0
  4  1  1  0  0  0
 17 12  1  0  0  0
  5  1  1  0  0  0
 26 21  1  0  0  0
 30 25  1  0  0  0
 19 20  1  0  0  0
 10 11  1  0  0  0
M  END
>  <minimizedAffinity>
-9.47866

>  <minimizedRMSD>
1.70704

$$$$
CHEMBL4647108 PubChem-156021674


 31 35  0  0  0  0  0  0  0  0999 V2000
   17.8454   -9.8727   15.1198 C   0  0  0  0  0  0  0  0  0  0  0  0
   19.2048   -9.6237   14.4792 C   0  0  0  0  0  0  0  0  0  0  0  0
   18.1578   -9.9418   13.4416 C   0  0  0  0  0  0  0  0  0  0  0  0
   17.6490  -11.1092   14.2492 C   0  0  0  0  0  0  0  0  0  0  0  0
   17.1648   -8.9955   14.0738 C   0  0  0  0  0  0  0  0  0  0  0  0
   17.5806   -9.8440   16.6295 C   0  0  0  0  0  0  0  0  0  0  0  0
   17.7889  -11.2225   17.2335 C   0  0  0  0  0  0  0  0  0  0  0  0
   16.2215   -9.3204   17.0007 C   0  0  0  0  0  0  0  0  0  0  0  0
   15.1931   -9.6997   16.3762 O   0  0  0  0  0  0  0  0  0  0  0  0
   16.1184   -8.3772   18.0764 N   0  0  0  0  0  0  0  0  0  0  0  0
   16.9597   -8.1187   18.5175 H   0  0  0  0  0  0  0  0  0  0  0  0
   14.9190   -7.7707   18.5770 C   0  0  0  0  0  0  0  0  0  0  0  0
   13.9021   -7.3172   17.7223 C   0  0  0  0  0  0  0  0  0  0  0  0
   12.7465   -6.7315   18.2471 C   0  0  0  0  0  0  0  0  0  0  0  0
   12.5994   -6.5953   19.6299 C   0  0  0  0  0  0  0  0  0  0  0  0
   13.6075   -7.0447   20.4869 C   0  0  0  0  0  0  0  0  0  0  0  0
   14.7629   -7.6304   19.9606 C   0  0  0  0  0  0  0  0  0  0  0  0
   11.4800   -6.0280   20.1397 F   0  0  0  0  0  0  0  0  0  0  0  0
   18.4458   -9.9970   12.0144 N   0  0  0  0  0  0  0  0  0  0  0  0
   19.3847  -10.0801   11.7298 H   0  0  0  0  0  0  0  0  0  0  0  0
   17.4318   -9.9364   11.0043 C   0  0  0  0  0  0  0  0  0  0  0  0
   16.2163  -10.5122   11.2161 N   0  0  0  0  0  0  0  0  0  0  0  0
   15.2379  -10.4684   10.2739 C   0  0  0  0  0  0  0  0  0  0  0  0
   15.4573   -9.8417    9.0888 N   0  0  0  0  0  0  0  0  0  0  0  0
   16.6506   -9.2511    8.8253 C   0  0  0  0  0  0  0  0  0  0  0  0
   17.6801   -9.2845    9.7890 C   0  0  0  0  0  0  0  0  0  0  0  0
   18.9105   -8.6731    9.5123 C   0  0  0  0  0  0  0  0  0  0  0  0
   19.1140   -8.0337    8.2857 C   0  0  0  0  0  0  0  0  0  0  0  0
   18.0912   -8.0023    7.3323 C   0  0  0  0  0  0  0  0  0  0  0  0
   16.8609   -8.6100    7.6011 C   0  0  0  0  0  0  0  0  0  0  0  0
   20.3039   -7.4436    8.0204 F   0  0  0  0  0  0  0  0  0  0  0  0
  6  1  1  0  0  0
  1  2  1  0  0  0
  2  3  1  0  0  0
  3 19  1  0  0  0
 19 21  1  0  0  0
 21 22  2  0  0  0
 22 23  1  0  0  0
 23 24  2  0  0  0
 24 25  1  0  0  0
 25 26  2  0  0  0
 26 27  1  0  0  0
 27 28  2  0  0  0
 28 29  1  0  0  0
 29 30  2  0  0  0
 28 31  1  0  0  0
  3  4  1  0  0  0
  3  5  1  0  0  0
  6  8  1  0  0  0
  8  9  2  0  0  0
  8 10  1  0  0  0
 10 12  1  0  0  0
 12 13  2  0  0  0
 13 14  1  0  0  0
 14 15  2  0  0  0
 15 16  1  0  0  0
 16 17  2  0  0  0
 15 18  1  0  0  0
  6  7  1  0  0  0
  4  1  1  0  0  0
 17 12  1  0  0  0
  5  1  1  0  0  0
 26 21  1  0  0  0
 30 25  1  0  0  0
 19 20  1  0  0  0
 10 11  1  0  0  0
M  END
>  <minimizedAffinity>
-9.47881

>  <minimizedRMSD>
1.70713

$$$$
CHEMBL5202391 PubChem-155927641


 36 40  0  0  0  0  0  0  0  0999 V2000
   14.9397   -7.2793   16.8196 O   0  0  0  0  0  0  0  0  0  0  0  0
   15.5536   -8.2417   17.3560 C   0  0  0  0  0  0  0  0  0  0  0  0
   15.4458   -8.4816   18.7676 N   0  0  0  0  0  0  0  0  0  0  0  0
   15.9511   -9.2479   19.1237 H   0  0  0  0  0  0  0  0  0  0  0  0
   16.3900   -9.1273   16.5268 C   0  0  0  0  0  0  0  0  0  0  0  0
   16.3439   -9.0422   15.1282 C   0  0  0  0  0  0  0  0  0  0  0  0
   17.1349   -9.8797   14.3353 C   0  0  0  0  0  0  0  0  0  0  0  0
   17.9870  -10.8188   14.9475 C   0  0  0  0  0  0  0  0  0  0  0  0
   18.0340  -10.9045   16.3419 C   0  0  0  0  0  0  0  0  0  0  0  0
   17.2409  -10.0645   17.1273 C   0  0  0  0  0  0  0  0  0  0  0  0
   18.8498  -11.7345   14.1454 C   0  0  0  0  0  0  0  0  0  0  0  0
   17.0547   -9.7547   12.9027 C   0  0  0  0  0  0  0  0  0  0  0  0
   16.9884   -9.6494   11.7038 C   0  0  0  0  0  0  0  0  0  0  0  0
   16.9111   -9.5223   10.2741 C   0  0  0  0  0  0  0  0  0  0  0  0
   17.7759   -8.8511    9.5082 N   0  0  0  0  0  0  0  0  0  0  0  0
   18.8655   -8.1691    9.8553 N   0  0  0  0  0  0  0  0  0  0  0  0
   19.5978   -7.5597    8.8795 C   0  0  0  0  0  0  0  0  0  0  0  0
   19.1908   -7.6625    7.5345 C   0  0  0  0  0  0  0  0  0  0  0  0
   18.0364   -8.3897    7.2030 C   0  0  0  0  0  0  0  0  0  0  0  0
   17.3433   -8.9822    8.2516 C   0  0  0  0  0  0  0  0  0  0  0  0
   16.2182   -9.7195    8.1595 N   0  0  0  0  0  0  0  0  0  0  0  0
   15.9388  -10.0661    9.4457 C   0  0  0  0  0  0  0  0  0  0  0  0
   14.6800   -7.7234   19.7138 C   0  0  0  0  0  0  0  0  0  0  0  0
   14.7611   -8.0606   21.0691 C   0  0  0  0  0  0  0  0  0  0  0  0
   14.0306   -7.3444   22.0217 C   0  0  0  0  0  0  0  0  0  0  0  0
   13.2127   -6.2808   21.6253 C   0  0  0  0  0  0  0  0  0  0  0  0
   13.1235   -5.9422   20.2710 C   0  0  0  0  0  0  0  0  0  0  0  0
   13.8544   -6.6592   19.3199 C   0  0  0  0  0  0  0  0  0  0  0  0
   12.4248   -5.5108   22.6503 C   0  0  0  0  0  0  0  0  0  0  0  0
   13.2328   -4.9815   23.7577 N   0  0  0  0  0  0  0  0  0  0  0  0
   14.1050   -3.9010   23.2793 C   0  0  0  0  0  0  0  0  0  0  0  0
   15.3268   -3.6701   24.1909 C   0  0  0  0  0  0  0  0  0  0  0  0
   15.1153   -4.1298   25.5713 N   0  0  0  0  0  0  0  0  0  0  0  0
   14.6769   -5.5329   25.6529 C   0  0  0  0  0  0  0  0  0  0  0  0
   14.0191   -6.0492   24.3693 C   0  0  0  0  0  0  0  0  0  0  0  0
   14.1138   -3.2907   26.2145 C   0  0  0  0  0  0  0  0  0  0  0  0
  1  2  2  0  0  0
  2  3  1  0  0  0
  3 23  1  0  0  0
 23 24  2  0  0  0
 24 25  1  0  0  0
 25 26  2  0  0  0
 26 29  1  0  0  0
 29 30  1  0  0  0
 30 31  1  0  0  0
 31 32  1  0  0  0
 32 33  1  0  0  0
 33 34  1  0  0  0
 34 35  1  0  0  0
 33 36  1  0  0  0
 26 27  1  0  0  0
 27 28  2  0  0  0
  2  5  1  0  0  0
  5  6  2  0  0  0
  6  7  1  0  0  0
  7  8  2  0  0  0
  8  9  1  0  0  0
  9 10  2  0  0  0
  8 11  1  0  0  0
  7 12  1  0  0  0
 12 13  3  0  0  0
 13 14  1  0  0  0
 14 15  1  0  0  0
 15 16  1  0  0  0
 16 17  2  0  0  0
 17 18  1  0  0  0
 18 19  2  0  0  0
 19 20  1  0  0  0
 20 21  2  0  0  0
 21 22  1  0  0  0
 28 23  1  0  0  0
 10  5  1  0  0  0
 22 14  2  0  0  0
 35 30  1  0  0  0
 20 15  1  0  0  0
  3  4  1  0  0  0
M  END
>  <minimizedAffinity>
-11.55956

>  <minimizedRMSD>
1.70919

$$$$
CHEMBL4856843 PubChem-164614140


 34 36  0  0  0  0  0  0  0  0999 V2000
   17.8029   -8.8784   10.7848 N   0  0  0  0  0  0  0  0  0  0  0  0
   17.4218   -9.8802   11.7326 C   0  0  0  0  0  0  0  0  0  0  0  0
   16.9010  -10.9634   11.3506 O   0  0  0  0  0  0  0  0  0  0  0  0
   17.6443   -9.6411   13.1235 N   0  0  0  0  0  0  0  0  0  0  0  0
   18.2152   -8.0557   11.1348 H   0  0  0  0  0  0  0  0  0  0  0  0
   18.0888   -8.8046   13.3918 H   0  0  0  0  0  0  0  0  0  0  0  0
   19.7003   -7.5080    6.1570 C   0  0  0  0  0  0  0  0  0  0  0  0
   18.5330   -8.3115    6.0519 C   0  0  0  0  0  0  0  0  0  0  0  0
   17.9499   -8.7298    7.2056 N   0  0  0  0  0  0  0  0  0  0  0  0
   18.4291   -8.4163    8.4104 C   0  0  0  0  0  0  0  0  0  0  0  0
   17.6314   -8.9796    9.3671 C   0  0  0  0  0  0  0  0  0  0  0  0
   16.6367   -9.6547    8.6622 C   0  0  0  0  0  0  0  0  0  0  0  0
   16.8648   -9.4792    7.3341 N   0  0  0  0  0  0  0  0  0  0  0  0
   19.5359   -7.6554    8.5674 N   0  0  0  0  0  0  0  0  0  0  0  0
   20.1742   -7.1996    7.4524 C   0  0  0  0  0  0  0  0  0  0  0  0
   17.9361   -8.7056    4.7383 C   0  0  0  0  0  0  0  0  0  0  0  0
   20.4482   -6.9766    4.9930 C   0  0  0  0  0  0  0  0  0  0  0  0
   21.0678   -7.7497    4.2123 O   0  0  0  0  0  0  0  0  0  0  0  0
   20.4571   -5.5966    4.7582 O   0  0  0  0  0  0  0  0  0  0  0  0
   21.5641   -3.7814    3.6124 C   0  0  0  0  0  0  0  0  0  0  0  0
   20.7195   -5.0353    3.4772 C   0  0  0  0  0  0  0  0  0  0  0  0
   17.2427  -10.5803   14.1625 C   0  0  0  0  0  0  0  0  0  0  0  0
   16.6784   -9.8507   15.3344 C   0  0  0  0  0  0  0  0  0  0  0  0
   16.9920  -10.2614   16.6349 C   0  0  0  0  0  0  0  0  0  0  0  0
   16.4734   -9.5674   17.7322 C   0  0  0  0  0  0  0  0  0  0  0  0
   15.6401   -8.4612   17.5329 C   0  0  0  0  0  0  0  0  0  0  0  0
   15.3323   -8.0474   16.2319 C   0  0  0  0  0  0  0  0  0  0  0  0
   15.8505   -8.7411   15.1345 C   0  0  0  0  0  0  0  0  0  0  0  0
   14.9993   -7.5835   18.9094 S   0  0  0  0  0  0  0  0  0  0  0  0
   14.1655   -8.5052   19.7541 O   0  0  0  0  0  0  0  0  0  0  0  0
   14.1525   -6.4401   18.4272 O   0  0  0  0  0  0  0  0  0  0  0  0
   16.3000   -6.9725   19.8689 N   0  0  0  0  0  0  0  0  0  0  0  0
   16.8748   -7.7489   20.1962 H   0  0  0  0  0  0  0  0  0  0  0  0
   15.9228   -6.4671   20.6706 H   0  0  0  0  0  0  0  0  0  0  0  0
 20 21  1  0  0  0
 21 19  1  0  0  0
 19 17  1  0  0  0
 17 18  2  0  0  0
 17  7  1  0  0  0
  7  8  2  0  0  0
  8  9  1  0  0  0
  9 10  1  0  0  0
 10 11  2  0  0  0
 11 12  1  0  0  0
 12 13  2  0  0  0
 11  1  1  0  0  0
  1  2  1  0  0  0
  2  3  2  0  0  0
  2  4  1  0  0  0
  4 22  1  0  0  0
 22 23  1  0  0  0
 23 24  2  0  0  0
 24 25  1  0  0  0
 25 26  2  0  0  0
 26 27  1  0  0  0
 27 28  2  0  0  0
 26 29  1  0  0  0
 29 30  2  0  0  0
 29 31  2  0  0  0
 29 32  1  0  0  0
 10 14  1  0  0  0
 14 15  2  0  0  0
  8 16  1  0  0  0
 15  7  1  0  0  0
 13  9  1  0  0  0
 28 23  1  0  0  0
  1  5  1  0  0  0
  4  6  1  0  0  0
 32 33  1  0  0  0
 32 34  1  0  0  0
M  END
>  <minimizedAffinity>
-5.48801

>  <minimizedRMSD>
1.70950

$$$$
CHEMBL1172720 PubChem-46837263


 32 35  0  0  0  0  0  0  0  0999 V2000
   18.6337  -12.1261   13.9191 C   0  0  0  0  0  0  0  0  0  0  0  0
   17.8879  -11.1308   14.7434 C   0  0  0  0  0  0  0  0  0  0  0  0
   17.9174  -11.2572   16.1352 C   0  0  0  0  0  0  0  0  0  0  0  0
   17.2321  -10.3449   16.9409 C   0  0  0  0  0  0  0  0  0  0  0  0
   16.5079   -9.2935   16.3638 C   0  0  0  0  0  0  0  0  0  0  0  0
   16.4791   -9.1678   14.9678 C   0  0  0  0  0  0  0  0  0  0  0  0
   17.1625  -10.0774   14.1546 C   0  0  0  0  0  0  0  0  0  0  0  0
   15.7858   -8.3312   17.2145 C   0  0  0  0  0  0  0  0  0  0  0  0
   15.0093   -7.4894   16.6859 O   0  0  0  0  0  0  0  0  0  0  0  0
   15.9735   -8.3595   18.6380 N   0  0  0  0  0  0  0  0  0  0  0  0
   16.5936   -9.0399   18.9869 H   0  0  0  0  0  0  0  0  0  0  0  0
   15.3529   -7.5013   19.6048 C   0  0  0  0  0  0  0  0  0  0  0  0
   15.9995   -7.2853   20.8259 C   0  0  0  0  0  0  0  0  0  0  0  0
   15.4222   -6.4622   21.7961 C   0  0  0  0  0  0  0  0  0  0  0  0
   14.1937   -5.8450   21.5480 C   0  0  0  0  0  0  0  0  0  0  0  0
   13.5410   -6.0364   20.3224 C   0  0  0  0  0  0  0  0  0  0  0  0
   14.1190   -6.8791   19.3627 C   0  0  0  0  0  0  0  0  0  0  0  0
   12.1960   -5.4176   20.0750 C   0  0  0  0  0  0  0  0  0  0  0  0
   11.4862   -5.3789   21.2606 F   0  0  0  0  0  0  0  0  0  0  0  0
   12.3391   -4.1285   19.5915 F   0  0  0  0  0  0  0  0  0  0  0  0
   11.4861   -6.1603   19.1472 F   0  0  0  0  0  0  0  0  0  0  0  0
   17.1047   -9.9074   12.7255 C   0  0  0  0  0  0  0  0  0  0  0  0
   17.0559   -9.7663   11.5294 C   0  0  0  0  0  0  0  0  0  0  0  0
   16.9982   -9.6002   10.1028 C   0  0  0  0  0  0  0  0  0  0  0  0
   16.0736  -10.1713    9.2393 C   0  0  0  0  0  0  0  0  0  0  0  0
   16.3576   -9.7716    7.9696 N   0  0  0  0  0  0  0  0  0  0  0  0
   17.4382   -8.9771    8.1060 C   0  0  0  0  0  0  0  0  0  0  0  0
   18.1180   -8.3177    7.0892 C   0  0  0  0  0  0  0  0  0  0  0  0
   19.2246   -7.5397    7.4651 C   0  0  0  0  0  0  0  0  0  0  0  0
   19.5995   -7.4551    8.8206 C   0  0  0  0  0  0  0  0  0  0  0  0
   18.8827   -8.1311    9.7634 N   0  0  0  0  0  0  0  0  0  0  0  0
   17.8388   -8.8601    9.3744 N   0  0  0  0  0  0  0  0  0  0  0  0
  1  2  1  0  0  0
  2  3  2  0  0  0
  3  4  1  0  0  0
  4  5  2  0  0  0
  5  8  1  0  0  0
  5  6  1  0  0  0
  8  9  2  0  0  0
  8 10  1  0  0  0
 10 12  1  0  0  0
 12 13  2  0  0  0
 13 14  1  0  0  0
 14 15  2  0  0  0
 15 16  1  0  0  0
 16 18  1  0  0  0
 16 17  2  0  0  0
 18 19  1  0  0  0
 18 20  1  0  0  0
 18 21  1  0  0  0
 17 12  1  0  0  0
  6  7  2  0  0  0
  7 22  1  0  0  0
  7  2  1  0  0  0
 22 23  3  0  0  0
 23 24  1  0  0  0
 24 25  2  0  0  0
 25 26  1  0  0  0
 26 27  2  0  0  0
 27 28  1  0  0  0
 28 29  2  0  0  0
 29 30  1  0  0  0
 30 31  2  0  0  0
 31 32  1  0  0  0
 32 24  1  0  0  0
 32 27  1  0  0  0
 10 11  1  0  0  0
M  END
>  <minimizedAffinity>
-11.84865

>  <minimizedRMSD>
1.71791

$$$$
CHEMBL1708772


 30 32  0  0  0  0  0  0  0  0999 V2000
   16.9596  -10.9032   16.7578 C   0  0  0  0  0  0  0  0  0  0  0  0
   16.9107   -9.4874   16.4232 N   0  0  0  0  0  0  0  0  0  0  0  0
   16.7152   -9.0545   15.0656 C   0  0  0  0  0  0  0  0  0  0  0  0
   16.7350   -7.8266   14.7833 O   0  0  0  0  0  0  0  0  0  0  0  0
   17.1630   -8.5253   17.4887 C   0  0  0  0  0  0  0  0  0  0  0  0
   15.8772   -7.9899   18.0202 C   0  0  0  0  0  0  0  0  0  0  0  0
   14.9093   -7.8121   17.2345 O   0  0  0  0  0  0  0  0  0  0  0  0
   15.7626   -7.7035   19.4200 N   0  0  0  0  0  0  0  0  0  0  0  0
   16.5726   -7.8350   19.9640 H   0  0  0  0  0  0  0  0  0  0  0  0
   14.5913   -7.2449   20.1129 C   0  0  0  0  0  0  0  0  0  0  0  0
   13.3135   -7.3483   19.5387 C   0  0  0  0  0  0  0  0  0  0  0  0
   12.1848   -6.9022   20.2304 C   0  0  0  0  0  0  0  0  0  0  0  0
   12.3219   -6.3508   21.5062 C   0  0  0  0  0  0  0  0  0  0  0  0
   13.5870   -6.2478   22.0896 C   0  0  0  0  0  0  0  0  0  0  0  0
   14.7197   -6.6930   21.4002 C   0  0  0  0  0  0  0  0  0  0  0  0
   16.2908   -6.5441   22.1698 Cl  0  0  0  0  0  0  0  0  0  0  0  0
   16.4977  -10.0404   13.9598 C   0  0  0  0  0  0  0  0  0  0  0  0
   17.7680  -10.2683   13.1471 C   0  0  0  0  0  0  0  0  0  0  0  0
   17.5826   -9.8762   11.7190 C   0  0  0  0  0  0  0  0  0  0  0  0
   16.4915  -10.3132   11.0350 N   0  0  0  0  0  0  0  0  0  0  0  0
   16.2957   -9.9790    9.7314 C   0  0  0  0  0  0  0  0  0  0  0  0
   15.1632  -10.4378    9.0671 O   0  0  0  0  0  0  0  0  0  0  0  0
   17.2335   -9.1749    9.0747 C   0  0  0  0  0  0  0  0  0  0  0  0
   17.0748   -8.7948    7.7357 C   0  0  0  0  0  0  0  0  0  0  0  0
   18.0391   -7.9901    7.1200 C   0  0  0  0  0  0  0  0  0  0  0  0
   19.1640   -7.5674    7.8366 C   0  0  0  0  0  0  0  0  0  0  0  0
   19.3284   -7.9454    9.1724 C   0  0  0  0  0  0  0  0  0  0  0  0
   18.3651   -8.7442    9.7961 C   0  0  0  0  0  0  0  0  0  0  0  0
   18.5147   -9.1056   11.0961 N   0  0  0  0  0  0  0  0  0  0  0  0
   14.5419  -10.9758    9.5171 H   0  0  0  0  0  0  0  0  0  0  0  0
  1  2  1  0  0  0
  2  5  1  0  0  0
  2  3  1  0  0  0
  5  6  1  0  0  0
  6  7  2  0  0  0
  6  8  1  0  0  0
  8 10  1  0  0  0
 10 11  2  0  0  0
 11 12  1  0  0  0
 12 13  2  0  0  0
 13 14  1  0  0  0
 14 15  2  0  0  0
 15 16  1  0  0  0
 15 10  1  0  0  0
  3  4  2  0  0  0
  3 17  1  0  0  0
 17 18  1  0  0  0
 18 19  1  0  0  0
 19 20  2  0  0  0
 20 21  1  0  0  0
 21 22  1  0  0  0
 21 23  2  0  0  0
 23 24  1  0  0  0
 24 25  2  0  0  0
 25 26  1  0  0  0
 26 27  2  0  0  0
 27 28  1  0  0  0
 28 29  2  0  0  0
 28 23  1  0  0  0
 29 19  1  0  0  0
  8  9  1  0  0  0
 22 30  1  0  0  0
M  END
>  <minimizedAffinity>
-9.37287

>  <minimizedRMSD>
1.71793

$$$$
CHEMBL1376192


 29 32  0  0  0  0  0  0  0  0999 V2000
   16.7615   -8.8154   14.3571 C   0  0  0  0  0  0  0  0  0  0  0  0
   16.5165   -8.5259   13.1031 O   0  0  0  0  0  0  0  0  0  0  0  0
   16.6980   -9.6545   12.4602 C   0  0  0  0  0  0  0  0  0  0  0  0
   17.0549  -10.6454   13.2995 N   0  0  0  0  0  0  0  0  0  0  0  0
   17.0957  -10.1099   14.5098 N   0  0  0  0  0  0  0  0  0  0  0  0
   16.5346   -9.8226   11.0123 C   0  0  0  0  0  0  0  0  0  0  0  0
   15.5804  -10.5915   10.4364 N   0  0  0  0  0  0  0  0  0  0  0  0
   15.7097  -10.5243    9.1136 N   0  0  0  0  0  0  0  0  0  0  0  0
   16.7481   -9.7108    8.8544 C   0  0  0  0  0  0  0  0  0  0  0  0
   17.2930   -9.2496   10.0186 C   0  0  0  0  0  0  0  0  0  0  0  0
   18.3856   -8.3855   10.0397 C   0  0  0  0  0  0  0  0  0  0  0  0
   18.9199   -7.9959    8.7972 C   0  0  0  0  0  0  0  0  0  0  0  0
   18.3575   -8.4720    7.5907 C   0  0  0  0  0  0  0  0  0  0  0  0
   17.2528   -9.3447    7.6095 C   0  0  0  0  0  0  0  0  0  0  0  0
   14.9006  -11.1157   10.9185 H   0  0  0  0  0  0  0  0  0  0  0  0
   16.6670   -7.6409   15.6995 S   0  0  0  0  0  0  0  0  0  0  0  0
   15.7055   -8.7876   16.7295 C   0  0  0  0  0  0  0  0  0  0  0  0
   15.0674   -8.0525   17.8548 C   0  0  0  0  0  0  0  0  0  0  0  0
   14.1405   -7.2365   17.6081 O   0  0  0  0  0  0  0  0  0  0  0  0
   15.5053   -8.2972   19.1983 N   0  0  0  0  0  0  0  0  0  0  0  0
   16.2193   -8.9649   19.3151 H   0  0  0  0  0  0  0  0  0  0  0  0
   15.0109   -7.6698   20.3892 C   0  0  0  0  0  0  0  0  0  0  0  0
   14.5473   -6.3451   20.3936 C   0  0  0  0  0  0  0  0  0  0  0  0
   14.0741   -5.7655   21.5743 C   0  0  0  0  0  0  0  0  0  0  0  0
   14.0617   -6.5065   22.7593 C   0  0  0  0  0  0  0  0  0  0  0  0
   14.5225   -7.8258   22.7623 C   0  0  0  0  0  0  0  0  0  0  0  0
   14.9954   -8.4040   21.5804 C   0  0  0  0  0  0  0  0  0  0  0  0
   13.6016   -4.4102   21.5694 C   0  0  0  0  0  0  0  0  0  0  0  0
   13.2206   -3.3174   21.5653 N   0  0  0  0  0  0  0  0  0  0  0  0
 16  1  1  0  0  0
  1  2  1  0  0  0
  2  3  1  0  0  0
  3  4  2  0  0  0
  4  5  1  0  0  0
  3  6  1  0  0  0
  6  7  1  0  0  0
  7  8  1  0  0  0
  8  9  2  0  0  0
  9 10  1  0  0  0
 10 11  1  0  0  0
 11 12  2  0  0  0
 12 13  1  0  0  0
 13 14  2  0  0  0
 16 17  1  0  0  0
 17 18  1  0  0  0
 18 19  2  0  0  0
 18 20  1  0  0  0
 20 22  1  0  0  0
 22 23  2  0  0  0
 23 24  1  0  0  0
 24 25  2  0  0  0
 25 26  1  0  0  0
 26 27  2  0  0  0
 24 28  1  0  0  0
 28 29  3  0  0  0
  5  1  2  0  0  0
 10  6  2  0  0  0
 27 22  1  0  0  0
 14  9  1  0  0  0
  7 15  1  0  0  0
 20 21  1  0  0  0
M  END
>  <minimizedAffinity>
-8.46555

>  <minimizedRMSD>
1.72029

$$$$
CHEMBL2079588 590964 LN01342086 MCULE-2706634959 MCULE-6157972879 MCULE-6849264280 MolPort-016-633-360 MolPort-047-152-813 PubChem-10174079 PubChem-10239879 PubChem-10311744 PubChem-159056270 PubChem-160684431 PubChem-166465388 PubChem-87613062 PubChem-9808843 PubChem-9808844 PubChem-9870815 PubChem-9935325 PubChem-9936039 PubChem-9936487 PubChem-9956915 PubChem-9959987 ZINC000000590964


 31 34  0  0  0  0  0  0  0  0999 V2000
   17.1985   -9.6792   10.5459 C   0  0  0  0  0  0  0  0  0  0  0  0
   18.2668   -8.9745   10.0108 C   0  0  0  0  0  0  0  0  0  0  0  0
   19.2941   -8.4632   10.6334 O   0  0  0  0  0  0  0  0  0  0  0  0
   20.0844   -7.9147    9.7274 C   0  0  0  0  0  0  0  0  0  0  0  0
   19.5431   -8.0782    8.4493 C   0  0  0  0  0  0  0  0  0  0  0  0
   18.3616   -8.7551    8.6741 C   0  0  0  0  0  0  0  0  0  0  0  0
   17.3784   -9.2374    7.8053 C   0  0  0  0  0  0  0  0  0  0  0  0
   16.3526   -9.9530    8.3541 N   0  0  0  0  0  0  0  0  0  0  0  0
   16.2592  -10.1595    9.6767 N   0  0  0  0  0  0  0  0  0  0  0  0
   17.4478   -9.0768    6.3824 N   0  0  0  0  0  0  0  0  0  0  0  0
   16.7285   -9.4877    5.8504 H   0  0  0  0  0  0  0  0  0  0  0  0
   18.4677   -8.3734    5.6636 C   0  0  0  0  0  0  0  0  0  0  0  0
   19.0006   -7.1668    6.1431 C   0  0  0  0  0  0  0  0  0  0  0  0
   19.9646   -6.4780    5.4016 C   0  0  0  0  0  0  0  0  0  0  0  0
   20.3921   -6.9849    4.1716 C   0  0  0  0  0  0  0  0  0  0  0  0
   21.5999   -6.1239    3.2427 Cl  0  0  0  0  0  0  0  0  0  0  0  0
   19.8494   -8.1752    3.6793 C   0  0  0  0  0  0  0  0  0  0  0  0
   18.8855   -8.8638    4.4219 C   0  0  0  0  0  0  0  0  0  0  0  0
   17.1026   -9.8947   11.9206 O   0  0  0  0  0  0  0  0  0  0  0  0
   16.0990   -9.2723   12.7091 C   0  0  0  0  0  0  0  0  0  0  0  0
   16.0853   -8.7820   16.4578 C   0  0  0  0  0  0  0  0  0  0  0  0
   17.1242   -9.5868   16.8179 N   0  0  0  0  0  0  0  0  0  0  0  0
   17.8366  -10.2936   15.8995 C   0  0  0  0  0  0  0  0  0  0  0  0
   17.5108  -10.2092   14.5446 C   0  0  0  0  0  0  0  0  0  0  0  0
   16.4454   -9.3984   14.1497 C   0  0  0  0  0  0  0  0  0  0  0  0
   15.7317   -8.6740   15.1064 C   0  0  0  0  0  0  0  0  0  0  0  0
   15.0931   -7.3530   19.9007 C   0  0  0  0  0  0  0  0  0  0  0  0
   15.7853   -8.0735   18.8456 N   0  0  0  0  0  0  0  0  0  0  0  0
   15.3466   -8.0330   17.4860 C   0  0  0  0  0  0  0  0  0  0  0  0
   14.3290   -7.3570   17.1700 O   0  0  0  0  0  0  0  0  0  0  0  0
   16.5812   -8.6060   19.0744 H   0  0  0  0  0  0  0  0  0  0  0  0
 27 28  1  0  0  0
 28 29  1  0  0  0
 29 30  2  0  0  0
 29 21  1  0  0  0
 21 22  2  0  0  0
 22 23  1  0  0  0
 23 24  2  0  0  0
 24 25  1  0  0  0
 25 20  1  0  0  0
 20 19  1  0  0  0
 19  1  1  0  0  0
  1  2  2  0  0  0
  2  3  1  0  0  0
  3  4  1  0  0  0
  4  5  2  0  0  0
  5  6  1  0  0  0
  6  7  2  0  0  0
  7 10  1  0  0  0
 10 12  1  0  0  0
 12 13  2  0  0  0
 13 14  1  0  0  0
 14 15  2  0  0  0
 15 16  1  0  0  0
 15 17  1  0  0  0
 17 18  2  0  0  0
  7  8  1  0  0  0
  8  9  2  0  0  0
 25 26  2  0  0  0
 26 21  1  0  0  0
  9  1  1  0  0  0
  6  2  1  0  0  0
 18 12  1  0  0  0
 28 31  1  0  0  0
 10 11  1  0  0  0
M  END
>  <minimizedAffinity>
-8.70802

>  <minimizedRMSD>
1.72116

$$$$
CHEMBL3765044 PubChem-127027443


 27 28  0  0  0  0  0  0  0  0999 V2000
   17.3757   -9.8293   11.4738 C   0  0  0  0  0  0  0  0  0  0  0  0
   16.0695  -10.1853   11.2755 N   0  0  0  0  0  0  0  0  0  0  0  0
   15.4401   -9.9550   10.0777 C   0  0  0  0  0  0  0  0  0  0  0  0
   16.1106   -9.3589    9.0453 N   0  0  0  0  0  0  0  0  0  0  0  0
   17.4044   -9.0122    9.2492 C   0  0  0  0  0  0  0  0  0  0  0  0
   18.2396   -8.4202    8.3914 N   0  0  0  0  0  0  0  0  0  0  0  0
   19.3966   -8.2741    9.0848 C   0  0  0  0  0  0  0  0  0  0  0  0
   19.3102   -8.7718   10.3518 N   0  0  0  0  0  0  0  0  0  0  0  0
   18.0444   -9.2265   10.4181 C   0  0  0  0  0  0  0  0  0  0  0  0
   13.7675  -10.4256    9.8706 Cl  0  0  0  0  0  0  0  0  0  0  0  0
   18.0292  -10.0642   12.7216 N   0  0  0  0  0  0  0  0  0  0  0  0
   18.2223   -9.2998   13.3112 H   0  0  0  0  0  0  0  0  0  0  0  0
   18.4173  -11.3979   13.1467 C   0  0  0  0  0  0  0  0  0  0  0  0
   18.9696  -11.3375   14.5579 C   0  0  0  0  0  0  0  0  0  0  0  0
   18.0927  -12.1414   15.5061 C   0  0  0  0  0  0  0  0  0  0  0  0
   17.6074  -11.2892   16.6690 C   0  0  0  0  0  0  0  0  0  0  0  0
   18.0201   -9.8408   16.4738 C   0  0  0  0  0  0  0  0  0  0  0  0
   16.8146   -8.9977   16.2531 C   0  0  0  0  0  0  0  0  0  0  0  0
   16.3104   -8.9152   15.1019 O   0  0  0  0  0  0  0  0  0  0  0  0
   16.2184   -8.3120   17.3517 N   0  0  0  0  0  0  0  0  0  0  0  0
   15.1128   -7.5511   17.1777 O   0  0  0  0  0  0  0  0  0  0  0  0
   16.6162   -8.3930   18.2487 H   0  0  0  0  0  0  0  0  0  0  0  0
   14.8477   -7.5745   16.2449 H   0  0  0  0  0  0  0  0  0  0  0  0
   17.9602   -7.9618    7.0405 C   0  0  0  0  0  0  0  0  0  0  0  0
   19.1174   -7.1198    6.5291 C   0  0  0  0  0  0  0  0  0  0  0  0
   19.8591   -7.8528    5.4260 C   0  0  0  0  0  0  0  0  0  0  0  0
   18.8971   -8.2768    4.3321 C   0  0  0  0  0  0  0  0  0  0  0  0
 18 19  2  0  0  0
 18 17  1  0  0  0
 17 16  1  0  0  0
 16 15  1  0  0  0
 15 14  1  0  0  0
 14 13  1  0  0  0
 13 11  1  0  0  0
 11  1  1  0  0  0
  1  2  2  0  0  0
  2  3  1  0  0  0
  3  4  2  0  0  0
  4  5  1  0  0  0
  5  6  1  0  0  0
  6  7  1  0  0  0
  7  8  2  0  0  0
  8  9  1  0  0  0
  6 24  1  0  0  0
 24 25  1  0  0  0
 25 26  1  0  0  0
 26 27  1  0  0  0
  3 10  1  0  0  0
 18 20  1  0  0  0
 20 21  1  0  0  0
  9  1  1  0  0  0
  9  5  2  0  0  0
 11 12  1  0  0  0
 20 22  1  0  0  0
 21 23  1  0  0  0
M  END
>  <minimizedAffinity>
-6.76096

>  <minimizedRMSD>
1.72346

$$$$
CHEMBL3582394


 34 38  0  0  0  0  0  0  0  0999 V2000
   16.0136   -8.4141   17.0924 C   0  0  0  0  0  0  0  0  0  0  0  0
   16.6339   -9.4315   17.8245 C   0  0  0  0  0  0  0  0  0  0  0  0
   17.2598  -10.4983   17.1797 C   0  0  0  0  0  0  0  0  0  0  0  0
   17.2743  -10.5628   15.7871 C   0  0  0  0  0  0  0  0  0  0  0  0
   17.8876  -11.6084   15.1774 F   0  0  0  0  0  0  0  0  0  0  0  0
   16.6589   -9.5537   15.0329 C   0  0  0  0  0  0  0  0  0  0  0  0
   16.0273   -8.4770   15.6799 C   0  0  0  0  0  0  0  0  0  0  0  0
   15.4420   -7.5155   14.9236 F   0  0  0  0  0  0  0  0  0  0  0  0
   15.3934   -7.3537   17.8351 N   0  0  0  0  0  0  0  0  0  0  0  0
   15.9220   -6.5303   17.9440 H   0  0  0  0  0  0  0  0  0  0  0  0
   13.1682   -8.6985   18.3663 O   0  0  0  0  0  0  0  0  0  0  0  0
   13.8184   -7.3579   18.5628 S   0  0  0  0  0  0  0  0  0  0  0  0
   12.9787   -6.2724   17.9496 O   0  0  0  0  0  0  0  0  0  0  0  0
   13.9790   -7.0511   20.2818 C   0  0  0  0  0  0  0  0  0  0  0  0
   15.1626   -7.3675   20.9532 C   0  0  0  0  0  0  0  0  0  0  0  0
   15.2726   -7.1217   22.3229 C   0  0  0  0  0  0  0  0  0  0  0  0
   14.1892   -6.5616   23.0039 C   0  0  0  0  0  0  0  0  0  0  0  0
   13.0435   -6.2619   22.3345 N   0  0  0  0  0  0  0  0  0  0  0  0
   12.9173   -6.4938   20.9999 C   0  0  0  0  0  0  0  0  0  0  0  0
   16.6763   -9.6219   13.5933 C   0  0  0  0  0  0  0  0  0  0  0  0
   16.6907   -9.6774   12.3891 C   0  0  0  0  0  0  0  0  0  0  0  0
   16.7080   -9.7418   10.9558 C   0  0  0  0  0  0  0  0  0  0  0  0
   15.8127  -10.6009   10.2744 C   0  0  0  0  0  0  0  0  0  0  0  0
   15.8191  -10.6729    8.9082 N   0  0  0  0  0  0  0  0  0  0  0  0
   16.6981   -9.9021    8.2213 C   0  0  0  0  0  0  0  0  0  0  0  0
   16.8522   -9.8567    6.8879 N   0  0  0  0  0  0  0  0  0  0  0  0
   17.8286   -8.9846    6.6434 N   0  0  0  0  0  0  0  0  0  0  0  0
   18.2781   -8.4779    7.8193 C   0  0  0  0  0  0  0  0  0  0  0  0
   17.5713   -9.0640    8.8425 C   0  0  0  0  0  0  0  0  0  0  0  0
   17.6156   -8.9505   10.2273 C   0  0  0  0  0  0  0  0  0  0  0  0
   16.3417  -10.3691    6.2200 H   0  0  0  0  0  0  0  0  0  0  0  0
   19.4125   -7.5109    7.9506 C   0  0  0  0  0  0  0  0  0  0  0  0
   20.1316   -7.3696    6.6211 C   0  0  0  0  0  0  0  0  0  0  0  0
   19.1611   -6.3005    7.0691 C   0  0  0  0  0  0  0  0  0  0  0  0
 11 12  2  0  0  0
 12 13  2  0  0  0
 12  9  1  0  0  0
  9  1  1  0  0  0
  1  2  2  0  0  0
  2  3  1  0  0  0
  3  4  2  0  0  0
  4  5  1  0  0  0
  4  6  1  0  0  0
  6 20  1  0  0  0
 20 21  3  0  0  0
 21 22  1  0  0  0
 22 23  2  0  0  0
 23 24  1  0  0  0
 24 25  2  0  0  0
 25 26  1  0  0  0
 26 27  1  0  0  0
 27 28  2  0  0  0
 28 32  1  0  0  0
 32 33  1  0  0  0
 33 34  1  0  0  0
 28 29  1  0  0  0
 29 30  2  0  0  0
  6  7  2  0  0  0
  7  8  1  0  0  0
 12 14  1  0  0  0
 14 15  2  0  0  0
 15 16  1  0  0  0
 16 17  2  0  0  0
 17 18  1  0  0  0
 18 19  2  0  0  0
  7  1  1  0  0  0
 19 14  1  0  0  0
 30 22  1  0  0  0
 29 25  1  0  0  0
 34 32  1  0  0  0
  9 10  1  0  0  0
 26 31  1  0  0  0
M  END
>  <minimizedAffinity>
-6.67632

>  <minimizedRMSD>
1.72956

$$$$
CHEMBL3911472 PubChem-56848947


 35 39  0  0  0  0  0  0  0  0999 V2000
   17.1892  -10.7129   15.7621 C   0  0  0  0  0  0  0  0  0  0  0  0
   17.3994  -10.6617   17.1490 C   0  0  0  0  0  0  0  0  0  0  0  0
   16.6557   -9.7756   17.9287 C   0  0  0  0  0  0  0  0  0  0  0  0
   15.7081   -8.9474   17.3268 C   0  0  0  0  0  0  0  0  0  0  0  0
   15.5204   -9.0203   15.9454 C   0  0  0  0  0  0  0  0  0  0  0  0
   16.2555   -9.8904   15.2031 N   0  0  0  0  0  0  0  0  0  0  0  0
   14.7790   -7.8196   18.2974 S   0  0  0  0  0  0  0  0  0  0  0  0
   13.3198   -8.1578   18.1816 O   0  0  0  0  0  0  0  0  0  0  0  0
   14.9942   -6.4123   17.8146 O   0  0  0  0  0  0  0  0  0  0  0  0
   15.2653   -7.9338   19.9572 N   0  0  0  0  0  0  0  0  0  0  0  0
   14.7606   -8.5371   20.5493 H   0  0  0  0  0  0  0  0  0  0  0  0
   16.3594   -7.2001   20.5140 C   0  0  0  0  0  0  0  0  0  0  0  0
   17.5753   -7.0669   19.8265 C   0  0  0  0  0  0  0  0  0  0  0  0
   18.6304   -6.3474   20.3942 C   0  0  0  0  0  0  0  0  0  0  0  0
   18.4758   -5.7568   21.6514 C   0  0  0  0  0  0  0  0  0  0  0  0
   19.4979   -5.0595   22.2025 F   0  0  0  0  0  0  0  0  0  0  0  0
   17.2662   -5.8858   22.3401 C   0  0  0  0  0  0  0  0  0  0  0  0
   16.2112   -6.6061   21.7717 C   0  0  0  0  0  0  0  0  0  0  0  0
   17.9568  -13.0494   15.2247 C   0  0  0  0  0  0  0  0  0  0  0  0
   17.9488  -11.6226   14.9362 N   0  0  0  0  0  0  0  0  0  0  0  0
   18.7388  -11.1826   13.7861 C   0  0  0  0  0  0  0  0  0  0  0  0
   19.2104   -9.7422   13.9467 C   0  0  0  0  0  0  0  0  0  0  0  0
   18.9316   -9.0523   12.6244 C   0  0  0  0  0  0  0  0  0  0  0  0
   18.1330   -9.9790   11.8429 N   0  0  0  0  0  0  0  0  0  0  0  0
   17.9406  -11.2579   12.4967 C   0  0  0  0  0  0  0  0  0  0  0  0
   17.5710   -9.6886   10.5508 C   0  0  0  0  0  0  0  0  0  0  0  0
   16.3666  -10.2296   10.1938 N   0  0  0  0  0  0  0  0  0  0  0  0
   15.7950   -9.9767    8.9760 C   0  0  0  0  0  0  0  0  0  0  0  0
   16.4202   -9.1662    8.0736 N   0  0  0  0  0  0  0  0  0  0  0  0
   17.6132   -8.6226    8.4128 C   0  0  0  0  0  0  0  0  0  0  0  0
   18.3467   -7.8097    7.6414 N   0  0  0  0  0  0  0  0  0  0  0  0
   19.4377   -7.5268    8.3952 C   0  0  0  0  0  0  0  0  0  0  0  0
   19.3891   -8.1616    9.6388 C   0  0  0  0  0  0  0  0  0  0  0  0
   18.2013   -8.8587    9.6156 C   0  0  0  0  0  0  0  0  0  0  0  0
   18.1405   -7.4902    6.7333 H   0  0  0  0  0  0  0  0  0  0  0  0
 19 20  1  0  0  0
 21 20  1  0  0  0
 21 22  1  0  0  0
 22 23  1  0  0  0
 23 24  1  0  0  0
 24 25  1  0  0  0
 24 26  1  0  0  0
 26 27  2  0  0  0
 27 28  1  0  0  0
 28 29  2  0  0  0
 29 30  1  0  0  0
 30 31  1  0  0  0
 31 32  1  0  0  0
 32 33  2  0  0  0
 33 34  1  0  0  0
 20  1  1  0  0  0
  1  2  2  0  0  0
  2  3  1  0  0  0
  3  4  2  0  0  0
  4  5  1  0  0  0
  5  6  2  0  0  0
  4  7  1  0  0  0
  7  8  2  0  0  0
  7  9  2  0  0  0
  7 10  1  0  0  0
 10 12  1  0  0  0
 12 13  2  0  0  0
 13 14  1  0  0  0
 14 15  2  0  0  0
 15 16  1  0  0  0
 15 17  1  0  0  0
 17 18  2  0  0  0
 25 21  1  0  0  0
 34 26  1  0  0  0
  6  1  1  0  0  0
 18 12  1  0  0  0
 34 30  2  0  0  0
 31 35  1  0  0  0
 10 11  1  0  0  0
M  END
>  <minimizedAffinity>
-0.85193

>  <minimizedRMSD>
1.73091

$$$$
CHEMBL4108544 PubChem-127053773


 39 44  0  0  0  0  0  0  0  0999 V2000
   17.2824  -10.7138   15.7311 C   0  0  0  0  0  0  0  0  0  0  0  0
   16.3298   -9.8266   15.2028 C   0  0  0  0  0  0  0  0  0  0  0  0
   15.6076   -8.9659   16.0305 C   0  0  0  0  0  0  0  0  0  0  0  0
   15.8199   -8.9732   17.4131 C   0  0  0  0  0  0  0  0  0  0  0  0
   16.7592   -9.8581   17.9539 C   0  0  0  0  0  0  0  0  0  0  0  0
   17.4868  -10.7221   17.1302 C   0  0  0  0  0  0  0  0  0  0  0  0
   18.3579  -11.5809   17.7147 F   0  0  0  0  0  0  0  0  0  0  0  0
   15.0586   -8.0671   18.2900 C   0  0  0  0  0  0  0  0  0  0  0  0
   14.5910   -6.9907   17.8274 O   0  0  0  0  0  0  0  0  0  0  0  0
   14.8497   -8.4133   19.6675 N   0  0  0  0  0  0  0  0  0  0  0  0
   15.2400   -9.2599   19.9838 H   0  0  0  0  0  0  0  0  0  0  0  0
   14.1056   -7.6139   20.6407 C   0  0  0  0  0  0  0  0  0  0  0  0
   14.8691   -6.3294   21.0045 C   0  0  0  0  0  0  0  0  0  0  0  0
   15.1671   -6.3327   22.3666 O   0  0  0  0  0  0  0  0  0  0  0  0
   13.9554   -5.1368   20.6798 C   0  0  0  0  0  0  0  0  0  0  0  0
   12.7410   -5.7597   20.1098 C   0  0  0  0  0  0  0  0  0  0  0  0
   11.6087   -5.0924   19.6417 C   0  0  0  0  0  0  0  0  0  0  0  0
   10.5419   -5.8532   19.1393 C   0  0  0  0  0  0  0  0  0  0  0  0
   10.6221   -7.2570   19.1162 C   0  0  0  0  0  0  0  0  0  0  0  0
   11.7703   -7.9069   19.5935 C   0  0  0  0  0  0  0  0  0  0  0  0
   12.8224   -7.1285   20.0812 C   0  0  0  0  0  0  0  0  0  0  0  0
   14.3445   -6.3907   22.8773 H   0  0  0  0  0  0  0  0  0  0  0  0
   18.0389  -13.0357   15.0716 C   0  0  0  0  0  0  0  0  0  0  0  0
   18.0173  -11.5980   14.8475 N   0  0  0  0  0  0  0  0  0  0  0  0
   18.7872  -11.1234   13.6951 C   0  0  0  0  0  0  0  0  0  0  0  0
   19.2283   -9.6742   13.8604 C   0  0  0  0  0  0  0  0  0  0  0  0
   18.9495   -8.9929   12.5333 C   0  0  0  0  0  0  0  0  0  0  0  0
   18.1643   -9.9315   11.7518 N   0  0  0  0  0  0  0  0  0  0  0  0
   17.9880  -11.2118   12.4074 C   0  0  0  0  0  0  0  0  0  0  0  0
   17.6017   -9.6509   10.4579 C   0  0  0  0  0  0  0  0  0  0  0  0
   16.4039  -10.2060   10.1002 N   0  0  0  0  0  0  0  0  0  0  0  0
   15.8320   -9.9629    8.8805 C   0  0  0  0  0  0  0  0  0  0  0  0
   16.4500   -9.1484    7.9769 N   0  0  0  0  0  0  0  0  0  0  0  0
   17.6366   -8.5908    8.3167 C   0  0  0  0  0  0  0  0  0  0  0  0
   18.3625   -7.7722    7.5444 N   0  0  0  0  0  0  0  0  0  0  0  0
   19.4491   -7.4753    8.2995 C   0  0  0  0  0  0  0  0  0  0  0  0
   19.4050   -8.1070    9.5448 C   0  0  0  0  0  0  0  0  0  0  0  0
   18.2248   -8.8170    9.5213 C   0  0  0  0  0  0  0  0  0  0  0  0
   18.1545   -7.4574    6.6351 H   0  0  0  0  0  0  0  0  0  0  0  0
 23 24  1  0  0  0
 25 24  1  0  0  0
 25 26  1  0  0  0
 26 27  1  0  0  0
 27 28  1  0  0  0
 28 29  1  0  0  0
 28 30  1  0  0  0
 30 31  2  0  0  0
 31 32  1  0  0  0
 32 33  2  0  0  0
 33 34  1  0  0  0
 34 35  1  0  0  0
 35 36  1  0  0  0
 36 37  2  0  0  0
 37 38  1  0  0  0
 24  1  1  0  0  0
  1  2  2  0  0  0
  2  3  1  0  0  0
  3  4  2  0  0  0
  4  5  1  0  0  0
  5  6  2  0  0  0
  6  7  1  0  0  0
  4  8  1  0  0  0
  8  9  2  0  0  0
  8 10  1  0  0  0
 10 12  1  0  0  0
 12 13  1  0  0  0
 13 14  1  0  0  0
 13 15  1  0  0  0
 15 16  1  0  0  0
 16 17  2  0  0  0
 17 18  1  0  0  0
 18 19  2  0  0  0
 19 20  1  0  0  0
 20 21  2  0  0  0
 29 25  1  0  0  0
 38 30  1  0  0  0
  6  1  1  0  0  0
 21 12  1  0  0  0
 38 34  2  0  0  0
 21 16  1  0  0  0
 35 39  1  0  0  0
 10 11  1  0  0  0
 14 22  1  0  0  0
M  END
>  <minimizedAffinity>
-6.12233

>  <minimizedRMSD>
1.73176

$$$$
CHEMBL3621284 PubChem-78323553


 26 27  0  0  0  0  0  0  0  0999 V2000
   16.5285   -9.5586   11.4138 C   0  0  0  0  0  0  0  0  0  0  0  0
   18.3451   -8.4829    7.0501 C   0  0  0  0  0  0  0  0  0  0  0  0
   19.1979   -7.5194    7.5163 N   0  0  0  0  0  0  0  0  0  0  0  0
   19.2530   -7.2000    8.8502 C   0  0  0  0  0  0  0  0  0  0  0  0
   18.4498   -7.8418    9.7521 N   0  0  0  0  0  0  0  0  0  0  0  0
   17.6064   -8.7922    9.2814 C   0  0  0  0  0  0  0  0  0  0  0  0
   17.5350   -9.1259    7.9752 C   0  0  0  0  0  0  0  0  0  0  0  0
   16.6312  -10.1066    7.7890 N   0  0  0  0  0  0  0  0  0  0  0  0
   16.1650  -10.3443    9.0486 C   0  0  0  0  0  0  0  0  0  0  0  0
   16.7462   -9.5421    9.9756 N   0  0  0  0  0  0  0  0  0  0  0  0
   19.1842   -8.2178    4.6886 C   0  0  0  0  0  0  0  0  0  0  0  0
   18.2902   -8.8195    5.6631 N   0  0  0  0  0  0  0  0  0  0  0  0
   17.6262   -9.4794    5.3581 H   0  0  0  0  0  0  0  0  0  0  0  0
   17.6879  -10.1939   12.1001 C   0  0  0  0  0  0  0  0  0  0  0  0
   18.8587   -9.9418   11.7088 O   0  0  0  0  0  0  0  0  0  0  0  0
   17.4589  -11.1146   13.1686 N   0  0  0  0  0  0  0  0  0  0  0  0
   16.5307  -11.3128   13.4302 H   0  0  0  0  0  0  0  0  0  0  0  0
   18.5426  -11.7722   13.8868 C   0  0  0  0  0  0  0  0  0  0  0  0
   18.8577  -11.0314   15.1763 C   0  0  0  0  0  0  0  0  0  0  0  0
   17.7747  -11.2882   16.2100 C   0  0  0  0  0  0  0  0  0  0  0  0
   16.8398  -10.1310   16.2751 C   0  0  0  0  0  0  0  0  0  0  0  0
   15.9326  -10.0022   15.4101 O   0  0  0  0  0  0  0  0  0  0  0  0
   16.9675   -9.1814   17.3304 N   0  0  0  0  0  0  0  0  0  0  0  0
   16.1277   -8.1237   17.4180 O   0  0  0  0  0  0  0  0  0  0  0  0
   17.6759   -9.2964   18.0044 H   0  0  0  0  0  0  0  0  0  0  0  0
   15.4925   -8.1537   16.6855 H   0  0  0  0  0  0  0  0  0  0  0  0
 11 12  1  0  0  0
 12  2  1  0  0  0
  2  3  2  0  0  0
  3  4  1  0  0  0
  4  5  2  0  0  0
  5  6  1  0  0  0
  6  7  2  0  0  0
  7  8  1  0  0  0
  8  9  2  0  0  0
  9 10  1  0  0  0
 10  1  1  0  0  0
  1 14  1  0  0  0
 14 15  2  0  0  0
 14 16  1  0  0  0
 16 18  1  0  0  0
 18 19  1  0  0  0
 19 20  1  0  0  0
 20 21  1  0  0  0
 21 22  2  0  0  0
 21 23  1  0  0  0
 23 24  1  0  0  0
  7  2  1  0  0  0
 10  6  1  0  0  0
 12 13  1  0  0  0
 16 17  1  0  0  0
 23 25  1  0  0  0
 24 26  1  0  0  0
M  END
>  <minimizedAffinity>
-7.20024

>  <minimizedRMSD>
1.73186

$$$$
CHEMBL4538140 PubChem-155548916


 34 38  0  0  0  0  0  0  0  0999 V2000
   16.4645   -9.4387   11.6819 C   0  0  0  0  0  0  0  0  0  0  0  0
   16.2756   -8.2476   12.0514 O   0  0  0  0  0  0  0  0  0  0  0  0
   16.8607  -10.4469   12.6222 N   0  0  0  0  0  0  0  0  0  0  0  0
   16.9756  -11.3577   12.2666 H   0  0  0  0  0  0  0  0  0  0  0  0
   17.1080  -10.2718   14.0264 C   0  0  0  0  0  0  0  0  0  0  0  0
   16.3272   -9.4012   14.8019 C   0  0  0  0  0  0  0  0  0  0  0  0
   16.5754   -9.2348   16.1710 C   0  0  0  0  0  0  0  0  0  0  0  0
   17.6204   -9.9508   16.7677 C   0  0  0  0  0  0  0  0  0  0  0  0
   18.4047  -10.8197   16.0065 C   0  0  0  0  0  0  0  0  0  0  0  0
   18.1539  -10.9830   14.6413 C   0  0  0  0  0  0  0  0  0  0  0  0
   19.0125  -11.9181   13.8600 C   0  0  0  0  0  0  0  0  0  0  0  0
   15.7471   -8.3172   16.9730 C   0  0  0  0  0  0  0  0  0  0  0  0
   15.0263   -7.4589   16.3946 O   0  0  0  0  0  0  0  0  0  0  0  0
   15.7678   -8.4084   18.4059 N   0  0  0  0  0  0  0  0  0  0  0  0
   16.3512   -9.0997   18.7945 H   0  0  0  0  0  0  0  0  0  0  0  0
   15.0288   -7.5991   19.3309 C   0  0  0  0  0  0  0  0  0  0  0  0
   13.7650   -7.0756   19.0164 C   0  0  0  0  0  0  0  0  0  0  0  0
   13.0742   -6.2904   19.9442 C   0  0  0  0  0  0  0  0  0  0  0  0
   13.6421   -6.0234   21.1927 C   0  0  0  0  0  0  0  0  0  0  0  0
   14.8999   -6.5414   21.5125 C   0  0  0  0  0  0  0  0  0  0  0  0
   15.5897   -7.3265   20.5836 C   0  0  0  0  0  0  0  0  0  0  0  0
   16.1649  -11.3108    9.9934 C   0  0  0  0  0  0  0  0  0  0  0  0
   16.2696   -9.8215   10.2458 C   0  0  0  0  0  0  0  0  0  0  0  0
   14.9320  -10.4285    9.8666 C   0  0  0  0  0  0  0  0  0  0  0  0
   16.9587   -9.0387    9.1690 C   0  0  0  0  0  0  0  0  0  0  0  0
   16.3203   -8.7767    7.9895 N   0  0  0  0  0  0  0  0  0  0  0  0
   16.9426   -8.0960    6.9768 C   0  0  0  0  0  0  0  0  0  0  0  0
   18.2316   -7.6677    7.1200 N   0  0  0  0  0  0  0  0  0  0  0  0
   18.8740   -7.9339    8.2830 C   0  0  0  0  0  0  0  0  0  0  0  0
   18.2769   -8.6054    9.2996 C   0  0  0  0  0  0  0  0  0  0  0  0
   19.1906   -8.7274   10.3215 C   0  0  0  0  0  0  0  0  0  0  0  0
   20.3307   -8.0862    9.8270 C   0  0  0  0  0  0  0  0  0  0  0  0
   20.1372   -7.5993    8.5751 N   0  0  0  0  0  0  0  0  0  0  0  0
   20.7792   -7.1113    8.0103 H   0  0  0  0  0  0  0  0  0  0  0  0
 22 23  1  0  0  0
 23 24  1  0  0  0
 23 25  1  0  0  0
 25 26  2  0  0  0
 26 27  1  0  0  0
 27 28  2  0  0  0
 28 29  1  0  0  0
 29 30  2  0  0  0
 30 31  1  0  0  0
 31 32  2  0  0  0
 32 33  1  0  0  0
 23  1  1  0  0  0
  1  2  2  0  0  0
  1  3  1  0  0  0
  3  5  1  0  0  0
  5  6  2  0  0  0
  6  7  1  0  0  0
  7  8  2  0  0  0
  8  9  1  0  0  0
  9 10  2  0  0  0
 10 11  1  0  0  0
  7 12  1  0  0  0
 12 13  2  0  0  0
 12 14  1  0  0  0
 14 16  1  0  0  0
 16 17  2  0  0  0
 17 18  1  0  0  0
 18 19  2  0  0  0
 19 20  1  0  0  0
 20 21  2  0  0  0
 24 22  1  0  0  0
 30 25  1  0  0  0
 10  5  1  0  0  0
 21 16  1  0  0  0
 33 29  1  0  0  0
 33 34  1  0  0  0
  3  4  1  0  0  0
 14 15  1  0  0  0
M  END
>  <minimizedAffinity>
-7.00380

>  <minimizedRMSD>
1.73472

$$$$
CHEMBL4475173 PubChem-59278436


 33 36  0  0  0  0  0  0  0  0999 V2000
   17.9685  -11.2833   12.8854 N   0  0  0  0  0  0  0  0  0  0  0  0
   17.8379   -9.9552   12.3677 C   0  0  0  0  0  0  0  0  0  0  0  0
   18.0088   -8.9648   13.1294 O   0  0  0  0  0  0  0  0  0  0  0  0
   17.8779  -12.0414   12.2637 H   0  0  0  0  0  0  0  0  0  0  0  0
   17.5077   -9.7533   10.9420 C   0  0  0  0  0  0  0  0  0  0  0  0
   16.2566  -10.1577   10.4329 C   0  0  0  0  0  0  0  0  0  0  0  0
   15.9413   -9.9720    9.1127 N   0  0  0  0  0  0  0  0  0  0  0  0
   16.8111   -9.3925    8.2345 C   0  0  0  0  0  0  0  0  0  0  0  0
   18.0522   -8.9851    8.7166 C   0  0  0  0  0  0  0  0  0  0  0  0
   18.3877   -9.1605   10.0272 C   0  0  0  0  0  0  0  0  0  0  0  0
   19.6667   -8.6517   10.1655 C   0  0  0  0  0  0  0  0  0  0  0  0
   20.0524   -8.1932    8.9483 N   0  0  0  0  0  0  0  0  0  0  0  0
   19.0757   -8.3948    8.0691 N   0  0  0  0  0  0  0  0  0  0  0  0
   19.1678   -8.0191    6.6813 C   0  0  0  0  0  0  0  0  0  0  0  0
   18.3667   -8.6318    5.7042 C   0  0  0  0  0  0  0  0  0  0  0  0
   18.4685   -8.2551    4.3622 C   0  0  0  0  0  0  0  0  0  0  0  0
   19.3738   -7.2612    3.9830 C   0  0  0  0  0  0  0  0  0  0  0  0
   20.1765   -6.6443    4.9453 C   0  0  0  0  0  0  0  0  0  0  0  0
   20.0734   -7.0216    6.2872 C   0  0  0  0  0  0  0  0  0  0  0  0
   19.4741   -6.8966    2.6824 F   0  0  0  0  0  0  0  0  0  0  0  0
   18.2294  -11.5636   14.2910 C   0  0  0  0  0  0  0  0  0  0  0  0
   15.8489   -9.0037   16.7801 C   0  0  0  0  0  0  0  0  0  0  0  0
   17.1091   -9.4312   17.2138 C   0  0  0  0  0  0  0  0  0  0  0  0
   17.8822  -10.2685   16.4043 C   0  0  0  0  0  0  0  0  0  0  0  0
   17.3964  -10.6834   15.1600 C   0  0  0  0  0  0  0  0  0  0  0  0
   16.1372  -10.2551   14.7249 C   0  0  0  0  0  0  0  0  0  0  0  0
   15.3644   -9.4177   15.5347 C   0  0  0  0  0  0  0  0  0  0  0  0
   14.8696   -7.9554   17.7930 S   0  0  0  0  0  0  0  0  0  0  0  0
   13.6405   -8.7015   18.2293 O   0  0  0  0  0  0  0  0  0  0  0  0
   14.4475   -6.7392   17.0152 O   0  0  0  0  0  0  0  0  0  0  0  0
   14.9491   -7.7223   20.3602 C   0  0  0  0  0  0  0  0  0  0  0  0
   15.7702   -7.4656   19.1890 N   0  0  0  0  0  0  0  0  0  0  0  0
   16.6363   -8.0010   19.2484 H   0  0  0  0  0  0  0  0  0  0  0  0
 31 32  1  0  0  0
 32 28  1  0  0  0
 28 29  2  0  0  0
 28 30  2  0  0  0
 28 22  1  0  0  0
 22 23  2  0  0  0
 23 24  1  0  0  0
 24 25  2  0  0  0
 25 26  1  0  0  0
 25 21  1  0  0  0
 26 27  2  0  0  0
 27 22  1  0  0  0
 21  1  1  0  0  0
  1  2  1  0  0  0
  2  3  2  0  0  0
  2  5  1  0  0  0
  5  6  2  0  0  0
  6  7  1  0  0  0
  7  8  2  0  0  0
  8  9  1  0  0  0
  9 10  2  0  0  0
 10 11  1  0  0  0
 10  5  1  0  0  0
 11 12  2  0  0  0
 12 13  1  0  0  0
 13 14  1  0  0  0
 13  9  1  0  0  0
 14 15  2  0  0  0
 15 16  1  0  0  0
 16 17  2  0  0  0
 17 18  1  0  0  0
 17 20  1  0  0  0
 18 19  2  0  0  0
 19 14  1  0  0  0
 32 33  1  0  0  0
  1  4  1  0  0  0
M  END
>  <minimizedAffinity>
-5.25111

>  <minimizedRMSD>
1.73514

$$$$
CHEMBL3246547 PubChem-90672634


 33 35  0  0  0  0  0  0  0  0999 V2000
   16.1199  -10.4316   10.3914 C   0  0  0  0  0  0  0  0  0  0  0  0
   17.1627  -10.8911   11.2172 O   0  0  0  0  0  0  0  0  0  0  0  0
   17.0299  -10.2366   12.4537 C   0  0  0  0  0  0  0  0  0  0  0  0
   15.6014   -9.7690   12.6103 C   0  0  0  0  0  0  0  0  0  0  0  0
   15.5760   -8.5083   13.2066 O   0  0  0  0  0  0  0  0  0  0  0  0
   15.1012   -9.6652   11.2072 C   0  0  0  0  0  0  0  0  0  0  0  0
   13.8570  -10.2856   11.1055 O   0  0  0  0  0  0  0  0  0  0  0  0
   16.1002   -7.8887   12.6754 H   0  0  0  0  0  0  0  0  0  0  0  0
   13.9312  -11.2085   11.3947 H   0  0  0  0  0  0  0  0  0  0  0  0
   19.0829   -6.8770    6.4875 N   0  0  0  0  0  0  0  0  0  0  0  0
   18.9924   -7.5658    7.7289 C   0  0  0  0  0  0  0  0  0  0  0  0
   19.9941   -7.4785    8.6541 N   0  0  0  0  0  0  0  0  0  0  0  0
   19.9092   -8.1299    9.8613 C   0  0  0  0  0  0  0  0  0  0  0  0
   18.8092   -8.8840   10.1703 N   0  0  0  0  0  0  0  0  0  0  0  0
   17.8255   -8.9630    9.2430 C   0  0  0  0  0  0  0  0  0  0  0  0
   17.8863   -8.3345    8.0533 C   0  0  0  0  0  0  0  0  0  0  0  0
   16.7568   -8.5874    7.3665 N   0  0  0  0  0  0  0  0  0  0  0  0
   16.0250   -9.3712    8.1631 N   0  0  0  0  0  0  0  0  0  0  0  0
   16.6534   -9.6082    9.3112 N   0  0  0  0  0  0  0  0  0  0  0  0
   19.8799   -6.3372    6.2810 H   0  0  0  0  0  0  0  0  0  0  0  0
   18.3485   -6.9401    5.8349 H   0  0  0  0  0  0  0  0  0  0  0  0
   17.4070  -11.1939   13.5735 C   0  0  0  0  0  0  0  0  0  0  0  0
   19.2110  -11.4401   13.6459 S   0  0  0  0  0  0  0  0  0  0  0  0
   19.4187  -10.3989   15.1212 C   0  0  0  0  0  0  0  0  0  0  0  0
   18.3249  -10.6982   16.1382 C   0  0  0  0  0  0  0  0  0  0  0  0
   17.8274   -9.4325   16.8334 C   0  0  0  0  0  0  0  0  0  0  0  0
   18.8320   -8.3819   16.7605 N   0  0  0  0  0  0  0  0  0  0  0  0
   19.0036   -8.1427   15.7839 H   0  0  0  0  0  0  0  0  0  0  0  0
   19.6983   -8.7096   17.1876 H   0  0  0  0  0  0  0  0  0  0  0  0
   16.5151   -8.9699   16.2724 C   0  0  0  0  0  0  0  0  0  0  0  0
   15.6111   -9.8101   16.0236 O   0  0  0  0  0  0  0  0  0  0  0  0
   16.2853   -7.6220   16.0203 O   0  0  0  0  0  0  0  0  0  0  0  0
   16.9533   -6.9907   16.2029 H   0  0  0  0  0  0  0  0  0  0  0  0
 10 11  1  0  0  0
 11 12  2  0  0  0
 12 13  1  0  0  0
 13 14  2  0  0  0
 14 15  1  0  0  0
 15 16  2  0  0  0
 16 17  1  0  0  0
 16 11  1  0  0  0
 17 18  2  0  0  0
 18 19  1  0  0  0
 19 15  1  0  0  0
  1 19  1  0  0  0
  1  2  1  0  0  0
  2  3  1  0  0  0
  3 22  1  0  0  0
  3  4  1  0  0  0
 22 23  1  0  0  0
 23 24  1  0  0  0
 24 25  1  0  0  0
 26 25  1  0  0  0
 26 27  1  0  0  0
 26 30  1  0  0  0
 30 31  2  0  0  0
 30 32  1  0  0  0
  4  5  1  0  0  0
  4  6  1  0  0  0
  6  7  1  0  0  0
  6  1  1  0  0  0
 10 20  1  0  0  0
 10 21  1  0  0  0
 27 28  1  0  0  0
 27 29  1  0  0  0
 32 33  1  0  0  0
  5  8  1  0  0  0
  7  9  1  0  0  0
M  END
>  <minimizedAffinity>
-5.56965

>  <minimizedRMSD>
1.73538

$$$$
CHEMBL4471370 PubChem-155535246


 35 39  0  0  0  0  0  0  0  0999 V2000
   17.1077  -10.2717   14.0264 C   0  0  0  0  0  0  0  0  0  0  0  0
   16.3274   -9.4002   14.8012 C   0  0  0  0  0  0  0  0  0  0  0  0
   16.5750   -9.2333   16.1703 C   0  0  0  0  0  0  0  0  0  0  0  0
   17.6190   -9.9502   16.7678 C   0  0  0  0  0  0  0  0  0  0  0  0
   18.4028  -10.8201   16.0073 C   0  0  0  0  0  0  0  0  0  0  0  0
   18.1526  -10.9837   14.6421 C   0  0  0  0  0  0  0  0  0  0  0  0
   19.0107  -11.9200   13.8617 C   0  0  0  0  0  0  0  0  0  0  0  0
   16.4648   -9.4394   11.6814 C   0  0  0  0  0  0  0  0  0  0  0  0
   16.2749   -8.2485   12.0507 O   0  0  0  0  0  0  0  0  0  0  0  0
   16.8609  -10.4473   12.6221 N   0  0  0  0  0  0  0  0  0  0  0  0
   16.9761  -11.3582   12.2668 H   0  0  0  0  0  0  0  0  0  0  0  0
   14.9341  -10.4312    9.8656 C   0  0  0  0  0  0  0  0  0  0  0  0
   16.2709   -9.8227   10.2453 C   0  0  0  0  0  0  0  0  0  0  0  0
   16.1680  -11.3121    9.9930 C   0  0  0  0  0  0  0  0  0  0  0  0
   16.9598   -9.0392    9.1689 C   0  0  0  0  0  0  0  0  0  0  0  0
   16.3213   -8.7771    7.9895 N   0  0  0  0  0  0  0  0  0  0  0  0
   16.9433   -8.0959    6.9769 C   0  0  0  0  0  0  0  0  0  0  0  0
   18.2324   -7.6673    7.1203 N   0  0  0  0  0  0  0  0  0  0  0  0
   18.8747   -7.9336    8.2832 C   0  0  0  0  0  0  0  0  0  0  0  0
   18.2779   -8.6055    9.2996 C   0  0  0  0  0  0  0  0  0  0  0  0
   19.1915   -8.7275   10.3214 C   0  0  0  0  0  0  0  0  0  0  0  0
   20.3315   -8.0860    9.8272 C   0  0  0  0  0  0  0  0  0  0  0  0
   20.1378   -7.5988    8.5753 N   0  0  0  0  0  0  0  0  0  0  0  0
   20.7797   -7.1105    8.0107 H   0  0  0  0  0  0  0  0  0  0  0  0
   15.7472   -8.3146   16.9714 C   0  0  0  0  0  0  0  0  0  0  0  0
   15.0277   -7.4557   16.3924 O   0  0  0  0  0  0  0  0  0  0  0  0
   15.7669   -8.4055   18.4044 N   0  0  0  0  0  0  0  0  0  0  0  0
   16.3492   -9.0974   18.7936 H   0  0  0  0  0  0  0  0  0  0  0  0
   15.0281   -7.5952   19.3287 C   0  0  0  0  0  0  0  0  0  0  0  0
   13.7532   -7.0932   19.0240 C   0  0  0  0  0  0  0  0  0  0  0  0
   13.0631   -6.3064   19.9507 C   0  0  0  0  0  0  0  0  0  0  0  0
   13.6429   -6.0157   21.1884 C   0  0  0  0  0  0  0  0  0  0  0  0
   14.9119   -6.5121   21.4985 C   0  0  0  0  0  0  0  0  0  0  0  0
   15.6009   -7.2991   20.5706 C   0  0  0  0  0  0  0  0  0  0  0  0
   15.4745   -6.2309   22.6980 F   0  0  0  0  0  0  0  0  0  0  0  0
 12 13  1  0  0  0
 13 14  1  0  0  0
 13 15  1  0  0  0
 15 16  2  0  0  0
 16 17  1  0  0  0
 17 18  2  0  0  0
 18 19  1  0  0  0
 19 20  2  0  0  0
 20 21  1  0  0  0
 21 22  2  0  0  0
 22 23  1  0  0  0
 13  8  1  0  0  0
  8  9  2  0  0  0
  8 10  1  0  0  0
 10  1  1  0  0  0
  1  2  2  0  0  0
  2  3  1  0  0  0
  3  4  2  0  0  0
  4  5  1  0  0  0
  5  6  2  0  0  0
  6  7  1  0  0  0
  3 25  1  0  0  0
 25 26  2  0  0  0
 25 27  1  0  0  0
 27 29  1  0  0  0
 29 30  2  0  0  0
 30 31  1  0  0  0
 31 32  2  0  0  0
 32 33  1  0  0  0
 33 34  2  0  0  0
 33 35  1  0  0  0
 14 12  1  0  0  0
 20 15  1  0  0  0
  6  1  1  0  0  0
 34 29  1  0  0  0
 23 19  1  0  0  0
 23 24  1  0  0  0
 10 11  1  0  0  0
 27 28  1  0  0  0
M  END
>  <minimizedAffinity>
-7.17980

>  <minimizedRMSD>
1.73642

$$$$
CHEMBL1376192


 29 32  0  0  0  0  0  0  0  0999 V2000
   16.9641   -9.8524   13.5207 C   0  0  0  0  0  0  0  0  0  0  0  0
   17.5645   -9.8627   12.3563 O   0  0  0  0  0  0  0  0  0  0  0  0
   16.5927   -9.7700   11.4807 C   0  0  0  0  0  0  0  0  0  0  0  0
   15.3915   -9.7031   12.0862 N   0  0  0  0  0  0  0  0  0  0  0  0
   15.6286   -9.7559   13.3877 N   0  0  0  0  0  0  0  0  0  0  0  0
   16.7830   -9.7420   10.0267 C   0  0  0  0  0  0  0  0  0  0  0  0
   16.0809  -10.4989    9.1505 N   0  0  0  0  0  0  0  0  0  0  0  0
   16.4984  -10.2318    7.9154 N   0  0  0  0  0  0  0  0  0  0  0  0
   17.4662   -9.3039    8.0127 C   0  0  0  0  0  0  0  0  0  0  0  0
   17.6749   -8.9697    9.3203 C   0  0  0  0  0  0  0  0  0  0  0  0
   18.6256   -8.0274    9.7065 C   0  0  0  0  0  0  0  0  0  0  0  0
   19.3788   -7.4193    8.6847 C   0  0  0  0  0  0  0  0  0  0  0  0
   19.1645   -7.7638    7.3304 C   0  0  0  0  0  0  0  0  0  0  0  0
   18.1939   -8.7213    6.9785 C   0  0  0  0  0  0  0  0  0  0  0  0
   15.3754  -11.1430    9.3888 H   0  0  0  0  0  0  0  0  0  0  0  0
   17.8089   -9.9555   15.0912 S   0  0  0  0  0  0  0  0  0  0  0  0
   16.3116   -9.4886   16.0079 C   0  0  0  0  0  0  0  0  0  0  0  0
   16.6809   -8.8148   17.2820 C   0  0  0  0  0  0  0  0  0  0  0  0
   17.8966   -8.7190   17.5961 O   0  0  0  0  0  0  0  0  0  0  0  0
   15.6510   -8.2727   18.1198 N   0  0  0  0  0  0  0  0  0  0  0  0
   14.7253   -8.3671   17.7982 H   0  0  0  0  0  0  0  0  0  0  0  0
   15.8296   -7.6075   19.3775 C   0  0  0  0  0  0  0  0  0  0  0  0
   14.6979   -7.2833   20.1341 C   0  0  0  0  0  0  0  0  0  0  0  0
   14.8315   -6.6362   21.3665 C   0  0  0  0  0  0  0  0  0  0  0  0
   16.1015   -6.3094   21.8499 C   0  0  0  0  0  0  0  0  0  0  0  0
   17.2371   -6.6298   21.1014 C   0  0  0  0  0  0  0  0  0  0  0  0
   17.1018   -7.2768   19.8696 C   0  0  0  0  0  0  0  0  0  0  0  0
   13.6643   -6.3077   22.1348 C   0  0  0  0  0  0  0  0  0  0  0  0
   12.7234   -6.0430   22.7543 N   0  0  0  0  0  0  0  0  0  0  0  0
 16  1  1  0  0  0
  1  2  1  0  0  0
  2  3  1  0  0  0
  3  4  2  0  0  0
  4  5  1  0  0  0
  3  6  1  0  0  0
  6  7  1  0  0  0
  7  8  1  0  0  0
  8  9  2  0  0  0
  9 10  1  0  0  0
 10 11  1  0  0  0
 11 12  2  0  0  0
 12 13  1  0  0  0
 13 14  2  0  0  0
 16 17  1  0  0  0
 17 18  1  0  0  0
 18 19  2  0  0  0
 18 20  1  0  0  0
 20 22  1  0  0  0
 22 23  2  0  0  0
 23 24  1  0  0  0
 24 25  2  0  0  0
 25 26  1  0  0  0
 26 27  2  0  0  0
 24 28  1  0  0  0
 28 29  3  0  0  0
  5  1  2  0  0  0
 10  6  2  0  0  0
 27 22  1  0  0  0
 14  9  1  0  0  0
  7 15  1  0  0  0
 20 21  1  0  0  0
M  END
>  <minimizedAffinity>
-6.47201

>  <minimizedRMSD>
1.73738

$$$$
CHEMBL1196390 CHEMBL556788 PubChem-10812407 PubChem-45263972


 33 36  0  0  0  0  0  0  0  0999 V2000
   18.0825  -11.5255   16.3331 C   0  0  0  0  0  0  0  0  0  0  0  0
   17.3708  -11.3776   14.9954 C   0  0  0  0  0  0  0  0  0  0  0  0
   17.3270   -9.5972   11.7161 N   0  0  0  0  0  0  0  0  0  0  0  0
   18.5150  -10.1567   12.3629 C   0  0  0  0  0  0  0  0  0  0  0  0
   18.5985   -9.7222   13.8306 C   0  0  0  0  0  0  0  0  0  0  0  0
   17.3584   -9.9814   14.5826 N   0  0  0  0  0  0  0  0  0  0  0  0
   16.1165   -9.7595   13.8200 C   0  0  0  0  0  0  0  0  0  0  0  0
   16.3237   -8.9395   12.5483 C   0  0  0  0  0  0  0  0  0  0  0  0
   17.1422   -9.6306   10.2863 C   0  0  0  0  0  0  0  0  0  0  0  0
   16.1763  -10.4179    9.7284 N   0  0  0  0  0  0  0  0  0  0  0  0
   16.2761  -10.1916    8.0802 S   0  0  0  0  0  0  0  0  0  0  0  0
   17.5305   -9.1072    8.0364 C   0  0  0  0  0  0  0  0  0  0  0  0
   17.9157   -8.8873    9.3503 C   0  0  0  0  0  0  0  0  0  0  0  0
   18.9746   -8.0103    9.6120 C   0  0  0  0  0  0  0  0  0  0  0  0
   19.6160   -7.3728    8.5359 C   0  0  0  0  0  0  0  0  0  0  0  0
   19.2015   -7.6133    7.2119 C   0  0  0  0  0  0  0  0  0  0  0  0
   18.1425   -8.4944    6.9481 C   0  0  0  0  0  0  0  0  0  0  0  0
   17.2801  -10.8852   17.4547 C   0  0  0  0  0  0  0  0  0  0  0  0
   16.9994   -9.4248   17.1400 C   0  0  0  0  0  0  0  0  0  0  0  0
   16.1682   -8.8379   18.1810 N   0  0  0  0  0  0  0  0  0  0  0  0
   15.1324   -7.8868   17.9062 C   0  0  0  0  0  0  0  0  0  0  0  0
   14.9441   -7.4985   16.7214 O   0  0  0  0  0  0  0  0  0  0  0  0
   16.3247   -9.1063   19.1151 H   0  0  0  0  0  0  0  0  0  0  0  0
   14.2991   -7.3660   19.0178 C   0  0  0  0  0  0  0  0  0  0  0  0
   12.9865   -6.8658   18.8296 C   0  0  0  0  0  0  0  0  0  0  0  0
   12.2558   -6.3892   19.9284 C   0  0  0  0  0  0  0  0  0  0  0  0
   10.9992   -5.9082   19.7590 F   0  0  0  0  0  0  0  0  0  0  0  0
   12.8147   -6.4051   21.2073 C   0  0  0  0  0  0  0  0  0  0  0  0
   14.1050   -6.8958   21.4003 C   0  0  0  0  0  0  0  0  0  0  0  0
   14.8394   -7.3719   20.3133 C   0  0  0  0  0  0  0  0  0  0  0  0
   12.3830   -6.8345   17.5377 N   0  0  0  0  0  0  0  0  0  0  0  0
   12.8796   -7.1644   16.7542 H   0  0  0  0  0  0  0  0  0  0  0  0
   11.4699   -6.4828   17.4293 H   0  0  0  0  0  0  0  0  0  0  0  0
  9 10  2  0  0  0
 10 11  1  0  0  0
 11 12  1  0  0  0
 12 13  2  0  0  0
 13 14  1  0  0  0
 14 15  2  0  0  0
 15 16  1  0  0  0
 16 17  2  0  0  0
  9  3  1  0  0  0
  3  4  1  0  0  0
  4  5  1  0  0  0
  5  6  1  0  0  0
  6  7  1  0  0  0
  7  8  1  0  0  0
  6  2  1  0  0  0
  2  1  1  0  0  0
  1 18  1  0  0  0
 18 19  1  0  0  0
 19 20  1  0  0  0
 20 21  1  0  0  0
 21 22  2  0  0  0
 21 24  1  0  0  0
 24 25  2  0  0  0
 25 26  1  0  0  0
 26 27  1  0  0  0
 26 28  2  0  0  0
 28 29  1  0  0  0
 29 30  2  0  0  0
 25 31  1  0  0  0
 13  9  1  0  0  0
  8  3  1  0  0  0
 30 24  1  0  0  0
 17 12  1  0  0  0
 20 23  1  0  0  0
 31 32  1  0  0  0
 31 33  1  0  0  0
M  END
>  <minimizedAffinity>
-8.18792

>  <minimizedRMSD>
1.73938

$$$$
CHEMBL4438001 PubChem-155513138


 35 39  0  0  0  0  0  0  0  0999 V2000
   17.1091  -10.2719   14.0238 C   0  0  0  0  0  0  0  0  0  0  0  0
   16.3279   -9.4007   14.7981 C   0  0  0  0  0  0  0  0  0  0  0  0
   16.5749   -9.2337   16.1674 C   0  0  0  0  0  0  0  0  0  0  0  0
   17.6189   -9.9499   16.7654 C   0  0  0  0  0  0  0  0  0  0  0  0
   18.4036  -10.8194   16.0054 C   0  0  0  0  0  0  0  0  0  0  0  0
   18.1541  -10.9833   14.6400 C   0  0  0  0  0  0  0  0  0  0  0  0
   19.0131  -11.9189   13.8601 C   0  0  0  0  0  0  0  0  0  0  0  0
   16.4656   -9.4402   11.6788 C   0  0  0  0  0  0  0  0  0  0  0  0
   16.2738   -8.2496   12.0481 O   0  0  0  0  0  0  0  0  0  0  0  0
   16.8631  -10.4476   12.6194 N   0  0  0  0  0  0  0  0  0  0  0  0
   16.9799  -11.3582   12.2640 H   0  0  0  0  0  0  0  0  0  0  0  0
   14.9368  -10.4334    9.8620 C   0  0  0  0  0  0  0  0  0  0  0  0
   16.2728   -9.8236   10.2425 C   0  0  0  0  0  0  0  0  0  0  0  0
   16.1715  -11.3130    9.9901 C   0  0  0  0  0  0  0  0  0  0  0  0
   16.9614   -9.0394    9.1664 C   0  0  0  0  0  0  0  0  0  0  0  0
   16.3229   -8.7772    7.9870 N   0  0  0  0  0  0  0  0  0  0  0  0
   16.9447   -8.0954    6.9746 C   0  0  0  0  0  0  0  0  0  0  0  0
   18.2335   -7.6663    7.1184 N   0  0  0  0  0  0  0  0  0  0  0  0
   18.8759   -7.9326    8.2813 C   0  0  0  0  0  0  0  0  0  0  0  0
   18.2793   -8.6051    9.2974 C   0  0  0  0  0  0  0  0  0  0  0  0
   19.1929   -8.7271   10.3192 C   0  0  0  0  0  0  0  0  0  0  0  0
   20.3326   -8.0848    9.8253 C   0  0  0  0  0  0  0  0  0  0  0  0
   20.1389   -7.5972    8.5736 N   0  0  0  0  0  0  0  0  0  0  0  0
   20.7806   -7.1084    8.0092 H   0  0  0  0  0  0  0  0  0  0  0  0
   15.7460   -8.3154   16.9681 C   0  0  0  0  0  0  0  0  0  0  0  0
   15.0282   -7.4553   16.3887 O   0  0  0  0  0  0  0  0  0  0  0  0
   15.7631   -8.4080   18.4010 N   0  0  0  0  0  0  0  0  0  0  0  0
   16.3444   -9.1007   18.7904 H   0  0  0  0  0  0  0  0  0  0  0  0
   15.0232   -7.5983   19.3249 C   0  0  0  0  0  0  0  0  0  0  0  0
   13.7571   -7.0799   19.0115 C   0  0  0  0  0  0  0  0  0  0  0  0
   13.0657   -6.2942   19.9381 C   0  0  0  0  0  0  0  0  0  0  0  0
   13.6351   -6.0213   21.1846 C   0  0  0  0  0  0  0  0  0  0  0  0
   14.8953   -6.5343   21.5032 C   0  0  0  0  0  0  0  0  0  0  0  0
   15.5859   -7.3200   20.5755 C   0  0  0  0  0  0  0  0  0  0  0  0
   15.6098   -6.1932   23.0639 Cl  0  0  0  0  0  0  0  0  0  0  0  0
 12 13  1  0  0  0
 13 14  1  0  0  0
 13 15  1  0  0  0
 15 16  2  0  0  0
 16 17  1  0  0  0
 17 18  2  0  0  0
 18 19  1  0  0  0
 19 20  2  0  0  0
 20 21  1  0  0  0
 21 22  2  0  0  0
 22 23  1  0  0  0
 13  8  1  0  0  0
  8  9  2  0  0  0
  8 10  1  0  0  0
 10  1  1  0  0  0
  1  2  2  0  0  0
  2  3  1  0  0  0
  3  4  2  0  0  0
  4  5  1  0  0  0
  5  6  2  0  0  0
  6  7  1  0  0  0
  3 25  1  0  0  0
 25 26  2  0  0  0
 25 27  1  0  0  0
 27 29  1  0  0  0
 29 30  2  0  0  0
 30 31  1  0  0  0
 31 32  2  0  0  0
 32 33  1  0  0  0
 33 34  2  0  0  0
 33 35  1  0  0  0
 14 12  1  0  0  0
 20 15  1  0  0  0
  6  1  1  0  0  0
 34 29  1  0  0  0
 23 19  1  0  0  0
 23 24  1  0  0  0
 10 11  1  0  0  0
 27 28  1  0  0  0
M  END
>  <minimizedAffinity>
-7.23661

>  <minimizedRMSD>
1.74099

$$$$
CHEMBL5090070


 31 34  0  0  0  0  0  0  0  0999 V2000
   17.7957   -9.8577   15.2135 C   0  0  0  0  0  0  0  0  0  0  0  0
   18.0938   -9.3091   16.7735 S   0  0  0  0  0  0  0  0  0  0  0  0
   16.4744   -8.9330   17.0495 C   0  0  0  0  0  0  0  0  0  0  0  0
   15.7069   -9.2188   15.9763 N   0  0  0  0  0  0  0  0  0  0  0  0
   16.4326   -9.7351   14.9482 C   0  0  0  0  0  0  0  0  0  0  0  0
   15.9270   -8.3794   18.2525 N   0  0  0  0  0  0  0  0  0  0  0  0
   14.7436   -7.5808   18.3622 C   0  0  0  0  0  0  0  0  0  0  0  0
   14.0630   -7.2963   17.3405 O   0  0  0  0  0  0  0  0  0  0  0  0
   14.3483   -7.1118   19.6576 N   0  0  0  0  0  0  0  0  0  0  0  0
   16.4135   -8.5669   19.0876 H   0  0  0  0  0  0  0  0  0  0  0  0
   14.9238   -7.3698   20.4135 H   0  0  0  0  0  0  0  0  0  0  0  0
   13.2031   -6.3063   19.9692 C   0  0  0  0  0  0  0  0  0  0  0  0
   13.3176   -5.3312   20.9664 C   0  0  0  0  0  0  0  0  0  0  0  0
   12.2237   -4.5262   21.2988 C   0  0  0  0  0  0  0  0  0  0  0  0
   11.0058   -4.6928   20.6337 C   0  0  0  0  0  0  0  0  0  0  0  0
   10.8822   -5.6639   19.6368 C   0  0  0  0  0  0  0  0  0  0  0  0
   11.9769   -6.4679   19.3055 C   0  0  0  0  0  0  0  0  0  0  0  0
   18.8546  -10.3914   14.2968 C   0  0  0  0  0  0  0  0  0  0  0  0
   18.3149  -10.8211   12.9364 C   0  0  0  0  0  0  0  0  0  0  0  0
   18.1264   -9.6609   12.0744 N   0  0  0  0  0  0  0  0  0  0  0  0
   18.5045   -8.8090   12.3917 H   0  0  0  0  0  0  0  0  0  0  0  0
   19.5640   -7.5515    8.5241 C   0  0  0  0  0  0  0  0  0  0  0  0
   18.7910   -7.5919    7.3615 C   0  0  0  0  0  0  0  0  0  0  0  0
   17.5906   -8.3058    7.3445 C   0  0  0  0  0  0  0  0  0  0  0  0
   17.1575   -8.9783    8.4911 C   0  0  0  0  0  0  0  0  0  0  0  0
   17.9267   -8.9325    9.6770 C   0  0  0  0  0  0  0  0  0  0  0  0
   19.1352   -8.2203    9.6736 C   0  0  0  0  0  0  0  0  0  0  0  0
   17.4454   -9.6322   10.8086 C   0  0  0  0  0  0  0  0  0  0  0  0
   16.2844  -10.3319   10.7016 N   0  0  0  0  0  0  0  0  0  0  0  0
   15.5661  -10.3611    9.5500 C   0  0  0  0  0  0  0  0  0  0  0  0
   16.0009   -9.6858    8.4573 N   0  0  0  0  0  0  0  0  0  0  0  0
 22 23  2  0  0  0
 23 24  1  0  0  0
 24 25  2  0  0  0
 25 26  1  0  0  0
 26 27  2  0  0  0
 26 28  1  0  0  0
 28 29  2  0  0  0
 29 30  1  0  0  0
 30 31  2  0  0  0
 28 20  1  0  0  0
 20 19  1  0  0  0
 19 18  1  0  0  0
 18  1  1  0  0  0
  1  2  1  0  0  0
  2  3  1  0  0  0
  3  4  2  0  0  0
  4  5  1  0  0  0
  3  6  1  0  0  0
  6  7  1  0  0  0
  7  8  2  0  0  0
  7  9  1  0  0  0
  9 12  1  0  0  0
 12 13  2  0  0  0
 13 14  1  0  0  0
 14 15  2  0  0  0
 15 16  1  0  0  0
 16 17  2  0  0  0
 27 22  1  0  0  0
  5  1  2  0  0  0
 17 12  1  0  0  0
 31 25  1  0  0  0
 20 21  1  0  0  0
  6 10  1  0  0  0
  9 11  1  0  0  0
M  END
>  <minimizedAffinity>
-10.47024

>  <minimizedRMSD>
1.74227

$$$$
CHEMBL399368 PubChem-25093459


 32 35  0  0  0  0  0  0  0  0999 V2000
   17.0108  -10.7468   16.6899 C   0  0  0  0  0  0  0  0  0  0  0  0
   17.6281  -11.9671   16.9884 C   0  0  0  0  0  0  0  0  0  0  0  0
   18.2989  -12.6757   15.9887 C   0  0  0  0  0  0  0  0  0  0  0  0
   18.3589  -12.1636   14.6897 C   0  0  0  0  0  0  0  0  0  0  0  0
   17.7513  -10.9374   14.3813 C   0  0  0  0  0  0  0  0  0  0  0  0
   17.0821  -10.2325   15.3916 C   0  0  0  0  0  0  0  0  0  0  0  0
   17.8138  -10.3958   13.0120 C   0  0  0  0  0  0  0  0  0  0  0  0
   16.8023  -10.5299   12.0500 C   0  0  0  0  0  0  0  0  0  0  0  0
   17.1571   -9.9070   10.8530 C   0  0  0  0  0  0  0  0  0  0  0  0
   16.3886   -9.8605    9.7270 N   0  0  0  0  0  0  0  0  0  0  0  0
   16.8384   -9.2177    8.6019 C   0  0  0  0  0  0  0  0  0  0  0  0
   18.1180   -8.6087    8.6497 C   0  0  0  0  0  0  0  0  0  0  0  0
   18.7353   -7.9334    7.6577 N   0  0  0  0  0  0  0  0  0  0  0  0
   19.9239   -7.5510    8.1904 C   0  0  0  0  0  0  0  0  0  0  0  0
   19.9923   -8.0081    9.4965 C   0  0  0  0  0  0  0  0  0  0  0  0
   21.1333   -7.8000   10.4315 C   0  0  0  0  0  0  0  0  0  0  0  0
   18.8568   -8.6680    9.7713 N   0  0  0  0  0  0  0  0  0  0  0  0
   18.3997   -9.3065   10.8746 C   0  0  0  0  0  0  0  0  0  0  0  0
   19.1228   -9.5144   12.3724 S   0  0  0  0  0  0  0  0  0  0  0  0
   16.0015   -9.1907    7.4387 N   0  0  0  0  0  0  0  0  0  0  0  0
   16.4655   -9.4060    6.0778 C   0  0  0  0  0  0  0  0  0  0  0  0
   15.0422   -9.0134    7.5708 H   0  0  0  0  0  0  0  0  0  0  0  0
   16.3004   -9.9658   17.7522 C   0  0  0  0  0  0  0  0  0  0  0  0
   16.4242   -8.4471   17.5911 C   0  0  0  0  0  0  0  0  0  0  0  0
   15.9885   -7.7477   18.7899 N   0  0  0  0  0  0  0  0  0  0  0  0
   14.9977   -7.9305   18.9490 H   0  0  0  0  0  0  0  0  0  0  0  0
   16.1345   -6.7453   18.6707 H   0  0  0  0  0  0  0  0  0  0  0  0
   15.7950   -7.3011   13.9431 C   0  0  0  0  0  0  0  0  0  0  0  0
   16.4355   -7.7641   15.1624 N   0  0  0  0  0  0  0  0  0  0  0  0
   15.7085   -7.9397   16.3781 C   0  0  0  0  0  0  0  0  0  0  0  0
   14.4695   -7.7049   16.4205 O   0  0  0  0  0  0  0  0  0  0  0  0
   17.3997   -7.9625   15.1496 H   0  0  0  0  0  0  0  0  0  0  0  0
 28 29  1  0  0  0
 29 30  1  0  0  0
 30 31  2  0  0  0
 24 30  1  0  0  0
 24 25  1  0  0  0
 24 23  1  0  0  0
 23  1  1  0  0  0
  1  2  2  0  0  0
  2  3  1  0  0  0
  3  4  2  0  0  0
  4  5  1  0  0  0
  5  7  1  0  0  0
  5  6  2  0  0  0
  7  8  2  0  0  0
  8  9  1  0  0  0
  9 10  1  0  0  0
 10 11  2  0  0  0
 11 20  1  0  0  0
 11 12  1  0  0  0
 20 21  1  0  0  0
 12 13  2  0  0  0
 13 14  1  0  0  0
 14 15  2  0  0  0
 15 16  1  0  0  0
 15 17  1  0  0  0
 17 18  1  0  0  0
 17 12  1  0  0  0
 18 19  1  0  0  0
 18  9  2  0  0  0
 19  7  1  0  0  0
  6  1  1  0  0  0
 29 32  1  0  0  0
 25 26  1  0  0  0
 25 27  1  0  0  0
 20 22  1  0  0  0
M  END
>  <minimizedAffinity>
3.28245

>  <minimizedRMSD>
1.74239

$$$$
CHEMBL1886072


 29 31  0  0  0  0  0  0  0  0999 V2000
   17.3719  -10.6082   13.2140 N   0  0  0  0  0  0  0  0  0  0  0  0
   18.0633   -9.8960   12.1813 C   0  0  0  0  0  0  0  0  0  0  0  0
   19.2348   -9.4806   12.3932 O   0  0  0  0  0  0  0  0  0  0  0  0
   16.4779  -10.9706   13.0172 H   0  0  0  0  0  0  0  0  0  0  0  0
   17.3928   -9.6624   10.8749 C   0  0  0  0  0  0  0  0  0  0  0  0
   17.9894   -8.9630    9.7948 C   0  0  0  0  0  0  0  0  0  0  0  0
   17.2535   -8.7991    8.5937 C   0  0  0  0  0  0  0  0  0  0  0  0
   15.9983   -9.3054    8.4857 N   0  0  0  0  0  0  0  0  0  0  0  0
   15.4105   -9.9765    9.5083 C   0  0  0  0  0  0  0  0  0  0  0  0
   14.1253  -10.4787    9.3590 O   0  0  0  0  0  0  0  0  0  0  0  0
   16.0942  -10.1629   10.7085 C   0  0  0  0  0  0  0  0  0  0  0  0
   17.8144   -8.1142    7.5116 C   0  0  0  0  0  0  0  0  0  0  0  0
   19.1034   -7.5861    7.6063 C   0  0  0  0  0  0  0  0  0  0  0  0
   19.8374   -7.7405    8.7838 C   0  0  0  0  0  0  0  0  0  0  0  0
   19.2841   -8.4236    9.8695 C   0  0  0  0  0  0  0  0  0  0  0  0
   13.6644  -10.3542    8.5528 H   0  0  0  0  0  0  0  0  0  0  0  0
   17.9314  -10.8208   14.5422 C   0  0  0  0  0  0  0  0  0  0  0  0
   15.7455   -8.5802   17.4780 C   0  0  0  0  0  0  0  0  0  0  0  0
   15.6696   -8.2259   16.1262 C   0  0  0  0  0  0  0  0  0  0  0  0
   16.3780   -8.9577   15.1687 C   0  0  0  0  0  0  0  0  0  0  0  0
   17.1612  -10.0495   15.5598 C   0  0  0  0  0  0  0  0  0  0  0  0
   17.2365  -10.4050   16.9106 C   0  0  0  0  0  0  0  0  0  0  0  0
   16.5281   -9.6728   17.8678 C   0  0  0  0  0  0  0  0  0  0  0  0
   14.8477   -7.6687   18.6781 S   0  0  0  0  0  0  0  0  0  0  0  0
   13.9083   -8.5844   19.4113 O   0  0  0  0  0  0  0  0  0  0  0  0
   14.0473   -6.5916   18.0015 O   0  0  0  0  0  0  0  0  0  0  0  0
   15.9473   -6.9517   19.8002 N   0  0  0  0  0  0  0  0  0  0  0  0
   15.4243   -6.4220   20.4975 H   0  0  0  0  0  0  0  0  0  0  0  0
   16.5809   -6.3260   19.3028 H   0  0  0  0  0  0  0  0  0  0  0  0
 24 25  2  0  0  0
 24 26  2  0  0  0
 24 27  1  0  0  0
 24 18  1  0  0  0
 18 19  2  0  0  0
 19 20  1  0  0  0
 20 21  2  0  0  0
 21 17  1  0  0  0
 17  1  1  0  0  0
  1  2  1  0  0  0
  2  3  2  0  0  0
  2  5  1  0  0  0
  5  6  2  0  0  0
  6  7  1  0  0  0
  7  8  2  0  0  0
  8  9  1  0  0  0
  9 10  1  0  0  0
  9 11  2  0  0  0
  7 12  1  0  0  0
 12 13  2  0  0  0
 13 14  1  0  0  0
 14 15  2  0  0  0
 21 22  1  0  0  0
 22 23  2  0  0  0
 23 18  1  0  0  0
 11  5  1  0  0  0
 15  6  1  0  0  0
 27 28  1  0  0  0
 27 29  1  0  0  0
  1  4  1  0  0  0
 10 16  1  0  0  0
M  END
>  <minimizedAffinity>
-6.32084

>  <minimizedRMSD>
1.74434

$$$$
CHEMBL411284 PubChem-24823093


 32 36  0  0  0  0  0  0  0  0999 V2000
   18.3601  -10.4367   14.3081 C   0  0  0  0  0  0  0  0  0  0  0  0
   18.5641  -10.3755   15.6845 C   0  0  0  0  0  0  0  0  0  0  0  0
   17.7026   -9.6270   16.4865 C   0  0  0  0  0  0  0  0  0  0  0  0
   16.6191   -8.9232   15.9367 C   0  0  0  0  0  0  0  0  0  0  0  0
   16.4104   -8.9853   14.5322 C   0  0  0  0  0  0  0  0  0  0  0  0
   17.2944   -9.7500   13.7278 C   0  0  0  0  0  0  0  0  0  0  0  0
   17.1076   -9.8216   12.3458 C   0  0  0  0  0  0  0  0  0  0  0  0
   16.0508   -9.1321   11.7331 C   0  0  0  0  0  0  0  0  0  0  0  0
   15.1706   -8.3881   12.5211 C   0  0  0  0  0  0  0  0  0  0  0  0
   15.3494   -8.3133   13.9043 C   0  0  0  0  0  0  0  0  0  0  0  0
   15.7543   -8.1513   16.8689 C   0  0  0  0  0  0  0  0  0  0  0  0
   14.7475   -7.5187   16.4487 O   0  0  0  0  0  0  0  0  0  0  0  0
   16.0679   -8.1229   18.2650 N   0  0  0  0  0  0  0  0  0  0  0  0
   16.8535   -8.6217   18.5863 H   0  0  0  0  0  0  0  0  0  0  0  0
   15.2657   -7.3824   19.2245 C   0  0  0  0  0  0  0  0  0  0  0  0
   15.1004   -8.2129   20.4797 C   0  0  0  0  0  0  0  0  0  0  0  0
   16.1042   -7.0805   20.4493 C   0  0  0  0  0  0  0  0  0  0  0  0
   15.8373   -9.1902   10.3494 O   0  0  0  0  0  0  0  0  0  0  0  0
   16.7300   -9.7590    9.4299 C   0  0  0  0  0  0  0  0  0  0  0  0
   16.7889  -11.1136    9.3320 N   0  0  0  0  0  0  0  0  0  0  0  0
   17.6321  -11.7272    8.4609 C   0  0  0  0  0  0  0  0  0  0  0  0
   18.4357  -10.9894    7.6523 N   0  0  0  0  0  0  0  0  0  0  0  0
   18.4050   -9.6331    7.6915 C   0  0  0  0  0  0  0  0  0  0  0  0
   17.5368   -8.9745    8.5839 C   0  0  0  0  0  0  0  0  0  0  0  0
   17.4798   -7.5762    8.5810 C   0  0  0  0  0  0  0  0  0  0  0  0
   18.2994   -6.8265    7.7227 C   0  0  0  0  0  0  0  0  0  0  0  0
   19.1768   -7.4867    6.8480 C   0  0  0  0  0  0  0  0  0  0  0  0
   19.2206   -8.8908    6.8357 C   0  0  0  0  0  0  0  0  0  0  0  0
   19.9918   -6.7296    5.9992 O   0  0  0  0  0  0  0  0  0  0  0  0
   21.0236   -7.3043    5.2088 C   0  0  0  0  0  0  0  0  0  0  0  0
   18.2595   -5.4280    7.7253 O   0  0  0  0  0  0  0  0  0  0  0  0
   18.0321   -4.6678    8.9046 C   0  0  0  0  0  0  0  0  0  0  0  0
  1  2  2  0  0  0
  2  3  1  0  0  0
  3  4  2  0  0  0
  4  5  1  0  0  0
  5  6  2  0  0  0
  6  7  1  0  0  0
  7  8  2  0  0  0
  8  9  1  0  0  0
  9 10  2  0  0  0
  8 18  1  0  0  0
 18 19  1  0  0  0
 19 20  2  0  0  0
 20 21  1  0  0  0
 21 22  2  0  0  0
 22 23  1  0  0  0
 23 24  2  0  0  0
 24 25  1  0  0  0
 25 26  2  0  0  0
 26 27  1  0  0  0
 27 28  2  0  0  0
 27 29  1  0  0  0
 29 30  1  0  0  0
 26 31  1  0  0  0
 31 32  1  0  0  0
  4 11  1  0  0  0
 11 12  2  0  0  0
 11 13  1  0  0  0
 13 15  1  0  0  0
 15 16  1  0  0  0
 16 17  1  0  0  0
  6  1  1  0  0  0
 24 19  1  0  0  0
 17 15  1  0  0  0
 10  5  1  0  0  0
 28 23  1  0  0  0
 13 14  1  0  0  0
M  END
>  <minimizedAffinity>
2.89279

>  <minimizedRMSD>
1.74580

$$$$
CHEMBL4059978 PubChem-137636773


 34 38  0  0  0  0  0  0  0  0999 V2000
   17.3567  -10.2967   12.6196 N   0  0  0  0  0  0  0  0  0  0  0  0
   17.7290  -11.4928   13.0598 N   0  0  0  0  0  0  0  0  0  0  0  0
   18.1073  -11.3593   14.3511 C   0  0  0  0  0  0  0  0  0  0  0  0
   17.9621  -10.0426   14.7412 C   0  0  0  0  0  0  0  0  0  0  0  0
   17.4810   -9.4129   13.6298 C   0  0  0  0  0  0  0  0  0  0  0  0
   16.9824   -8.0776   13.6635 N   0  0  0  0  0  0  0  0  0  0  0  0
   17.1671   -7.3215   14.8679 C   0  0  0  0  0  0  0  0  0  0  0  0
   16.6680   -6.1711   14.9655 O   0  0  0  0  0  0  0  0  0  0  0  0
   18.0193   -7.8672   15.9954 C   0  0  0  0  0  0  0  0  0  0  0  0
   17.9932   -9.4094   16.1024 C   0  0  0  0  0  0  0  0  0  0  0  0
   18.5170  -12.4958   15.2198 C   0  0  0  0  0  0  0  0  0  0  0  0
   16.5255   -7.6867   12.8839 H   0  0  0  0  0  0  0  0  0  0  0  0
   17.8302   -8.6282    8.2547 N   0  0  0  0  0  0  0  0  0  0  0  0
   18.9150   -8.4249    9.0509 C   0  0  0  0  0  0  0  0  0  0  0  0
   18.7656   -8.8999   10.3177 N   0  0  0  0  0  0  0  0  0  0  0  0
   17.5252   -9.4074   10.3040 C   0  0  0  0  0  0  0  0  0  0  0  0
   16.9801   -9.2520    9.0789 C   0  0  0  0  0  0  0  0  0  0  0  0
   15.7535   -9.7303    8.7623 N   0  0  0  0  0  0  0  0  0  0  0  0
   15.0531  -10.3947    9.7293 C   0  0  0  0  0  0  0  0  0  0  0  0
   15.5868  -10.5672   10.9804 N   0  0  0  0  0  0  0  0  0  0  0  0
   16.8201  -10.0747   11.3071 C   0  0  0  0  0  0  0  0  0  0  0  0
   19.4103   -8.8765   11.0613 H   0  0  0  0  0  0  0  0  0  0  0  0
   16.8310   -9.8617   16.9297 C   0  0  0  0  0  0  0  0  0  0  0  0
   16.5694  -11.0906   17.0450 O   0  0  0  0  0  0  0  0  0  0  0  0
   16.0287   -8.8847   17.5952 N   0  0  0  0  0  0  0  0  0  0  0  0
   16.2845   -7.9368   17.5235 H   0  0  0  0  0  0  0  0  0  0  0  0
   14.8483   -9.2310   18.3755 C   0  0  0  0  0  0  0  0  0  0  0  0
   14.1961   -7.9994   18.9063 C   0  0  0  0  0  0  0  0  0  0  0  0
   14.4437   -7.5837   20.2198 C   0  0  0  0  0  0  0  0  0  0  0  0
   13.8436   -6.4200   20.7106 C   0  0  0  0  0  0  0  0  0  0  0  0
   12.9975   -5.6695   19.8883 C   0  0  0  0  0  0  0  0  0  0  0  0
   12.7520   -6.0818   18.5751 C   0  0  0  0  0  0  0  0  0  0  0  0
   13.3517   -7.2455   18.0840 C   0  0  0  0  0  0  0  0  0  0  0  0
   12.4165   -4.5422   20.3638 F   0  0  0  0  0  0  0  0  0  0  0  0
 13 14  2  0  0  0
 14 15  1  0  0  0
 15 16  1  0  0  0
 16 17  2  0  0  0
 17 18  1  0  0  0
 18 19  2  0  0  0
 19 20  1  0  0  0
 20 21  2  0  0  0
 21  1  1  0  0  0
  1  2  1  0  0  0
  2  3  2  0  0  0
  3  4  1  0  0  0
  4  5  2  0  0  0
  5  6  1  0  0  0
  6  7  1  0  0  0
  7  8  2  0  0  0
  7  9  1  0  0  0
  9 10  1  0  0  0
 10 23  1  0  0  0
 23 24  2  0  0  0
 23 25  1  0  0  0
 25 27  1  0  0  0
 27 28  1  0  0  0
 28 29  2  0  0  0
 29 30  1  0  0  0
 30 31  2  0  0  0
 31 32  1  0  0  0
 32 33  2  0  0  0
 31 34  1  0  0  0
  3 11  1  0  0  0
 17 13  1  0  0  0
  5  1  1  0  0  0
 33 28  1  0  0  0
 21 16  1  0  0  0
 10  4  1  0  0  0
 15 22  1  0  0  0
  6 12  1  0  0  0
 25 26  1  0  0  0
M  END
>  <minimizedAffinity>
-2.36528

>  <minimizedRMSD>
1.74656

$$$$
CHEMBL272251 PubChem-24823253


 31 34  0  0  0  0  0  0  0  0999 V2000
   18.2844  -11.6462   16.0487 C   0  0  0  0  0  0  0  0  0  0  0  0
   17.8490  -11.5715   17.3697 C   0  0  0  0  0  0  0  0  0  0  0  0
   17.0207  -10.5248   17.7749 C   0  0  0  0  0  0  0  0  0  0  0  0
   16.6077   -9.5296   16.8747 C   0  0  0  0  0  0  0  0  0  0  0  0
   17.0522   -9.6052   15.5268 C   0  0  0  0  0  0  0  0  0  0  0  0
   17.8938  -10.6750   15.1276 C   0  0  0  0  0  0  0  0  0  0  0  0
   18.3409  -10.7662   13.8074 C   0  0  0  0  0  0  0  0  0  0  0  0
   17.9626   -9.8087   12.8552 C   0  0  0  0  0  0  0  0  0  0  0  0
   17.1406   -8.7494   13.2478 C   0  0  0  0  0  0  0  0  0  0  0  0
   16.6888   -8.6491   14.5656 C   0  0  0  0  0  0  0  0  0  0  0  0
   15.7249   -8.4516   17.3960 C   0  0  0  0  0  0  0  0  0  0  0  0
   15.0445   -7.7337   16.6139 O   0  0  0  0  0  0  0  0  0  0  0  0
   15.6411   -8.2263   18.8083 N   0  0  0  0  0  0  0  0  0  0  0  0
   16.1581   -8.8093   19.4098 H   0  0  0  0  0  0  0  0  0  0  0  0
   14.8245   -7.1725   19.3920 C   0  0  0  0  0  0  0  0  0  0  0  0
   15.1681   -7.0010   20.8596 C   0  0  0  0  0  0  0  0  0  0  0  0
   14.4787   -7.9498   21.6128 O   0  0  0  0  0  0  0  0  0  0  0  0
   14.8701   -7.7036   22.9279 C   0  0  0  0  0  0  0  0  0  0  0  0
   18.4021   -9.8508   11.5221 O   0  0  0  0  0  0  0  0  0  0  0  0
   17.6175   -9.6984   10.3636 C   0  0  0  0  0  0  0  0  0  0  0  0
   16.3411  -10.2691   10.2470 C   0  0  0  0  0  0  0  0  0  0  0  0
   15.5905  -10.0763    9.0861 C   0  0  0  0  0  0  0  0  0  0  0  0
   16.0892   -9.3310    8.0651 N   0  0  0  0  0  0  0  0  0  0  0  0
   17.3174   -8.7552    8.1409 C   0  0  0  0  0  0  0  0  0  0  0  0
   18.1097   -8.9257    9.2991 C   0  0  0  0  0  0  0  0  0  0  0  0
   19.3729   -8.3239    9.3641 C   0  0  0  0  0  0  0  0  0  0  0  0
   19.8450   -7.5617    8.2919 C   0  0  0  0  0  0  0  0  0  0  0  0
   19.0643   -7.3909    7.1438 C   0  0  0  0  0  0  0  0  0  0  0  0
   17.7969   -7.9920    7.0734 C   0  0  0  0  0  0  0  0  0  0  0  0
   19.5696   -6.6223    6.0916 O   0  0  0  0  0  0  0  0  0  0  0  0
   20.5368   -7.1165    5.1752 C   0  0  0  0  0  0  0  0  0  0  0  0
  1  2  2  0  0  0
  2  3  1  0  0  0
  3  4  2  0  0  0
  4  5  1  0  0  0
  5  6  2  0  0  0
  6  7  1  0  0  0
  7  8  2  0  0  0
  8  9  1  0  0  0
  9 10  2  0  0  0
  8 19  1  0  0  0
 19 20  1  0  0  0
 20 21  2  0  0  0
 21 22  1  0  0  0
 22 23  2  0  0  0
 23 24  1  0  0  0
 24 25  2  0  0  0
 25 26  1  0  0  0
 26 27  2  0  0  0
 27 28  1  0  0  0
 28 29  2  0  0  0
 28 30  1  0  0  0
 30 31  1  0  0  0
  4 11  1  0  0  0
 11 12  2  0  0  0
 11 13  1  0  0  0
 13 15  1  0  0  0
 15 16  1  0  0  0
 16 17  1  0  0  0
 17 18  1  0  0  0
  6  1  1  0  0  0
 25 20  1  0  0  0
 10  5  1  0  0  0
 29 24  1  0  0  0
 13 14  1  0  0  0
M  END
>  <minimizedAffinity>
-8.35538

>  <minimizedRMSD>
1.74778

$$$$
CHEMBL3315203 PubChem-118708038


 33 36  0  0  0  0  0  0  0  0999 V2000
   16.7714   -9.5085   12.4657 C   0  0  0  0  0  0  0  0  0  0  0  0
   16.2950   -8.3619   13.1509 C   0  0  0  0  0  0  0  0  0  0  0  0
   16.3060   -8.2940   14.5545 C   0  0  0  0  0  0  0  0  0  0  0  0
   16.7970   -9.3989   15.2472 C   0  0  0  0  0  0  0  0  0  0  0  0
   17.2471  -10.5141   14.6026 C   0  0  0  0  0  0  0  0  0  0  0  0
   17.2467  -10.6097   13.2142 C   0  0  0  0  0  0  0  0  0  0  0  0
   17.6491  -11.4339   15.5517 C   0  0  0  0  0  0  0  0  0  0  0  0
   17.4110  -10.8006   16.7760 C   0  0  0  0  0  0  0  0  0  0  0  0
   16.9003   -9.5643   16.5730 N   0  0  0  0  0  0  0  0  0  0  0  0
   16.7314   -9.5901   10.9800 C   0  0  0  0  0  0  0  0  0  0  0  0
   15.6672  -10.2834   10.3813 C   0  0  0  0  0  0  0  0  0  0  0  0
   15.5637  -10.3821    9.0302 N   0  0  0  0  0  0  0  0  0  0  0  0
   16.4804   -9.8221    8.2013 C   0  0  0  0  0  0  0  0  0  0  0  0
   17.5672   -9.1289    8.7280 C   0  0  0  0  0  0  0  0  0  0  0  0
   17.7076   -9.0079   10.1320 C   0  0  0  0  0  0  0  0  0  0  0  0
   18.8326   -8.3349   10.6369 C   0  0  0  0  0  0  0  0  0  0  0  0
   19.7811   -7.7797    9.7738 C   0  0  0  0  0  0  0  0  0  0  0  0
   19.6220   -7.8947    8.3913 C   0  0  0  0  0  0  0  0  0  0  0  0
   18.5174   -8.5704    7.8686 C   0  0  0  0  0  0  0  0  0  0  0  0
   16.4866   -8.6326   17.6122 C   0  0  0  0  0  0  0  0  0  0  0  0
   15.1912   -7.9963   17.2434 C   0  0  0  0  0  0  0  0  0  0  0  0
   14.9777   -7.6650   16.0468 O   0  0  0  0  0  0  0  0  0  0  0  0
   14.1882   -7.8049   18.2427 N   0  0  0  0  0  0  0  0  0  0  0  0
   14.3766   -8.0998   19.1628 H   0  0  0  0  0  0  0  0  0  0  0  0
   12.8956   -7.1901   17.9558 C   0  0  0  0  0  0  0  0  0  0  0  0
   11.7638   -8.1285   18.2481 C   0  0  0  0  0  0  0  0  0  0  0  0
   11.7702   -8.8479   19.2825 O   0  0  0  0  0  0  0  0  0  0  0  0
   10.6867   -8.1954   17.3742 O   0  0  0  0  0  0  0  0  0  0  0  0
   10.6753   -7.6633   16.6030 H   0  0  0  0  0  0  0  0  0  0  0  0
   12.7368   -5.8534   18.6877 C   0  0  0  0  0  0  0  0  0  0  0  0
   11.7265   -5.9145   19.8275 C   0  0  0  0  0  0  0  0  0  0  0  0
   12.4627   -5.8575   21.1489 C   0  0  0  0  0  0  0  0  0  0  0  0
   10.7703   -4.7407   19.7438 C   0  0  0  0  0  0  0  0  0  0  0  0
  1  2  2  0  0  0
  2  3  1  0  0  0
  3  4  2  0  0  0
  4  5  1  0  0  0
  5  6  2  0  0  0
  5  7  1  0  0  0
  7  8  2  0  0  0
  8  9  1  0  0  0
  9 20  1  0  0  0
 20 21  1  0  0  0
 21 22  2  0  0  0
 21 23  1  0  0  0
 23 25  1  0  0  0
 25 26  1  0  0  0
 26 27  2  0  0  0
 26 28  1  0  0  0
 25 30  1  0  0  0
 30 31  1  0  0  0
 31 32  1  0  0  0
 31 33  1  0  0  0
  1 10  1  0  0  0
 10 11  2  0  0  0
 11 12  1  0  0  0
 12 13  2  0  0  0
 13 14  1  0  0  0
 14 15  2  0  0  0
 15 16  1  0  0  0
 16 17  2  0  0  0
 17 18  1  0  0  0
 18 19  2  0  0  0
  6  1  1  0  0  0
 15 10  1  0  0  0
  9  4  1  0  0  0
 19 14  1  0  0  0
 23 24  1  0  0  0
 28 29  1  0  0  0
M  END
>  <minimizedAffinity>
-9.20111

>  <minimizedRMSD>
1.74820

$$$$
CHEMBL3933796 PubChem-89743513


 35 39  0  0  0  0  0  0  0  0999 V2000
   17.2501  -10.8467   15.2426 C   0  0  0  0  0  0  0  0  0  0  0  0
   16.2958  -10.0382   14.6025 C   0  0  0  0  0  0  0  0  0  0  0  0
   15.4962   -9.1542   15.3284 C   0  0  0  0  0  0  0  0  0  0  0  0
   15.6341   -9.0555   16.7171 C   0  0  0  0  0  0  0  0  0  0  0  0
   16.5876   -9.8483   17.3660 C   0  0  0  0  0  0  0  0  0  0  0  0
   17.3903  -10.7370   16.6449 C   0  0  0  0  0  0  0  0  0  0  0  0
   18.3217  -11.4536   17.3213 F   0  0  0  0  0  0  0  0  0  0  0  0
   14.7951   -8.1203   17.4863 C   0  0  0  0  0  0  0  0  0  0  0  0
   14.8254   -6.8859   17.2270 O   0  0  0  0  0  0  0  0  0  0  0  0
   13.9421   -8.6125   18.5254 N   0  0  0  0  0  0  0  0  0  0  0  0
   13.8980   -9.5843   18.6767 H   0  0  0  0  0  0  0  0  0  0  0  0
   13.1364   -7.7398   19.3687 C   0  0  0  0  0  0  0  0  0  0  0  0
   14.0023   -7.0096   20.3387 C   0  0  0  0  0  0  0  0  0  0  0  0
   13.4841   -5.9300   21.0627 C   0  0  0  0  0  0  0  0  0  0  0  0
   14.2970   -5.2372   21.9651 C   0  0  0  0  0  0  0  0  0  0  0  0
   15.6295   -5.6220   22.1435 C   0  0  0  0  0  0  0  0  0  0  0  0
   16.1497   -6.6993   21.4189 C   0  0  0  0  0  0  0  0  0  0  0  0
   15.3371   -7.3924   20.5165 C   0  0  0  0  0  0  0  0  0  0  0  0
   18.1576  -13.1662   14.8131 C   0  0  0  0  0  0  0  0  0  0  0  0
   18.0682  -11.7563   14.4651 N   0  0  0  0  0  0  0  0  0  0  0  0
   18.8386  -11.3391   13.2912 C   0  0  0  0  0  0  0  0  0  0  0  0
   19.4554   -9.9582   13.4810 C   0  0  0  0  0  0  0  0  0  0  0  0
   19.1963   -9.1973   12.1937 C   0  0  0  0  0  0  0  0  0  0  0  0
   18.2796  -10.0123   11.4168 N   0  0  0  0  0  0  0  0  0  0  0  0
   17.9836  -11.2877   12.0382 C   0  0  0  0  0  0  0  0  0  0  0  0
   17.7080   -9.6254   10.1545 C   0  0  0  0  0  0  0  0  0  0  0  0
   16.5034  -10.1428    9.7644 N   0  0  0  0  0  0  0  0  0  0  0  0
   15.9237   -9.8009    8.5722 C   0  0  0  0  0  0  0  0  0  0  0  0
   16.5400   -8.9209    7.7308 N   0  0  0  0  0  0  0  0  0  0  0  0
   17.7327   -8.3990    8.1038 C   0  0  0  0  0  0  0  0  0  0  0  0
   18.4575   -7.5251    7.3932 N   0  0  0  0  0  0  0  0  0  0  0  0
   19.5519   -7.2954    8.1602 C   0  0  0  0  0  0  0  0  0  0  0  0
   19.5139   -8.0243    9.3516 C   0  0  0  0  0  0  0  0  0  0  0  0
   18.3294   -8.7239    9.2814 C   0  0  0  0  0  0  0  0  0  0  0  0
   18.2441   -7.1376    6.5137 H   0  0  0  0  0  0  0  0  0  0  0  0
 19 20  1  0  0  0
 21 20  1  0  0  0
 21 22  1  0  0  0
 22 23  1  0  0  0
 23 24  1  0  0  0
 24 25  1  0  0  0
 24 26  1  0  0  0
 26 27  2  0  0  0
 27 28  1  0  0  0
 28 29  2  0  0  0
 29 30  1  0  0  0
 30 31  1  0  0  0
 31 32  1  0  0  0
 32 33  2  0  0  0
 33 34  1  0  0  0
 20  1  1  0  0  0
  1  2  2  0  0  0
  2  3  1  0  0  0
  3  4  2  0  0  0
  4  5  1  0  0  0
  5  6  2  0  0  0
  6  7  1  0  0  0
  4  8  1  0  0  0
  8  9  2  0  0  0
  8 10  1  0  0  0
 10 12  1  0  0  0
 12 13  1  0  0  0
 13 14  2  0  0  0
 14 15  1  0  0  0
 15 16  2  0  0  0
 16 17  1  0  0  0
 17 18  2  0  0  0
 25 21  1  0  0  0
 34 26  1  0  0  0
  6  1  1  0  0  0
 18 13  1  0  0  0
 34 30  2  0  0  0
 31 35  1  0  0  0
 10 11  1  0  0  0
M  END
>  <minimizedAffinity>
-3.34604

>  <minimizedRMSD>
1.74996

$$$$
CHEMBL4588013 PubChem-155567369


 35 39  0  0  0  0  0  0  0  0999 V2000
   17.1099  -10.2718   14.0239 C   0  0  0  0  0  0  0  0  0  0  0  0
   16.3283   -9.4012   14.7986 C   0  0  0  0  0  0  0  0  0  0  0  0
   16.5754   -9.2343   16.1679 C   0  0  0  0  0  0  0  0  0  0  0  0
   17.6201   -9.9499   16.7655 C   0  0  0  0  0  0  0  0  0  0  0  0
   18.4053  -10.8187   16.0052 C   0  0  0  0  0  0  0  0  0  0  0  0
   18.1556  -10.9825   14.6398 C   0  0  0  0  0  0  0  0  0  0  0  0
   19.0151  -11.9174   13.8595 C   0  0  0  0  0  0  0  0  0  0  0  0
   16.4657   -9.4401   11.6791 C   0  0  0  0  0  0  0  0  0  0  0  0
   16.2738   -8.2495   12.0487 O   0  0  0  0  0  0  0  0  0  0  0  0
   16.8637  -10.4474   12.6196 N   0  0  0  0  0  0  0  0  0  0  0  0
   16.9808  -11.3579   12.2640 H   0  0  0  0  0  0  0  0  0  0  0  0
   14.9362  -10.4327    9.8629 C   0  0  0  0  0  0  0  0  0  0  0  0
   16.2725   -9.8233   10.2429 C   0  0  0  0  0  0  0  0  0  0  0  0
   16.1705  -11.3127    9.9906 C   0  0  0  0  0  0  0  0  0  0  0  0
   16.9610   -9.0394    9.1667 C   0  0  0  0  0  0  0  0  0  0  0  0
   16.3224   -8.7773    7.9872 N   0  0  0  0  0  0  0  0  0  0  0  0
   16.9443   -8.0957    6.9748 C   0  0  0  0  0  0  0  0  0  0  0  0
   18.2330   -7.6666    7.1184 N   0  0  0  0  0  0  0  0  0  0  0  0
   18.8755   -7.9328    8.2813 C   0  0  0  0  0  0  0  0  0  0  0  0
   18.2789   -8.6052    9.2975 C   0  0  0  0  0  0  0  0  0  0  0  0
   19.1925   -8.7270   10.3193 C   0  0  0  0  0  0  0  0  0  0  0  0
   20.3324   -8.0849    9.8253 C   0  0  0  0  0  0  0  0  0  0  0  0
   20.1384   -7.5975    8.5735 N   0  0  0  0  0  0  0  0  0  0  0  0
   20.7801   -7.1087    8.0090 H   0  0  0  0  0  0  0  0  0  0  0  0
   15.7461   -8.3168   16.9689 C   0  0  0  0  0  0  0  0  0  0  0  0
   15.0267   -7.4578   16.3899 O   0  0  0  0  0  0  0  0  0  0  0  0
   15.7646   -8.4087   18.4019 N   0  0  0  0  0  0  0  0  0  0  0  0
   16.3472   -9.1003   18.7911 H   0  0  0  0  0  0  0  0  0  0  0  0
   15.0242   -7.5997   19.3260 C   0  0  0  0  0  0  0  0  0  0  0  0
   13.7616   -7.0746   19.0093 C   0  0  0  0  0  0  0  0  0  0  0  0
   13.0696   -6.2898   19.9362 C   0  0  0  0  0  0  0  0  0  0  0  0
   13.6351   -6.0247   21.1863 C   0  0  0  0  0  0  0  0  0  0  0  0
   14.8916   -6.5441   21.5085 C   0  0  0  0  0  0  0  0  0  0  0  0
   15.5827   -7.3290   20.5803 C   0  0  0  0  0  0  0  0  0  0  0  0
   12.9655   -5.2644   22.0853 F   0  0  0  0  0  0  0  0  0  0  0  0
 12 13  1  0  0  0
 13 14  1  0  0  0
 13 15  1  0  0  0
 15 16  2  0  0  0
 16 17  1  0  0  0
 17 18  2  0  0  0
 18 19  1  0  0  0
 19 20  2  0  0  0
 20 21  1  0  0  0
 21 22  2  0  0  0
 22 23  1  0  0  0
 13  8  1  0  0  0
  8  9  2  0  0  0
  8 10  1  0  0  0
 10  1  1  0  0  0
  1  2  2  0  0  0
  2  3  1  0  0  0
  3  4  2  0  0  0
  4  5  1  0  0  0
  5  6  2  0  0  0
  6  7  1  0  0  0
  3 25  1  0  0  0
 25 26  2  0  0  0
 25 27  1  0  0  0
 27 29  1  0  0  0
 29 30  2  0  0  0
 30 31  1  0  0  0
 31 32  2  0  0  0
 32 33  1  0  0  0
 33 34  2  0  0  0
 32 35  1  0  0  0
 14 12  1  0  0  0
 20 15  1  0  0  0
  6  1  1  0  0  0
 34 29  1  0  0  0
 23 19  1  0  0  0
 23 24  1  0  0  0
 10 11  1  0  0  0
 27 28  1  0  0  0
M  END
>  <minimizedAffinity>
-7.21975

>  <minimizedRMSD>
1.75289

$$$$
CHEMBL356743 PubChem-10694821


 34 38  0  0  0  0  0  0  0  0999 V2000
   17.2323  -11.3167   16.6640 C   0  0  0  0  0  0  0  0  0  0  0  0
   17.4030  -11.2501   15.1522 C   0  0  0  0  0  0  0  0  0  0  0  0
   17.3272   -9.5703   11.8439 N   0  0  0  0  0  0  0  0  0  0  0  0
   16.4426   -8.7907   12.7046 C   0  0  0  0  0  0  0  0  0  0  0  0
   16.2391   -9.5415   14.0188 C   0  0  0  0  0  0  0  0  0  0  0  0
   17.4986   -9.8649   14.7126 N   0  0  0  0  0  0  0  0  0  0  0  0
   18.7107   -9.7281   13.8848 C   0  0  0  0  0  0  0  0  0  0  0  0
   18.5076  -10.1980   12.4394 C   0  0  0  0  0  0  0  0  0  0  0  0
   17.1128   -9.6834   10.4227 C   0  0  0  0  0  0  0  0  0  0  0  0
   16.1475  -10.5129    9.9289 N   0  0  0  0  0  0  0  0  0  0  0  0
   16.2028  -10.3658    8.2696 S   0  0  0  0  0  0  0  0  0  0  0  0
   17.4324   -9.2598    8.1416 C   0  0  0  0  0  0  0  0  0  0  0  0
   17.8440   -8.9678    9.4330 C   0  0  0  0  0  0  0  0  0  0  0  0
   18.8733   -8.0396    9.6269 C   0  0  0  0  0  0  0  0  0  0  0  0
   19.4664   -7.4332    8.5062 C   0  0  0  0  0  0  0  0  0  0  0  0
   19.0302   -7.7517    7.2058 C   0  0  0  0  0  0  0  0  0  0  0  0
   17.9956   -8.6785    7.0105 C   0  0  0  0  0  0  0  0  0  0  0  0
   17.5516   -9.9776   17.3178 C   0  0  0  0  0  0  0  0  0  0  0  0
   16.4588   -8.9543   17.0481 C   0  0  0  0  0  0  0  0  0  0  0  0
   15.9080   -8.4685   18.3039 N   0  0  0  0  0  0  0  0  0  0  0  0
   14.7365   -7.6485   18.3515 C   0  0  0  0  0  0  0  0  0  0  0  0
   14.1611   -7.3258   17.2767 O   0  0  0  0  0  0  0  0  0  0  0  0
   16.3551   -8.7114   19.1467 H   0  0  0  0  0  0  0  0  0  0  0  0
   14.2116   -7.1917   19.6618 C   0  0  0  0  0  0  0  0  0  0  0  0
   13.1284   -6.2877   19.7855 C   0  0  0  0  0  0  0  0  0  0  0  0
   12.4613   -5.7630   18.6292 N   0  0  0  0  0  0  0  0  0  0  0  0
   11.4629   -4.7062   18.7428 C   0  0  0  0  0  0  0  0  0  0  0  0
   10.6192   -4.9316   19.9902 C   0  0  0  0  0  0  0  0  0  0  0  0
   11.5166   -4.9604   21.2278 C   0  0  0  0  0  0  0  0  0  0  0  0
   12.6711   -5.9102   21.0668 C   0  0  0  0  0  0  0  0  0  0  0  0
   13.3028   -6.4039   22.2090 C   0  0  0  0  0  0  0  0  0  0  0  0
   14.3759   -7.2855   22.0911 C   0  0  0  0  0  0  0  0  0  0  0  0
   14.8227   -7.6766   20.8284 C   0  0  0  0  0  0  0  0  0  0  0  0
   12.6822   -6.1238   17.7403 H   0  0  0  0  0  0  0  0  0  0  0  0
  9 10  2  0  0  0
 10 11  1  0  0  0
 11 12  1  0  0  0
 12 13  2  0  0  0
 13 14  1  0  0  0
 14 15  2  0  0  0
 15 16  1  0  0  0
 16 17  2  0  0  0
  9  3  1  0  0  0
  3  4  1  0  0  0
  4  5  1  0  0  0
  5  6  1  0  0  0
  6  7  1  0  0  0
  7  8  1  0  0  0
  6  2  1  0  0  0
  2  1  1  0  0  0
  1 18  1  0  0  0
 18 19  1  0  0  0
 19 20  1  0  0  0
 20 21  1  0  0  0
 21 22  2  0  0  0
 21 24  1  0  0  0
 24 25  2  0  0  0
 25 26  1  0  0  0
 26 27  1  0  0  0
 27 28  1  0  0  0
 28 29  1  0  0  0
 29 30  1  0  0  0
 30 31  2  0  0  0
 31 32  1  0  0  0
 32 33  2  0  0  0
 13  9  1  0  0  0
  8  3  1  0  0  0
 33 24  1  0  0  0
 17 12  1  0  0  0
 30 25  1  0  0  0
 20 23  1  0  0  0
 26 34  1  0  0  0
M  END
>  <minimizedAffinity>
-9.63780

>  <minimizedRMSD>
1.75369

$$$$
CHEMBL3582388 PubChem-122179523


 31 34  0  0  0  0  0  0  0  0999 V2000
   17.0346   -9.7078   16.4707 C   0  0  0  0  0  0  0  0  0  0  0  0
   17.4760  -10.9710   16.8772 C   0  0  0  0  0  0  0  0  0  0  0  0
   17.9459  -11.8988   15.9479 C   0  0  0  0  0  0  0  0  0  0  0  0
   17.9812  -11.5747   14.5922 C   0  0  0  0  0  0  0  0  0  0  0  0
   18.4417  -12.4901   13.7028 F   0  0  0  0  0  0  0  0  0  0  0  0
   17.5436  -10.3142   14.1620 C   0  0  0  0  0  0  0  0  0  0  0  0
   17.0691   -9.3769   15.0963 C   0  0  0  0  0  0  0  0  0  0  0  0
   16.6513   -8.1666   14.6499 F   0  0  0  0  0  0  0  0  0  0  0  0
   16.5667   -8.8144   17.4922 N   0  0  0  0  0  0  0  0  0  0  0  0
   17.2295   -8.5352   18.1645 H   0  0  0  0  0  0  0  0  0  0  0  0
   13.9579   -9.2224   17.3071 O   0  0  0  0  0  0  0  0  0  0  0  0
   14.9664   -8.1707   17.6769 S   0  0  0  0  0  0  0  0  0  0  0  0
   14.7967   -6.9554   16.8092 O   0  0  0  0  0  0  0  0  0  0  0  0
   14.7253   -7.7110   19.3519 C   0  0  0  0  0  0  0  0  0  0  0  0
   13.4566   -7.7924   19.9312 C   0  0  0  0  0  0  0  0  0  0  0  0
   13.2744   -7.4158   21.2629 C   0  0  0  0  0  0  0  0  0  0  0  0
   14.3707   -6.9587   21.9980 C   0  0  0  0  0  0  0  0  0  0  0  0
   15.5984   -6.8830   21.4167 N   0  0  0  0  0  0  0  0  0  0  0  0
   15.7959   -7.2453   20.1204 C   0  0  0  0  0  0  0  0  0  0  0  0
   17.5805   -9.9819   12.7601 C   0  0  0  0  0  0  0  0  0  0  0  0
   17.6103   -9.7045   11.5871 C   0  0  0  0  0  0  0  0  0  0  0  0
   17.6448   -9.3750   10.1911 C   0  0  0  0  0  0  0  0  0  0  0  0
   16.6759   -9.9097    9.3132 C   0  0  0  0  0  0  0  0  0  0  0  0
   16.7008   -9.6012    7.9817 N   0  0  0  0  0  0  0  0  0  0  0  0
   17.6704   -8.7739    7.5168 C   0  0  0  0  0  0  0  0  0  0  0  0
   17.8242   -8.3830    6.2454 N   0  0  0  0  0  0  0  0  0  0  0  0
   18.9138   -7.5738    6.2748 C   0  0  0  0  0  0  0  0  0  0  0  0
   19.4454   -7.4557    7.5635 C   0  0  0  0  0  0  0  0  0  0  0  0
   18.6199   -8.2402    8.3317 C   0  0  0  0  0  0  0  0  0  0  0  0
   18.6433   -8.5191    9.6937 C   0  0  0  0  0  0  0  0  0  0  0  0
   17.2729   -8.6267    5.4670 H   0  0  0  0  0  0  0  0  0  0  0  0
 11 12  2  0  0  0
 12 13  2  0  0  0
 12  9  1  0  0  0
  9  1  1  0  0  0
  1  2  2  0  0  0
  2  3  1  0  0  0
  3  4  2  0  0  0
  4  5  1  0  0  0
  4  6  1  0  0  0
  6 20  1  0  0  0
 20 21  3  0  0  0
 21 22  1  0  0  0
 22 23  2  0  0  0
 23 24  1  0  0  0
 24 25  2  0  0  0
 25 26  1  0  0  0
 26 27  1  0  0  0
 27 28  2  0  0  0
 28 29  1  0  0  0
 29 30  2  0  0  0
  6  7  2  0  0  0
  7  8  1  0  0  0
 12 14  1  0  0  0
 14 15  2  0  0  0
 15 16  1  0  0  0
 16 17  2  0  0  0
 17 18  1  0  0  0
 18 19  2  0  0  0
  7  1  1  0  0  0
 19 14  1  0  0  0
 30 22  1  0  0  0
 29 25  1  0  0  0
  9 10  1  0  0  0
 26 31  1  0  0  0
M  END
>  <minimizedAffinity>
-9.66071

>  <minimizedRMSD>
1.75673

$$$$
CHEMBL3582392 PubChem-122179527


 34 37  0  0  0  0  0  0  0  0999 V2000
   16.7046   -9.6173   14.9574 C   0  0  0  0  0  0  0  0  0  0  0  0
   17.2222  -10.6854   15.7035 C   0  0  0  0  0  0  0  0  0  0  0  0
   17.7633  -11.7655   15.0856 F   0  0  0  0  0  0  0  0  0  0  0  0
   17.1845  -10.6447   17.0967 C   0  0  0  0  0  0  0  0  0  0  0  0
   16.6323   -9.5429   17.7498 C   0  0  0  0  0  0  0  0  0  0  0  0
   16.1102   -8.4664   17.0259 C   0  0  0  0  0  0  0  0  0  0  0  0
   16.1476   -8.5052   15.6128 C   0  0  0  0  0  0  0  0  0  0  0  0
   15.6550   -7.4875   14.8644 F   0  0  0  0  0  0  0  0  0  0  0  0
   16.7782   -9.6983   12.3128 C   0  0  0  0  0  0  0  0  0  0  0  0
   16.7448   -9.6619   13.5174 C   0  0  0  0  0  0  0  0  0  0  0  0
   18.5500   -8.5679    7.7839 C   0  0  0  0  0  0  0  0  0  0  0  0
   18.0679   -8.9971    6.5933 N   0  0  0  0  0  0  0  0  0  0  0  0
   17.0209   -9.7902    6.8111 N   0  0  0  0  0  0  0  0  0  0  0  0
   16.8500   -9.8549    8.1422 C   0  0  0  0  0  0  0  0  0  0  0  0
   15.8935  -10.5557    8.7996 N   0  0  0  0  0  0  0  0  0  0  0  0
   15.8666  -10.5072   10.1664 C   0  0  0  0  0  0  0  0  0  0  0  0
   16.8184   -9.7408   10.8791 C   0  0  0  0  0  0  0  0  0  0  0  0
   17.8044   -9.0192   10.1817 C   0  0  0  0  0  0  0  0  0  0  0  0
   17.7823   -9.1069    8.7940 C   0  0  0  0  0  0  0  0  0  0  0  0
   16.4759  -10.2427    6.1273 H   0  0  0  0  0  0  0  0  0  0  0  0
   19.6509   -7.7153    7.9028 O   0  0  0  0  0  0  0  0  0  0  0  0
   18.1647   -5.8376    8.0098 C   0  0  0  0  0  0  0  0  0  0  0  0
   19.5369   -6.3752    8.3575 C   0  0  0  0  0  0  0  0  0  0  0  0
   15.5606   -7.3735   17.7771 N   0  0  0  0  0  0  0  0  0  0  0  0
   16.0426   -6.5171   17.7175 H   0  0  0  0  0  0  0  0  0  0  0  0
   14.1437   -7.3900   18.7780 S   0  0  0  0  0  0  0  0  0  0  0  0
   13.3828   -8.6660   18.5490 O   0  0  0  0  0  0  0  0  0  0  0  0
   13.2797   -6.2011   18.4637 O   0  0  0  0  0  0  0  0  0  0  0  0
   14.6297   -7.3100   20.4610 C   0  0  0  0  0  0  0  0  0  0  0  0
   13.7376   -7.6794   21.4707 C   0  0  0  0  0  0  0  0  0  0  0  0
   14.1309   -7.6053   22.8079 C   0  0  0  0  0  0  0  0  0  0  0  0
   15.4179   -7.1582   23.1161 C   0  0  0  0  0  0  0  0  0  0  0  0
   16.2727   -6.8000   22.1201 N   0  0  0  0  0  0  0  0  0  0  0  0
   15.9077   -6.8652   20.8112 C   0  0  0  0  0  0  0  0  0  0  0  0
 22 23  1  0  0  0
 23 21  1  0  0  0
 21 11  1  0  0  0
 11 12  2  0  0  0
 12 13  1  0  0  0
 13 14  1  0  0  0
 14 15  2  0  0  0
 15 16  1  0  0  0
 16 17  2  0  0  0
 17  9  1  0  0  0
  9 10  3  0  0  0
 10  1  1  0  0  0
  1  2  2  0  0  0
  2  3  1  0  0  0
  2  4  1  0  0  0
  4  5  2  0  0  0
  5  6  1  0  0  0
  6 24  1  0  0  0
 24 26  1  0  0  0
 26 27  2  0  0  0
 26 28  2  0  0  0
 26 29  1  0  0  0
 29 30  2  0  0  0
 30 31  1  0  0  0
 31 32  2  0  0  0
 32 33  1  0  0  0
 33 34  2  0  0  0
  6  7  2  0  0  0
  7  8  1  0  0  0
 17 18  1  0  0  0
 18 19  2  0  0  0
 19 11  1  0  0  0
 19 14  1  0  0  0
  7  1  1  0  0  0
 34 29  1  0  0  0
 13 20  1  0  0  0
 24 25  1  0  0  0
M  END
>  <minimizedAffinity>
-4.08146

>  <minimizedRMSD>
1.75727

$$$$
CHEMBL4545914 PubChem-155553405


 35 39  0  0  0  0  0  0  0  0999 V2000
   17.1114  -10.2723   14.0219 C   0  0  0  0  0  0  0  0  0  0  0  0
   16.3294   -9.4023   14.7969 C   0  0  0  0  0  0  0  0  0  0  0  0
   16.5768   -9.2356   16.1662 C   0  0  0  0  0  0  0  0  0  0  0  0
   17.6218   -9.9509   16.7635 C   0  0  0  0  0  0  0  0  0  0  0  0
   18.4072  -10.8192   16.0028 C   0  0  0  0  0  0  0  0  0  0  0  0
   18.1573  -10.9827   14.6375 C   0  0  0  0  0  0  0  0  0  0  0  0
   19.0171  -11.9173   13.8569 C   0  0  0  0  0  0  0  0  0  0  0  0
   16.4661   -9.4404   11.6775 C   0  0  0  0  0  0  0  0  0  0  0  0
   16.2735   -8.2500   12.0474 O   0  0  0  0  0  0  0  0  0  0  0  0
   16.8650  -10.4477   12.6176 N   0  0  0  0  0  0  0  0  0  0  0  0
   16.9828  -11.3580   12.2618 H   0  0  0  0  0  0  0  0  0  0  0  0
   16.1709  -11.3128    9.9886 C   0  0  0  0  0  0  0  0  0  0  0  0
   16.2729   -9.8234   10.2412 C   0  0  0  0  0  0  0  0  0  0  0  0
   14.9366  -10.4325    9.8609 C   0  0  0  0  0  0  0  0  0  0  0  0
   16.9615   -9.0392    9.1651 C   0  0  0  0  0  0  0  0  0  0  0  0
   16.3230   -8.7771    7.9856 N   0  0  0  0  0  0  0  0  0  0  0  0
   16.9447   -8.0952    6.9733 C   0  0  0  0  0  0  0  0  0  0  0  0
   18.2335   -7.6659    7.1170 N   0  0  0  0  0  0  0  0  0  0  0  0
   18.8759   -7.9322    8.2800 C   0  0  0  0  0  0  0  0  0  0  0  0
   18.2794   -8.6048    9.2961 C   0  0  0  0  0  0  0  0  0  0  0  0
   19.1929   -8.7266   10.3180 C   0  0  0  0  0  0  0  0  0  0  0  0
   20.3326   -8.0841    9.8240 C   0  0  0  0  0  0  0  0  0  0  0  0
   20.1387   -7.5967    8.5723 N   0  0  0  0  0  0  0  0  0  0  0  0
   20.7803   -7.1079    8.0079 H   0  0  0  0  0  0  0  0  0  0  0  0
   15.7472   -8.3186   16.9675 C   0  0  0  0  0  0  0  0  0  0  0  0
   15.0278   -7.4593   16.3888 O   0  0  0  0  0  0  0  0  0  0  0  0
   15.7653   -8.4113   18.4004 N   0  0  0  0  0  0  0  0  0  0  0  0
   16.3477   -9.1031   18.7894 H   0  0  0  0  0  0  0  0  0  0  0  0
   15.0247   -7.6028   19.3249 C   0  0  0  0  0  0  0  0  0  0  0  0
   13.7620   -7.0779   19.0083 C   0  0  0  0  0  0  0  0  0  0  0  0
   13.0698   -6.2936   19.9354 C   0  0  0  0  0  0  0  0  0  0  0  0
   13.6352   -6.0287   21.1854 C   0  0  0  0  0  0  0  0  0  0  0  0
   14.8919   -6.5480   21.5076 C   0  0  0  0  0  0  0  0  0  0  0  0
   15.5831   -7.3323   20.5791 C   0  0  0  0  0  0  0  0  0  0  0  0
   12.7698   -5.0470   22.3472 Cl  0  0  0  0  0  0  0  0  0  0  0  0
 12 13  1  0  0  0
 13 14  1  0  0  0
 13 15  1  0  0  0
 15 16  2  0  0  0
 16 17  1  0  0  0
 17 18  2  0  0  0
 18 19  1  0  0  0
 19 20  2  0  0  0
 20 21  1  0  0  0
 21 22  2  0  0  0
 22 23  1  0  0  0
 13  8  1  0  0  0
  8  9  2  0  0  0
  8 10  1  0  0  0
 10  1  1  0  0  0
  1  2  2  0  0  0
  2  3  1  0  0  0
  3  4  2  0  0  0
  4  5  1  0  0  0
  5  6  2  0  0  0
  6  7  1  0  0  0
  3 25  1  0  0  0
 25 26  2  0  0  0
 25 27  1  0  0  0
 27 29  1  0  0  0
 29 30  2  0  0  0
 30 31  1  0  0  0
 31 32  2  0  0  0
 32 33  1  0  0  0
 33 34  2  0  0  0
 32 35  1  0  0  0
 14 12  1  0  0  0
 20 15  1  0  0  0
  6  1  1  0  0  0
 34 29  1  0  0  0
 23 19  1  0  0  0
 23 24  1  0  0  0
 10 11  1  0  0  0
 27 28  1  0  0  0
M  END
>  <minimizedAffinity>
-7.24067

>  <minimizedRMSD>
1.75857

$$$$
CHEMBL242299


 36 39  0  0  0  0  0  0  0  0999 V2000
   19.0461   -9.8023   14.5863 C   0  0  0  0  0  0  0  0  0  0  0  0
   19.0766   -9.6995   16.0971 C   0  0  0  0  0  0  0  0  0  0  0  0
   18.2601  -10.3409   16.9488 C   0  0  0  0  0  0  0  0  0  0  0  0
   17.1354  -11.2255   16.5004 C   0  0  0  0  0  0  0  0  0  0  0  0
   15.8203  -10.4633   16.2745 C   0  0  0  0  0  0  0  0  0  0  0  0
   15.9996   -9.1144   15.7288 N   0  0  0  0  0  0  0  0  0  0  0  0
   16.7149   -8.8673   14.5035 C   0  0  0  0  0  0  0  0  0  0  0  0
   16.6264   -7.7448   13.9337 O   0  0  0  0  0  0  0  0  0  0  0  0
   17.6526   -9.9071   13.9592 C   0  0  0  0  0  0  0  0  0  0  0  0
   17.7569   -9.8218   12.5084 N   0  0  0  0  0  0  0  0  0  0  0  0
   16.6211   -9.9026   11.6414 C   0  0  0  0  0  0  0  0  0  0  0  0
   15.4789  -10.1074   12.1362 O   0  0  0  0  0  0  0  0  0  0  0  0
   18.6480   -9.7033   12.1068 H   0  0  0  0  0  0  0  0  0  0  0  0
   16.7539   -9.7648   10.1682 C   0  0  0  0  0  0  0  0  0  0  0  0
   15.8183  -10.3855    9.3938 N   0  0  0  0  0  0  0  0  0  0  0  0
   15.8328  -10.3344    8.0365 C   0  0  0  0  0  0  0  0  0  0  0  0
   16.8299   -9.6260    7.3730 C   0  0  0  0  0  0  0  0  0  0  0  0
   17.8086   -8.9711    8.1150 C   0  0  0  0  0  0  0  0  0  0  0  0
   17.7868   -9.0285    9.5308 C   0  0  0  0  0  0  0  0  0  0  0  0
   18.7864   -8.3486   10.2449 C   0  0  0  0  0  0  0  0  0  0  0  0
   19.7837   -7.6341    9.5764 C   0  0  0  0  0  0  0  0  0  0  0  0
   19.7955   -7.5879    8.1812 C   0  0  0  0  0  0  0  0  0  0  0  0
   18.8094   -8.2549    7.4517 C   0  0  0  0  0  0  0  0  0  0  0  0
   15.3290   -8.0228   16.4242 C   0  0  0  0  0  0  0  0  0  0  0  0
   15.6331   -8.0719   17.8828 C   0  0  0  0  0  0  0  0  0  0  0  0
   16.8022   -8.3400   18.2681 O   0  0  0  0  0  0  0  0  0  0  0  0
   14.5875   -7.8479   18.8299 N   0  0  0  0  0  0  0  0  0  0  0  0
   13.6841   -7.6427   18.4967 H   0  0  0  0  0  0  0  0  0  0  0  0
   14.8044   -7.9109   20.2709 C   0  0  0  0  0  0  0  0  0  0  0  0
   13.4732   -7.9838   21.0577 C   0  0  0  0  0  0  0  0  0  0  0  0
   13.4927   -6.8868   21.9506 O   0  0  0  0  0  0  0  0  0  0  0  0
   14.6360   -6.1380   21.7969 C   0  0  0  0  0  0  0  0  0  0  0  0
   14.8765   -5.1112   22.4826 O   0  0  0  0  0  0  0  0  0  0  0  0
   15.5353   -6.6549   20.7503 C   0  0  0  0  0  0  0  0  0  0  0  0
   12.3593   -7.8813   20.2195 O   0  0  0  0  0  0  0  0  0  0  0  0
   12.3906   -7.0376   19.7418 H   0  0  0  0  0  0  0  0  0  0  0  0
  1  2  1  0  0  0
  2  3  2  0  0  0
  3  4  1  0  0  0
  4  5  1  0  0  0
  5  6  1  0  0  0
  6  7  1  0  0  0
  7  8  2  0  0  0
  7  9  1  0  0  0
  9 10  1  0  0  0
 10 11  1  0  0  0
 11 12  2  0  0  0
 11 14  1  0  0  0
 14 15  2  0  0  0
 15 16  1  0  0  0
 16 17  2  0  0  0
 17 18  1  0  0  0
 18 19  2  0  0  0
 19 20  1  0  0  0
 20 21  2  0  0  0
 21 22  1  0  0  0
 22 23  2  0  0  0
  6 24  1  0  0  0
 24 25  1  0  0  0
 25 26  2  0  0  0
 25 27  1  0  0  0
 29 27  1  0  0  0
 29 30  1  0  0  0
 30 31  1  0  0  0
 31 32  1  0  0  0
 32 33  2  0  0  0
 32 34  1  0  0  0
 30 35  1  0  0  0
  9  1  1  0  0  0
 19 14  1  0  0  0
 34 29  1  0  0  0
 23 18  1  0  0  0
 10 13  1  0  0  0
 27 28  1  0  0  0
 35 36  1  0  0  0
M  END
>  <minimizedAffinity>
-6.57635

>  <minimizedRMSD>
1.76027

$$$$
CHEMBL4437143


 25 28  0  0  0  0  0  0  0  0999 V2000
   16.5112   -9.9607   10.5817 C   0  0  0  0  0  0  0  0  0  0  0  0
   17.8798   -9.9530   10.7568 C   0  0  0  0  0  0  0  0  0  0  0  0
   18.0678   -9.6193   12.0881 C   0  0  0  0  0  0  0  0  0  0  0  0
   16.7981   -9.4517   12.6168 C   0  0  0  0  0  0  0  0  0  0  0  0
   15.8931   -9.6629   11.6951 O   0  0  0  0  0  0  0  0  0  0  0  0
   16.4430   -9.0896   14.0007 C   0  0  0  0  0  0  0  0  0  0  0  0
   16.8529   -9.6910   15.1241 C   0  0  0  0  0  0  0  0  0  0  0  0
   16.4299   -9.2370   16.4438 C   0  0  0  0  0  0  0  0  0  0  0  0
   15.6566   -8.2606   16.6324 O   0  0  0  0  0  0  0  0  0  0  0  0
   16.9620   -9.9880   17.5190 N   0  0  0  0  0  0  0  0  0  0  0  0
   17.7951  -11.0193   17.0071 C   0  0  0  0  0  0  0  0  0  0  0  0
   18.3862  -11.8246   17.7717 O   0  0  0  0  0  0  0  0  0  0  0  0
   17.9574  -11.1098   15.2206 S   0  0  0  0  0  0  0  0  0  0  0  0
   16.7830   -9.8219   18.4727 H   0  0  0  0  0  0  0  0  0  0  0  0
   15.6750  -10.3233    9.0440 S   0  0  0  0  0  0  0  0  0  0  0  0
   19.9102   -6.7664    6.3383 C   0  0  0  0  0  0  0  0  0  0  0  0
   19.7971   -7.6715    5.2575 C   0  0  0  0  0  0  0  0  0  0  0  0
   18.9049   -8.7563    5.3418 C   0  0  0  0  0  0  0  0  0  0  0  0
   18.1685   -8.8755    6.5148 C   0  0  0  0  0  0  0  0  0  0  0  0
   18.3044   -7.9873    7.5301 C   0  0  0  0  0  0  0  0  0  0  0  0
   19.1585   -6.9358    7.4685 N   0  0  0  0  0  0  0  0  0  0  0  0
   17.5001   -8.3025    8.5526 N   0  0  0  0  0  0  0  0  0  0  0  0
   16.8852   -9.4221    8.0854 C   0  0  0  0  0  0  0  0  0  0  0  0
   17.2648   -9.8099    6.8378 N   0  0  0  0  0  0  0  0  0  0  0  0
   17.3841   -7.8443    9.4162 H   0  0  0  0  0  0  0  0  0  0  0  0
 16 17  2  0  0  0
 17 18  1  0  0  0
 18 19  2  0  0  0
 19 20  1  0  0  0
 20 21  2  0  0  0
 20 22  1  0  0  0
 22 23  1  0  0  0
 23 24  2  0  0  0
 23 15  1  0  0  0
 15  1  1  0  0  0
  1  2  2  0  0  0
  2  3  1  0  0  0
  3  4  2  0  0  0
  4  5  1  0  0  0
  4  6  1  0  0  0
  6  7  2  0  0  0
  7  8  1  0  0  0
  8  9  2  0  0  0
  8 10  1  0  0  0
 10 11  1  0  0  0
 11 12  2  0  0  0
 11 13  1  0  0  0
 21 16  1  0  0  0
  5  1  1  0  0  0
 13  7  1  0  0  0
 24 19  1  0  0  0
 22 25  1  0  0  0
 10 14  1  0  0  0
M  END
>  <minimizedAffinity>
-6.42906

>  <minimizedRMSD>
1.76211

$$$$
CHEMBL3914438 PubChem-89743545


 38 42  0  0  0  0  0  0  0  0999 V2000
   17.2305  -10.6622   15.6806 C   0  0  0  0  0  0  0  0  0  0  0  0
   16.3165   -9.7664   15.1008 C   0  0  0  0  0  0  0  0  0  0  0  0
   15.6275   -8.8346   15.8781 C   0  0  0  0  0  0  0  0  0  0  0  0
   15.8341   -8.7776   17.2604 C   0  0  0  0  0  0  0  0  0  0  0  0
   16.7344   -9.6705   17.8525 C   0  0  0  0  0  0  0  0  0  0  0  0
   17.4293  -10.6053   17.0791 C   0  0  0  0  0  0  0  0  0  0  0  0
   18.2620  -11.4676   17.7123 F   0  0  0  0  0  0  0  0  0  0  0  0
   15.1086   -7.7947   18.0839 C   0  0  0  0  0  0  0  0  0  0  0  0
   14.1659   -7.1232   17.5816 O   0  0  0  0  0  0  0  0  0  0  0  0
   15.4710   -7.6021   19.4535 N   0  0  0  0  0  0  0  0  0  0  0  0
   16.2041   -8.1384   19.8331 H   0  0  0  0  0  0  0  0  0  0  0  0
   14.7898   -6.6382   20.3027 C   0  0  0  0  0  0  0  0  0  0  0  0
   14.8851   -7.0726   21.7562 C   0  0  0  0  0  0  0  0  0  0  0  0
   14.6747   -8.4491   21.8617 O   0  0  0  0  0  0  0  0  0  0  0  0
   13.7857   -8.6660   21.5400 H   0  0  0  0  0  0  0  0  0  0  0  0
   13.8931   -6.3355   22.5966 C   0  0  0  0  0  0  0  0  0  0  0  0
   12.6129   -6.0320   22.1085 C   0  0  0  0  0  0  0  0  0  0  0  0
   11.6993   -5.3453   22.9136 C   0  0  0  0  0  0  0  0  0  0  0  0
   12.0598   -4.9612   24.2085 C   0  0  0  0  0  0  0  0  0  0  0  0
   13.3332   -5.2647   24.6990 C   0  0  0  0  0  0  0  0  0  0  0  0
   14.2476   -5.9513   23.8943 C   0  0  0  0  0  0  0  0  0  0  0  0
   17.9003  -13.0426   15.1515 C   0  0  0  0  0  0  0  0  0  0  0  0
   17.9331  -11.6197   14.8490 N   0  0  0  0  0  0  0  0  0  0  0  0
   18.7204  -11.2374   13.6742 C   0  0  0  0  0  0  0  0  0  0  0  0
   19.3044   -9.8362   13.8095 C   0  0  0  0  0  0  0  0  0  0  0  0
   19.0529   -9.1421   12.4836 C   0  0  0  0  0  0  0  0  0  0  0  0
   18.1642  -10.0102   11.7322 N   0  0  0  0  0  0  0  0  0  0  0  0
   17.8877  -11.2635   12.4051 C   0  0  0  0  0  0  0  0  0  0  0  0
   17.5995   -9.6910   10.4482 C   0  0  0  0  0  0  0  0  0  0  0  0
   16.3944  -10.2242   10.0817 N   0  0  0  0  0  0  0  0  0  0  0  0
   15.8198   -9.9435    8.8714 C   0  0  0  0  0  0  0  0  0  0  0  0
   16.4424   -9.1121    7.9865 N   0  0  0  0  0  0  0  0  0  0  0  0
   17.6360   -8.5757    8.3354 C   0  0  0  0  0  0  0  0  0  0  0  0
   18.3660   -7.7432    7.5823 N   0  0  0  0  0  0  0  0  0  0  0  0
   19.4582   -7.4762    8.3404 C   0  0  0  0  0  0  0  0  0  0  0  0
   19.4134   -8.1406    9.5684 C   0  0  0  0  0  0  0  0  0  0  0  0
   18.2270   -8.8393    9.5310 C   0  0  0  0  0  0  0  0  0  0  0  0
   18.1573   -7.4024    6.6825 H   0  0  0  0  0  0  0  0  0  0  0  0
 22 23  1  0  0  0
 24 23  1  0  0  0
 24 25  1  0  0  0
 25 26  1  0  0  0
 26 27  1  0  0  0
 27 28  1  0  0  0
 27 29  1  0  0  0
 29 30  2  0  0  0
 30 31  1  0  0  0
 31 32  2  0  0  0
 32 33  1  0  0  0
 33 34  1  0  0  0
 34 35  1  0  0  0
 35 36  2  0  0  0
 36 37  1  0  0  0
 23  1  1  0  0  0
  1  2  2  0  0  0
  2  3  1  0  0  0
  3  4  2  0  0  0
  4  5  1  0  0  0
  5  6  2  0  0  0
  6  7  1  0  0  0
  4  8  1  0  0  0
  8  9  2  0  0  0
  8 10  1  0  0  0
 10 12  1  0  0  0
 12 13  1  0  0  0
 13 14  1  0  0  0
 13 16  1  0  0  0
 16 17  2  0  0  0
 17 18  1  0  0  0
 18 19  2  0  0  0
 19 20  1  0  0  0
 20 21  2  0  0  0
 28 24  1  0  0  0
 37 29  1  0  0  0
  6  1  1  0  0  0
 21 16  1  0  0  0
 37 33  2  0  0  0
 34 38  1  0  0  0
 10 11  1  0  0  0
 14 15  1  0  0  0
M  END
>  <minimizedAffinity>
-7.14490

>  <minimizedRMSD>
1.76221

$$$$
CHEMBL4443017 CHEMBL4596568


 34 37  0  0  0  0  0  0  0  0999 V2000
   17.9702  -11.4787   16.2304 S   0  0  0  0  0  0  0  0  0  0  0  0
   18.2746  -10.1466   15.2601 C   0  0  0  0  0  0  0  0  0  0  0  0
   17.5282   -9.0903   15.6364 N   0  0  0  0  0  0  0  0  0  0  0  0
   16.7442   -9.3817   16.7112 C   0  0  0  0  0  0  0  0  0  0  0  0
   16.8447  -10.6867   17.2021 C   0  0  0  0  0  0  0  0  0  0  0  0
   15.8416   -8.3809   17.2963 C   0  0  0  0  0  0  0  0  0  0  0  0
   15.1528   -7.6443   16.5403 O   0  0  0  0  0  0  0  0  0  0  0  0
   15.7317   -8.2559   18.7177 N   0  0  0  0  0  0  0  0  0  0  0  0
   16.2689   -8.8536   19.2864 H   0  0  0  0  0  0  0  0  0  0  0  0
   14.8591   -7.2822   19.3583 C   0  0  0  0  0  0  0  0  0  0  0  0
   15.2081   -7.1418   20.8034 C   0  0  0  0  0  0  0  0  0  0  0  0
   14.2956   -7.5214   21.7974 C   0  0  0  0  0  0  0  0  0  0  0  0
   14.6556   -7.3913   23.1398 C   0  0  0  0  0  0  0  0  0  0  0  0
   15.9147   -6.8930   23.4776 C   0  0  0  0  0  0  0  0  0  0  0  0
   16.8020   -6.5341   22.4603 C   0  0  0  0  0  0  0  0  0  0  0  0
   16.4339   -6.6662   21.1571 N   0  0  0  0  0  0  0  0  0  0  0  0
   13.0759   -8.0189   21.4719 F   0  0  0  0  0  0  0  0  0  0  0  0
   19.1806  -10.1347   14.0772 C   0  0  0  0  0  0  0  0  0  0  0  0
   18.5013  -10.7795   12.8817 C   0  0  0  0  0  0  0  0  0  0  0  0
   17.0660  -10.5554   12.9460 N   0  0  0  0  0  0  0  0  0  0  0  0
   16.7945  -10.3003   13.8955 H   0  0  0  0  0  0  0  0  0  0  0  0
   16.7580   -9.4686   12.0312 C   0  0  0  0  0  0  0  0  0  0  0  0
   16.2063  -10.0226   10.7264 C   0  0  0  0  0  0  0  0  0  0  0  0
   16.9727   -9.4954    9.5610 C   0  0  0  0  0  0  0  0  0  0  0  0
   16.7231   -9.8891    8.2847 N   0  0  0  0  0  0  0  0  0  0  0  0
   17.6189   -9.1786    7.5853 C   0  0  0  0  0  0  0  0  0  0  0  0
   18.3587   -8.3987    8.4215 C   0  0  0  0  0  0  0  0  0  0  0  0
   17.9678   -8.5785    9.6907 N   0  0  0  0  0  0  0  0  0  0  0  0
   19.3605   -7.5522    7.9531 C   0  0  0  0  0  0  0  0  0  0  0  0
   19.5910   -7.5293    6.5649 C   0  0  0  0  0  0  0  0  0  0  0  0
   18.8248   -8.3416    5.6976 C   0  0  0  0  0  0  0  0  0  0  0  0
   17.8188   -9.1838    6.2077 C   0  0  0  0  0  0  0  0  0  0  0  0
   20.5519   -6.7216    6.0548 F   0  0  0  0  0  0  0  0  0  0  0  0
   16.0542  -10.5328    7.9569 H   0  0  0  0  0  0  0  0  0  0  0  0
  1  2  1  0  0  0
  2  3  2  0  0  0
  3  4  1  0  0  0
  4  5  2  0  0  0
  4  6  1  0  0  0
  6  7  2  0  0  0
  6  8  1  0  0  0
  8 10  1  0  0  0
 10 11  1  0  0  0
 11 12  2  0  0  0
 12 13  1  0  0  0
 13 14  2  0  0  0
 14 15  1  0  0  0
 15 16  2  0  0  0
 12 17  1  0  0  0
  2 18  1  0  0  0
 18 19  1  0  0  0
 19 20  1  0  0  0
 20 22  1  0  0  0
 22 23  1  0  0  0
 23 24  1  0  0  0
 24 25  1  0  0  0
 25 26  1  0  0  0
 26 27  2  0  0  0
 27 28  1  0  0  0
 27 29  1  0  0  0
 29 30  2  0  0  0
 30 31  1  0  0  0
 31 32  2  0  0  0
 30 33  1  0  0  0
  5  1  1  0  0  0
 16 11  1  0  0  0
 28 24  2  0  0  0
 32 26  1  0  0  0
  8  9  1  0  0  0
 20 21  1  0  0  0
 25 34  1  0  0  0
M  END
>  <minimizedAffinity>
-8.65133

>  <minimizedRMSD>
1.76453

$$$$
CHEMBL4438001 PubChem-155513138


 35 39  0  0  0  0  0  0  0  0999 V2000
   17.0948  -10.2792   14.0253 C   0  0  0  0  0  0  0  0  0  0  0  0
   16.3203   -9.4029   14.8004 C   0  0  0  0  0  0  0  0  0  0  0  0
   16.5679   -9.2398   16.1700 C   0  0  0  0  0  0  0  0  0  0  0  0
   17.6058   -9.9651   16.7676 C   0  0  0  0  0  0  0  0  0  0  0  0
   18.3839  -10.8399   16.0068 C   0  0  0  0  0  0  0  0  0  0  0  0
   18.1337  -10.9998   14.6410 C   0  0  0  0  0  0  0  0  0  0  0  0
   18.9856  -11.9414   13.8602 C   0  0  0  0  0  0  0  0  0  0  0  0
   16.4550   -9.4400   11.6820 C   0  0  0  0  0  0  0  0  0  0  0  0
   16.2684   -8.2492   12.0538 O   0  0  0  0  0  0  0  0  0  0  0  0
   16.8481  -10.4509   12.6206 N   0  0  0  0  0  0  0  0  0  0  0  0
   16.9611  -11.3613   12.2633 H   0  0  0  0  0  0  0  0  0  0  0  0
   16.1546  -11.3080    9.9891 C   0  0  0  0  0  0  0  0  0  0  0  0
   16.2604   -9.8194   10.2450 C   0  0  0  0  0  0  0  0  0  0  0  0
   14.9224  -10.4244    9.8637 C   0  0  0  0  0  0  0  0  0  0  0  0
   16.9506   -9.0347    9.1703 C   0  0  0  0  0  0  0  0  0  0  0  0
   16.3111   -8.7654    7.9930 N   0  0  0  0  0  0  0  0  0  0  0  0
   16.9343   -8.0829    6.9819 C   0  0  0  0  0  0  0  0  0  0  0  0
   18.2252   -7.6600    7.1247 N   0  0  0  0  0  0  0  0  0  0  0  0
   18.8684   -7.9335    8.2855 C   0  0  0  0  0  0  0  0  0  0  0  0
   18.2707   -8.6068    9.3003 C   0  0  0  0  0  0  0  0  0  0  0  0
   19.1856   -8.7365   10.3201 C   0  0  0  0  0  0  0  0  0  0  0  0
   20.3274   -8.0978    9.8263 C   0  0  0  0  0  0  0  0  0  0  0  0
   20.1335   -7.6049    8.5766 N   0  0  0  0  0  0  0  0  0  0  0  0
   20.7764   -7.1170    8.0128 H   0  0  0  0  0  0  0  0  0  0  0  0
   15.7461   -8.3159   16.9716 C   0  0  0  0  0  0  0  0  0  0  0  0
   15.0264   -7.4571   16.3926 O   0  0  0  0  0  0  0  0  0  0  0  0
   15.7720   -8.4016   18.4048 N   0  0  0  0  0  0  0  0  0  0  0  0
   16.3541   -9.0936   18.7941 H   0  0  0  0  0  0  0  0  0  0  0  0
   15.0394   -7.5857   19.3289 C   0  0  0  0  0  0  0  0  0  0  0  0
   15.5006   -7.4802   20.6459 C   0  0  0  0  0  0  0  0  0  0  0  0
   14.8134   -6.6943   21.5761 C   0  0  0  0  0  0  0  0  0  0  0  0
   13.6581   -6.0078   21.1930 C   0  0  0  0  0  0  0  0  0  0  0  0
   13.1906   -6.1076   19.8801 C   0  0  0  0  0  0  0  0  0  0  0  0
   13.8784   -6.8935   18.9513 C   0  0  0  0  0  0  0  0  0  0  0  0
   11.7439   -5.2489   19.3980 Cl  0  0  0  0  0  0  0  0  0  0  0  0
 12 13  1  0  0  0
 13 14  1  0  0  0
 13 15  1  0  0  0
 15 16  2  0  0  0
 16 17  1  0  0  0
 17 18  2  0  0  0
 18 19  1  0  0  0
 19 20  2  0  0  0
 20 21  1  0  0  0
 21 22  2  0  0  0
 22 23  1  0  0  0
 13  8  1  0  0  0
  8  9  2  0  0  0
  8 10  1  0  0  0
 10  1  1  0  0  0
  1  2  2  0  0  0
  2  3  1  0  0  0
  3  4  2  0  0  0
  4  5  1  0  0  0
  5  6  2  0  0  0
  6  7  1  0  0  0
  3 25  1  0  0  0
 25 26  2  0  0  0
 25 27  1  0  0  0
 27 29  1  0  0  0
 29 30  2  0  0  0
 30 31  1  0  0  0
 31 32  2  0  0  0
 32 33  1  0  0  0
 33 34  2  0  0  0
 33 35  1  0  0  0
 14 12  1  0  0  0
 20 15  1  0  0  0
  6  1  1  0  0  0
 34 29  1  0  0  0
 23 19  1  0  0  0
 23 24  1  0  0  0
 10 11  1  0  0  0
 27 28  1  0  0  0
M  END
>  <minimizedAffinity>
-7.27610

>  <minimizedRMSD>
1.76631

$$$$
CHEMBL3900898 PubChem-158243015 PubChem-58008933


 32 36  0  0  0  0  0  0  0  0999 V2000
   19.5549   -7.4198    7.0264 C   0  0  0  0  0  0  0  0  0  0  0  0
   20.6375   -7.6017    7.8846 C   0  0  0  0  0  0  0  0  0  0  0  0
   20.4490   -8.2146    9.1207 C   0  0  0  0  0  0  0  0  0  0  0  0
   19.1787   -8.6474    9.5049 C   0  0  0  0  0  0  0  0  0  0  0  0
   18.0645   -8.4731    8.6507 C   0  0  0  0  0  0  0  0  0  0  0  0
   18.2733   -7.8453    7.3897 C   0  0  0  0  0  0  0  0  0  0  0  0
   17.1831   -7.6052    6.3988 C   0  0  0  0  0  0  0  0  0  0  0  0
   16.8001   -8.9321    9.1045 C   0  0  0  0  0  0  0  0  0  0  0  0
   15.7749   -8.7820    8.3823 O   0  0  0  0  0  0  0  0  0  0  0  0
   16.6756   -9.5311   10.3369 N   0  0  0  0  0  0  0  0  0  0  0  0
   17.7679   -9.7006   11.1530 C   0  0  0  0  0  0  0  0  0  0  0  0
   19.0251   -9.2565   10.7408 C   0  0  0  0  0  0  0  0  0  0  0  0
   15.3772   -9.9806   10.7754 C   0  0  0  0  0  0  0  0  0  0  0  0
   15.0926  -10.0943   12.1447 C   0  0  0  0  0  0  0  0  0  0  0  0
   13.8349  -10.5324   12.5684 C   0  0  0  0  0  0  0  0  0  0  0  0
   12.8542  -10.8572   11.6270 C   0  0  0  0  0  0  0  0  0  0  0  0
   13.1301  -10.7435   10.2614 C   0  0  0  0  0  0  0  0  0  0  0  0
   14.3877  -10.3061    9.8360 C   0  0  0  0  0  0  0  0  0  0  0  0
   17.6443  -10.3819   12.4893 C   0  0  0  0  0  0  0  0  0  0  0  0
   18.5313  -11.6146   12.5619 C   0  0  0  0  0  0  0  0  0  0  0  0
   17.9656   -9.4551   13.5656 N   0  0  0  0  0  0  0  0  0  0  0  0
   18.3705   -8.5870   13.3378 H   0  0  0  0  0  0  0  0  0  0  0  0
   17.7157   -9.7574   14.9399 C   0  0  0  0  0  0  0  0  0  0  0  0
   18.3086  -10.8270   15.5529 N   0  0  0  0  0  0  0  0  0  0  0  0
   18.0610  -11.1204   16.8701 C   0  0  0  0  0  0  0  0  0  0  0  0
   17.2078  -10.3451   17.6060 N   0  0  0  0  0  0  0  0  0  0  0  0
   16.6214   -9.2882   16.9947 C   0  0  0  0  0  0  0  0  0  0  0  0
   16.8513   -8.9807   15.6974 C   0  0  0  0  0  0  0  0  0  0  0  0
   16.0936   -7.8639   15.4288 C   0  0  0  0  0  0  0  0  0  0  0  0
   15.4435   -7.5534   16.5816 N   0  0  0  0  0  0  0  0  0  0  0  0
   15.7619   -8.4198   17.5411 N   0  0  0  0  0  0  0  0  0  0  0  0
   15.4308   -8.4213   18.4683 H   0  0  0  0  0  0  0  0  0  0  0  0
  1  2  2  0  0  0
  2  3  1  0  0  0
  3  4  2  0  0  0
  4  5  1  0  0  0
  5  6  2  0  0  0
  6  7  1  0  0  0
  5  8  1  0  0  0
  8  9  2  0  0  0
  8 10  1  0  0  0
 10 11  1  0  0  0
 11 12  2  0  0  0
 11 19  1  0  0  0
 19 21  1  0  0  0
 21 23  1  0  0  0
 23 24  2  0  0  0
 24 25  1  0  0  0
 25 26  2  0  0  0
 26 27  1  0  0  0
 27 28  2  0  0  0
 28 29  1  0  0  0
 29 30  2  0  0  0
 30 31  1  0  0  0
 19 20  1  0  0  0
 10 13  1  0  0  0
 13 14  2  0  0  0
 14 15  1  0  0  0
 15 16  2  0  0  0
 16 17  1  0  0  0
 17 18  2  0  0  0
  6  1  1  0  0  0
 28 23  1  0  0  0
 18 13  1  0  0  0
 12  4  1  0  0  0
 31 27  1  0  0  0
 21 22  1  0  0  0
 31 32  1  0  0  0
M  END
>  <minimizedAffinity>
0.30235

>  <minimizedRMSD>
1.76945

$$$$
CHEMBL2079588 590964 LN01342086 MCULE-2706634959 MCULE-6157972879 MCULE-6849264280 MolPort-016-633-360 MolPort-047-152-813 PubChem-10174079 PubChem-10239879 PubChem-10311744 PubChem-159056270 PubChem-160684431 PubChem-166465388 PubChem-87613062 PubChem-9808843 PubChem-9808844 PubChem-9870815 PubChem-9935325 PubChem-9936039 PubChem-9936487 PubChem-9956915 PubChem-9959987 ZINC000000590964


 31 34  0  0  0  0  0  0  0  0999 V2000
   16.9982   -9.8523   10.5484 C   0  0  0  0  0  0  0  0  0  0  0  0
   18.1001   -9.1324   10.1104 C   0  0  0  0  0  0  0  0  0  0  0  0
   19.0776   -8.6354   10.8189 O   0  0  0  0  0  0  0  0  0  0  0  0
   19.9296   -8.0628    9.9868 C   0  0  0  0  0  0  0  0  0  0  0  0
   19.4834   -8.1945    8.6690 C   0  0  0  0  0  0  0  0  0  0  0  0
   18.2910   -8.8789    8.7901 C   0  0  0  0  0  0  0  0  0  0  0  0
   17.3753   -9.3407    7.8402 C   0  0  0  0  0  0  0  0  0  0  0  0
   16.3147  -10.0717    8.2946 N   0  0  0  0  0  0  0  0  0  0  0  0
   16.1262  -10.3120    9.6013 N   0  0  0  0  0  0  0  0  0  0  0  0
   17.5475   -9.1440    6.4306 N   0  0  0  0  0  0  0  0  0  0  0  0
   16.9273   -9.6216    5.8335 H   0  0  0  0  0  0  0  0  0  0  0  0
   18.5390   -8.3163    5.8114 C   0  0  0  0  0  0  0  0  0  0  0  0
   19.1951   -8.7820    4.6670 C   0  0  0  0  0  0  0  0  0  0  0  0
   20.1373   -7.9787    4.0177 C   0  0  0  0  0  0  0  0  0  0  0  0
   20.4194   -6.6994    4.5047 C   0  0  0  0  0  0  0  0  0  0  0  0
   21.6000   -5.6946    3.6928 Cl  0  0  0  0  0  0  0  0  0  0  0  0
   19.7528   -6.2194    5.6353 C   0  0  0  0  0  0  0  0  0  0  0  0
   18.8107   -7.0229    6.2836 C   0  0  0  0  0  0  0  0  0  0  0  0
   16.8034  -10.1029   11.9066 O   0  0  0  0  0  0  0  0  0  0  0  0
   15.9396   -9.3028   12.7005 C   0  0  0  0  0  0  0  0  0  0  0  0
   16.0887   -8.7068   16.4309 C   0  0  0  0  0  0  0  0  0  0  0  0
   17.2211   -9.3952   16.7479 N   0  0  0  0  0  0  0  0  0  0  0  0
   17.9473  -10.0555   15.8059 C   0  0  0  0  0  0  0  0  0  0  0  0
   17.5387  -10.0429   14.4711 C   0  0  0  0  0  0  0  0  0  0  0  0
   16.3775   -9.3522   14.1207 C   0  0  0  0  0  0  0  0  0  0  0  0
   15.6506   -8.6734   15.1006 C   0  0  0  0  0  0  0  0  0  0  0  0
   15.0897   -7.3858   19.9147 C   0  0  0  0  0  0  0  0  0  0  0  0
   15.7924   -8.0613   18.8370 N   0  0  0  0  0  0  0  0  0  0  0  0
   15.3384   -8.0038   17.4830 C   0  0  0  0  0  0  0  0  0  0  0  0
   14.2977   -7.3523   17.1923 O   0  0  0  0  0  0  0  0  0  0  0  0
   16.6062   -8.5743   19.0460 H   0  0  0  0  0  0  0  0  0  0  0  0
 27 28  1  0  0  0
 28 29  1  0  0  0
 29 30  2  0  0  0
 29 21  1  0  0  0
 21 22  2  0  0  0
 22 23  1  0  0  0
 23 24  2  0  0  0
 24 25  1  0  0  0
 25 20  1  0  0  0
 20 19  1  0  0  0
 19  1  1  0  0  0
  1  2  2  0  0  0
  2  3  1  0  0  0
  3  4  1  0  0  0
  4  5  2  0  0  0
  5  6  1  0  0  0
  6  7  2  0  0  0
  7 10  1  0  0  0
 10 12  1  0  0  0
 12 13  2  0  0  0
 13 14  1  0  0  0
 14 15  2  0  0  0
 15 16  1  0  0  0
 15 17  1  0  0  0
 17 18  2  0  0  0
  7  8  1  0  0  0
  8  9  2  0  0  0
 25 26  2  0  0  0
 26 21  1  0  0  0
  9  1  1  0  0  0
  6  2  1  0  0  0
 18 12  1  0  0  0
 28 31  1  0  0  0
 10 11  1  0  0  0
M  END
>  <minimizedAffinity>
-8.34238

>  <minimizedRMSD>
1.77079

$$$$
CHEMBL522855 PubChem-24959939


 32 36  0  0  0  0  0  0  0  0999 V2000
   17.7161   -9.6644   12.7979 N   0  0  0  0  0  0  0  0  0  0  0  0
   17.5889   -8.2980   13.2933 C   0  0  0  0  0  0  0  0  0  0  0  0
   16.7553   -8.2828   14.5749 C   0  0  0  0  0  0  0  0  0  0  0  0
   17.1406   -9.3836   15.5382 C   0  0  0  0  0  0  0  0  0  0  0  0
   18.0012  -10.4161   15.0968 C   0  0  0  0  0  0  0  0  0  0  0  0
   18.3627  -11.4523   15.9574 C   0  0  0  0  0  0  0  0  0  0  0  0
   17.8578  -11.4934   17.2540 C   0  0  0  0  0  0  0  0  0  0  0  0
   16.9935  -10.4934   17.6966 C   0  0  0  0  0  0  0  0  0  0  0  0
   16.6184   -9.4308   16.8595 C   0  0  0  0  0  0  0  0  0  0  0  0
   18.5936  -10.3817   13.7182 C   0  0  0  0  0  0  0  0  0  0  0  0
   15.6931   -8.4096   17.4175 C   0  0  0  0  0  0  0  0  0  0  0  0
   14.9044   -7.7682   16.6715 O   0  0  0  0  0  0  0  0  0  0  0  0
   15.6965   -8.1464   18.8245 N   0  0  0  0  0  0  0  0  0  0  0  0
   16.3125   -8.6531   19.4015 H   0  0  0  0  0  0  0  0  0  0  0  0
   14.8214   -7.1566   19.4302 C   0  0  0  0  0  0  0  0  0  0  0  0
   14.6667   -7.4627   20.9056 C   0  0  0  0  0  0  0  0  0  0  0  0
   13.5695   -7.8427   19.9348 C   0  0  0  0  0  0  0  0  0  0  0  0
   18.4141   -9.5933   11.5249 C   0  0  0  0  0  0  0  0  0  0  0  0
   18.2268   -8.0876    6.5597 C   0  0  0  0  0  0  0  0  0  0  0  0
   16.9950   -8.6979    6.8513 C   0  0  0  0  0  0  0  0  0  0  0  0
   16.7352   -9.2182    8.1185 C   0  0  0  0  0  0  0  0  0  0  0  0
   15.5359   -9.8030    8.3787 N   0  0  0  0  0  0  0  0  0  0  0  0
   15.2455  -10.3186    9.6027 C   0  0  0  0  0  0  0  0  0  0  0  0
   16.1865  -10.2581   10.6321 C   0  0  0  0  0  0  0  0  0  0  0  0
   17.4319   -9.6688   10.3985 C   0  0  0  0  0  0  0  0  0  0  0  0
   17.7163   -9.1353    9.1280 C   0  0  0  0  0  0  0  0  0  0  0  0
   18.9450   -8.5292    8.8402 C   0  0  0  0  0  0  0  0  0  0  0  0
   19.2158   -8.0028    7.5723 C   0  0  0  0  0  0  0  0  0  0  0  0
   18.6072   -8.3922    4.1283 C   0  0  0  0  0  0  0  0  0  0  0  0
   18.4688   -7.5720    5.2812 O   0  0  0  0  0  0  0  0  0  0  0  0
   20.4754   -7.4138    7.3846 O   0  0  0  0  0  0  0  0  0  0  0  0
   21.1074   -7.2303    6.1258 C   0  0  0  0  0  0  0  0  0  0  0  0
 29 30  1  0  0  0
 30 19  1  0  0  0
 19 20  2  0  0  0
 20 21  1  0  0  0
 21 22  2  0  0  0
 22 23  1  0  0  0
 23 24  2  0  0  0
 24 25  1  0  0  0
 25 18  1  0  0  0
 25 26  2  0  0  0
 18  1  1  0  0  0
  1  2  1  0  0  0
  2  3  1  0  0  0
  3  4  1  0  0  0
  4  5  2  0  0  0
  5  6  1  0  0  0
  5 10  1  0  0  0
  6  7  2  0  0  0
  7  8  1  0  0  0
  8  9  2  0  0  0
  9 11  1  0  0  0
  9  4  1  0  0  0
 11 12  2  0  0  0
 11 13  1  0  0  0
 13 15  1  0  0  0
 15 16  1  0  0  0
 16 17  1  0  0  0
 17 15  1  0  0  0
 10  1  1  0  0  0
 26 27  1  0  0  0
 26 21  1  0  0  0
 27 28  2  0  0  0
 28 31  1  0  0  0
 28 19  1  0  0  0
 31 32  1  0  0  0
 13 14  1  0  0  0
M  END
>  <minimizedAffinity>
-4.16925

>  <minimizedRMSD>
1.77403

$$$$
CHEMBL1377435 8606905 ChemDiv-G357-1774 MCULE-5793602449 MolPort-007-847-654 PubChem-16027385 ZINC000008606905


 34 37  0  0  0  0  0  0  0  0999 V2000
   17.3629  -10.0793   14.1363 C   0  0  0  0  0  0  0  0  0  0  0  0
   17.6416  -10.7799   15.3180 C   0  0  0  0  0  0  0  0  0  0  0  0
   17.2266  -10.2741   16.5531 C   0  0  0  0  0  0  0  0  0  0  0  0
   16.5293   -9.0641   16.6246 C   0  0  0  0  0  0  0  0  0  0  0  0
   16.2496   -8.3630   15.4423 C   0  0  0  0  0  0  0  0  0  0  0  0
   16.6640   -8.8673   14.2068 C   0  0  0  0  0  0  0  0  0  0  0  0
   16.1180   -8.5800   17.9099 N   0  0  0  0  0  0  0  0  0  0  0  0
   15.0598   -7.6516   18.1788 C   0  0  0  0  0  0  0  0  0  0  0  0
   14.3759   -7.1510   17.2471 O   0  0  0  0  0  0  0  0  0  0  0  0
   16.6142   -8.9208   18.6889 H   0  0  0  0  0  0  0  0  0  0  0  0
   14.7426   -7.2965   19.5907 C   0  0  0  0  0  0  0  0  0  0  0  0
   13.3931   -6.8534   19.6964 O   0  0  0  0  0  0  0  0  0  0  0  0
   12.3018   -7.5958   19.2318 C   0  0  0  0  0  0  0  0  0  0  0  0
   11.9877   -8.8580   19.7626 C   0  0  0  0  0  0  0  0  0  0  0  0
   10.8897   -9.5738   19.2769 C   0  0  0  0  0  0  0  0  0  0  0  0
   10.0982   -9.0328   18.2602 C   0  0  0  0  0  0  0  0  0  0  0  0
   10.4039   -7.7761   17.7303 C   0  0  0  0  0  0  0  0  0  0  0  0
   11.5025   -7.0603   18.2159 C   0  0  0  0  0  0  0  0  0  0  0  0
    8.9309   -9.7933   17.7433 C   0  0  0  0  0  0  0  0  0  0  0  0
   17.7963  -10.6065   12.8325 C   0  0  0  0  0  0  0  0  0  0  0  0
   18.3120  -11.7561   12.7549 O   0  0  0  0  0  0  0  0  0  0  0  0
   17.6338   -9.8291   11.6836 O   0  0  0  0  0  0  0  0  0  0  0  0
   18.6036   -8.8739   11.2791 C   0  0  0  0  0  0  0  0  0  0  0  0
   19.5232   -7.8935    7.8227 C   0  0  0  0  0  0  0  0  0  0  0  0
   20.6102   -7.0270    6.8941 S   0  0  0  0  0  0  0  0  0  0  0  0
   19.8464   -7.4118    5.4335 C   0  0  0  0  0  0  0  0  0  0  0  0
   18.7467   -8.2199    5.7370 C   0  0  0  0  0  0  0  0  0  0  0  0
   17.8542   -8.7355    4.6579 C   0  0  0  0  0  0  0  0  0  0  0  0
   18.5702   -8.4854    7.0691 N   0  0  0  0  0  0  0  0  0  0  0  0
   17.5899   -9.2353    7.6598 C   0  0  0  0  0  0  0  0  0  0  0  0
   17.5903   -9.3814    9.0510 C   0  0  0  0  0  0  0  0  0  0  0  0
   18.6003   -8.7592    9.7969 C   0  0  0  0  0  0  0  0  0  0  0  0
   19.5525   -8.0141    9.1723 N   0  0  0  0  0  0  0  0  0  0  0  0
   16.6890   -9.7936    6.9790 O   0  0  0  0  0  0  0  0  0  0  0  0
 24 25  1  0  0  0
 25 26  1  0  0  0
 26 27  2  0  0  0
 27 28  1  0  0  0
 27 29  1  0  0  0
 29 30  1  0  0  0
 30 31  1  0  0  0
 31 32  2  0  0  0
 32 23  1  0  0  0
 23 22  1  0  0  0
 22 20  1  0  0  0
 20 21  2  0  0  0
 20  1  1  0  0  0
  1  2  2  0  0  0
  2  3  1  0  0  0
  3  4  2  0  0  0
  4  5  1  0  0  0
  5  6  2  0  0  0
  4  7  1  0  0  0
  7  8  1  0  0  0
  8 11  1  0  0  0
 11 12  1  0  0  0
 12 13  1  0  0  0
 13 14  2  0  0  0
 14 15  1  0  0  0
 15 16  2  0  0  0
 16 17  1  0  0  0
 17 18  2  0  0  0
 16 19  1  0  0  0
  8  9  2  0  0  0
 32 33  1  0  0  0
 30 34  2  0  0  0
 29 24  1  0  0  0
  6  1  1  0  0  0
 18 13  1  0  0  0
 33 24  2  0  0  0
  7 10  1  0  0  0
M  END
>  <minimizedAffinity>
-6.44960

>  <minimizedRMSD>
1.77478

$$$$
CHEMBL4586237


 27 30  0  0  0  0  0  0  0  0999 V2000
   18.6771  -10.3453   12.8746 O   0  0  0  0  0  0  0  0  0  0  0  0
   17.4500  -10.1595   12.6519 C   0  0  0  0  0  0  0  0  0  0  0  0
   16.5196  -10.1176   13.7370 N   0  0  0  0  0  0  0  0  0  0  0  0
   15.5634  -10.0005   13.5341 H   0  0  0  0  0  0  0  0  0  0  0  0
   16.9667   -9.9858   11.2752 C   0  0  0  0  0  0  0  0  0  0  0  0
   15.7973  -10.4888   10.8123 N   0  0  0  0  0  0  0  0  0  0  0  0
   15.6548  -10.1534    9.5326 N   0  0  0  0  0  0  0  0  0  0  0  0
   16.7366   -9.4359    9.1847 C   0  0  0  0  0  0  0  0  0  0  0  0
   17.0209   -8.8736    7.9431 C   0  0  0  0  0  0  0  0  0  0  0  0
   18.2269   -8.1581    7.8179 C   0  0  0  0  0  0  0  0  0  0  0  0
   19.1031   -8.0255    8.9193 C   0  0  0  0  0  0  0  0  0  0  0  0
   18.7857   -8.6065   10.1612 C   0  0  0  0  0  0  0  0  0  0  0  0
   17.5843   -9.3072   10.2480 C   0  0  0  0  0  0  0  0  0  0  0  0
   15.1554  -11.0180   11.3387 H   0  0  0  0  0  0  0  0  0  0  0  0
   16.9273  -10.2408   15.1304 C   0  0  0  0  0  0  0  0  0  0  0  0
   17.0632   -8.8690   15.7715 C   0  0  0  0  0  0  0  0  0  0  0  0
   15.7524   -8.1088   15.6729 C   0  0  0  0  0  0  0  0  0  0  0  0
   15.2073   -7.8491   17.0344 C   0  0  0  0  0  0  0  0  0  0  0  0
   13.9361   -7.4161   17.2386 N   0  0  0  0  0  0  0  0  0  0  0  0
   13.8735   -7.3293   18.5745 C   0  0  0  0  0  0  0  0  0  0  0  0
   12.7886   -6.9289   19.3505 C   0  0  0  0  0  0  0  0  0  0  0  0
   12.9613   -6.9194   20.7473 C   0  0  0  0  0  0  0  0  0  0  0  0
   14.1940   -7.3047   21.3207 C   0  0  0  0  0  0  0  0  0  0  0  0
   15.2687   -7.7041   20.5043 C   0  0  0  0  0  0  0  0  0  0  0  0
   15.0613   -7.7006   19.1272 C   0  0  0  0  0  0  0  0  0  0  0  0
   15.9333   -8.0403   18.1677 N   0  0  0  0  0  0  0  0  0  0  0  0
   16.8634   -8.3496   18.2602 H   0  0  0  0  0  0  0  0  0  0  0  0
  1  2  2  0  0  0
  2  3  1  0  0  0
  3 15  1  0  0  0
 15 16  1  0  0  0
 16 17  1  0  0  0
 17 18  1  0  0  0
 18 19  2  0  0  0
 19 20  1  0  0  0
 20 21  2  0  0  0
 21 22  1  0  0  0
 22 23  2  0  0  0
 23 24  1  0  0  0
 24 25  2  0  0  0
 25 26  1  0  0  0
  2  5  1  0  0  0
  5  6  1  0  0  0
  6  7  1  0  0  0
  7  8  2  0  0  0
  8  9  1  0  0  0
  9 10  2  0  0  0
 10 11  1  0  0  0
 11 12  2  0  0  0
 12 13  1  0  0  0
 26 18  1  0  0  0
 13  5  2  0  0  0
 25 20  1  0  0  0
 13  8  1  0  0  0
  3  4  1  0  0  0
 26 27  1  0  0  0
  6 14  1  0  0  0
M  END
>  <minimizedAffinity>
-10.08271

>  <minimizedRMSD>
1.77655

$$$$
CHEMBL3646617


 32 35  0  0  0  0  0  0  0  0999 V2000
   16.5070   -8.3942   11.1571 C   0  0  0  0  0  0  0  0  0  0  0  0
   15.9270   -7.1183   11.1117 C   0  0  0  0  0  0  0  0  0  0  0  0
   15.4270   -6.5187   12.2651 C   0  0  0  0  0  0  0  0  0  0  0  0
   15.5083   -7.2042   13.4733 C   0  0  0  0  0  0  0  0  0  0  0  0
   16.0717   -8.4389   13.5167 N   0  0  0  0  0  0  0  0  0  0  0  0
   16.5697   -9.0547   12.4070 C   0  0  0  0  0  0  0  0  0  0  0  0
   16.5479  -12.2239    8.0213 C   0  0  0  0  0  0  0  0  0  0  0  0
   17.0273  -10.8626    8.3747 C   0  0  0  0  0  0  0  0  0  0  0  0
   16.5940  -10.2672    9.5308 N   0  0  0  0  0  0  0  0  0  0  0  0
   17.0088   -9.0166    9.9022 C   0  0  0  0  0  0  0  0  0  0  0  0
   17.8955   -8.3682    9.0362 C   0  0  0  0  0  0  0  0  0  0  0  0
   18.4757   -7.1642    9.1453 N   0  0  0  0  0  0  0  0  0  0  0  0
   19.2421   -7.0907    8.0227 C   0  0  0  0  0  0  0  0  0  0  0  0
   19.1650   -8.1940    7.2301 N   0  0  0  0  0  0  0  0  0  0  0  0
   18.3100   -8.9735    7.9026 C   0  0  0  0  0  0  0  0  0  0  0  0
   17.8974  -10.2125    7.5465 N   0  0  0  0  0  0  0  0  0  0  0  0
   19.6226   -8.3735    6.3771 H   0  0  0  0  0  0  0  0  0  0  0  0
   17.1872  -10.3482   12.5129 N   0  0  0  0  0  0  0  0  0  0  0  0
   17.3366  -10.8299   11.6673 H   0  0  0  0  0  0  0  0  0  0  0  0
   17.6111  -11.0184   13.7078 C   0  0  0  0  0  0  0  0  0  0  0  0
   18.3464  -12.1999   13.5991 C   0  0  0  0  0  0  0  0  0  0  0  0
   18.7584  -12.8577   14.7157 N   0  0  0  0  0  0  0  0  0  0  0  0
   18.4751  -12.3996   15.9649 C   0  0  0  0  0  0  0  0  0  0  0  0
   19.0439  -13.3069   17.3560 Cl  0  0  0  0  0  0  0  0  0  0  0  0
   17.7375  -11.2177   16.1262 C   0  0  0  0  0  0  0  0  0  0  0  0
   17.3086  -10.5338   14.9840 C   0  0  0  0  0  0  0  0  0  0  0  0
   17.4342  -10.7276   17.4370 N   0  0  0  0  0  0  0  0  0  0  0  0
   17.5382  -11.3419   18.1993 H   0  0  0  0  0  0  0  0  0  0  0  0
   16.8939   -9.1116   17.7549 S   0  0  0  0  0  0  0  0  0  0  0  0
   16.2353   -9.0708   19.1043 O   0  0  0  0  0  0  0  0  0  0  0  0
   15.8988   -8.6943   16.7092 O   0  0  0  0  0  0  0  0  0  0  0  0
   18.2799   -7.9981   17.7537 C   0  0  0  0  0  0  0  0  0  0  0  0
  7  8  1  0  0  0
  8  9  2  0  0  0
  9 10  1  0  0  0
 10  1  1  0  0  0
  1  2  2  0  0  0
  2  3  1  0  0  0
  3  4  2  0  0  0
  4  5  1  0  0  0
  5  6  2  0  0  0
  6 18  1  0  0  0
 18 20  1  0  0  0
 20 21  2  0  0  0
 21 22  1  0  0  0
 22 23  2  0  0  0
 23 24  1  0  0  0
 23 25  1  0  0  0
 25 27  1  0  0  0
 27 29  1  0  0  0
 29 30  2  0  0  0
 29 31  2  0  0  0
 29 32  1  0  0  0
 25 26  2  0  0  0
 10 11  2  0  0  0
 11 12  1  0  0  0
 12 13  2  0  0  0
 13 14  1  0  0  0
 14 15  1  0  0  0
 15 16  2  0  0  0
 16  8  1  0  0  0
  6  1  1  0  0  0
 26 20  1  0  0  0
 15 11  1  0  0  0
 18 19  1  0  0  0
 27 28  1  0  0  0
 14 17  1  0  0  0
M  END
>  <minimizedAffinity>
14.11575

>  <minimizedRMSD>
1.77924

$$$$
CHEMBL271188 PubChem-11362483


 33 36  0  0  0  0  0  0  0  0999 V2000
   17.8000   -9.3826   12.6211 C   0  0  0  0  0  0  0  0  0  0  0  0
   18.2711  -10.3827   13.4839 C   0  0  0  0  0  0  0  0  0  0  0  0
   17.8879  -10.4049   14.8269 C   0  0  0  0  0  0  0  0  0  0  0  0
   17.0180   -9.4090   15.3405 C   0  0  0  0  0  0  0  0  0  0  0  0
   16.5612   -8.4092   14.4679 C   0  0  0  0  0  0  0  0  0  0  0  0
   16.9496   -8.3959   13.1263 C   0  0  0  0  0  0  0  0  0  0  0  0
   16.6396   -9.4486   16.7100 C   0  0  0  0  0  0  0  0  0  0  0  0
   17.1446  -10.4808   17.5168 C   0  0  0  0  0  0  0  0  0  0  0  0
   17.9999  -11.4538   16.9995 C   0  0  0  0  0  0  0  0  0  0  0  0
   18.3706  -11.4157   15.6575 C   0  0  0  0  0  0  0  0  0  0  0  0
   15.7349   -8.4548   17.3478 C   0  0  0  0  0  0  0  0  0  0  0  0
   14.9917   -7.7115   16.6513 O   0  0  0  0  0  0  0  0  0  0  0  0
   15.7032   -8.3406   18.7753 N   0  0  0  0  0  0  0  0  0  0  0  0
   16.2667   -8.9466   19.3087 H   0  0  0  0  0  0  0  0  0  0  0  0
   14.8736   -7.3671   19.4723 C   0  0  0  0  0  0  0  0  0  0  0  0
   15.6202   -6.7882   20.6626 C   0  0  0  0  0  0  0  0  0  0  0  0
   14.7396   -6.5920   21.7266 O   0  0  0  0  0  0  0  0  0  0  0  0
   14.4332   -7.8781   22.1686 C   0  0  0  0  0  0  0  0  0  0  0  0
   18.1725   -9.3108   11.2691 O   0  0  0  0  0  0  0  0  0  0  0  0
   19.3603   -8.0024    7.4374 C   0  0  0  0  0  0  0  0  0  0  0  0
   18.5531   -8.2816    6.3231 C   0  0  0  0  0  0  0  0  0  0  0  0
   17.3572   -8.9988    6.4922 C   0  0  0  0  0  0  0  0  0  0  0  0
   16.9652   -9.4359    7.7584 C   0  0  0  0  0  0  0  0  0  0  0  0
   17.7741   -9.1580    8.8816 C   0  0  0  0  0  0  0  0  0  0  0  0
   18.9651   -8.4433    8.7110 C   0  0  0  0  0  0  0  0  0  0  0  0
   17.3714   -9.6062   10.1500 C   0  0  0  0  0  0  0  0  0  0  0  0
   16.1627  -10.3096   10.2628 C   0  0  0  0  0  0  0  0  0  0  0  0
   15.3918  -10.5636    9.1272 C   0  0  0  0  0  0  0  0  0  0  0  0
   15.8049  -10.1267    7.9086 N   0  0  0  0  0  0  0  0  0  0  0  0
   18.9578   -7.8376    5.0594 O   0  0  0  0  0  0  0  0  0  0  0  0
   18.4974   -8.4291    3.8519 C   0  0  0  0  0  0  0  0  0  0  0  0
   20.5492   -7.2871    7.2565 O   0  0  0  0  0  0  0  0  0  0  0  0
   21.1698   -7.1345    5.9872 C   0  0  0  0  0  0  0  0  0  0  0  0
 20 21  2  0  0  0
 21 22  1  0  0  0
 22 23  2  0  0  0
 23 24  1  0  0  0
 24 25  2  0  0  0
 24 26  1  0  0  0
 26 27  2  0  0  0
 27 28  1  0  0  0
 28 29  2  0  0  0
 26 19  1  0  0  0
 19  1  1  0  0  0
  1  2  2  0  0  0
  2  3  1  0  0  0
  3  4  2  0  0  0
  4  5  1  0  0  0
  5  6  2  0  0  0
  4  7  1  0  0  0
  7  8  2  0  0  0
  8  9  1  0  0  0
  9 10  2  0  0  0
  7 11  1  0  0  0
 11 12  2  0  0  0
 11 13  1  0  0  0
 13 15  1  0  0  0
 15 16  1  0  0  0
 16 17  1  0  0  0
 17 18  1  0  0  0
 21 30  1  0  0  0
 30 31  1  0  0  0
 20 32  1  0  0  0
 32 33  1  0  0  0
 25 20  1  0  0  0
  6  1  1  0  0  0
 29 23  1  0  0  0
 10  3  1  0  0  0
 13 14  1  0  0  0
M  END
>  <minimizedAffinity>
-4.65610

>  <minimizedRMSD>
1.78146

$$$$
CHEMBL4163188 PubChem-145956797


 30 34  0  0  0  0  0  0  0  0999 V2000
   17.0387   -9.9365   12.2021 C   0  0  0  0  0  0  0  0  0  0  0  0
   16.3278   -9.0324   13.0153 C   0  0  0  0  0  0  0  0  0  0  0  0
   16.4674   -9.1502   14.3952 C   0  0  0  0  0  0  0  0  0  0  0  0
   17.2698  -10.1002   14.9599 C   0  0  0  0  0  0  0  0  0  0  0  0
   18.0012  -11.0069   14.1965 C   0  0  0  0  0  0  0  0  0  0  0  0
   17.8796  -10.9128   12.7987 C   0  0  0  0  0  0  0  0  0  0  0  0
   17.2118   -9.9771   16.2914 N   0  0  0  0  0  0  0  0  0  0  0  0
   16.3640   -8.9414   16.4946 C   0  0  0  0  0  0  0  0  0  0  0  0
   15.8787   -8.3982   15.3457 N   0  0  0  0  0  0  0  0  0  0  0  0
   17.9035  -10.7719   17.2938 C   0  0  0  0  0  0  0  0  0  0  0  0
   16.0151   -8.4657   17.7950 N   0  0  0  0  0  0  0  0  0  0  0  0
   16.6136   -8.6580   18.5526 H   0  0  0  0  0  0  0  0  0  0  0  0
   14.7989   -7.7048   18.0287 C   0  0  0  0  0  0  0  0  0  0  0  0
   14.5834   -7.5386   19.4913 C   0  0  0  0  0  0  0  0  0  0  0  0
   13.3165   -7.7607   20.0423 C   0  0  0  0  0  0  0  0  0  0  0  0
   13.1191   -7.6261   21.4201 C   0  0  0  0  0  0  0  0  0  0  0  0
   14.1893   -7.2745   22.2487 C   0  0  0  0  0  0  0  0  0  0  0  0
   15.4575   -7.0596   21.7001 C   0  0  0  0  0  0  0  0  0  0  0  0
   15.6554   -7.1941   20.3222 C   0  0  0  0  0  0  0  0  0  0  0  0
   16.9274   -9.8167   10.8110 O   0  0  0  0  0  0  0  0  0  0  0  0
   18.8926   -8.4795   10.5419 N   0  0  0  0  0  0  0  0  0  0  0  0
   19.8103   -7.8105    9.7725 C   0  0  0  0  0  0  0  0  0  0  0  0
   19.7037   -7.8063    8.4100 N   0  0  0  0  0  0  0  0  0  0  0  0
   18.6704   -8.4830    7.8541 C   0  0  0  0  0  0  0  0  0  0  0  0
   17.7503   -9.1520    8.5913 C   0  0  0  0  0  0  0  0  0  0  0  0
   17.8548   -9.1707    9.9829 C   0  0  0  0  0  0  0  0  0  0  0  0
   16.8222   -9.6448    7.6882 C   0  0  0  0  0  0  0  0  0  0  0  0
   17.2300   -9.2652    6.4467 N   0  0  0  0  0  0  0  0  0  0  0  0
   18.3505   -8.5620    6.5590 N   0  0  0  0  0  0  0  0  0  0  0  0
   19.0644   -7.9685    5.4421 C   0  0  0  0  0  0  0  0  0  0  0  0
 21 22  2  0  0  0
 22 23  1  0  0  0
 23 24  2  0  0  0
 24 25  1  0  0  0
 25 26  2  0  0  0
 26 20  1  0  0  0
 20  1  1  0  0  0
  1  2  2  0  0  0
  2  3  1  0  0  0
  3  4  2  0  0  0
  4  5  1  0  0  0
  5  6  2  0  0  0
  4  7  1  0  0  0
  7  8  1  0  0  0
  8  9  2  0  0  0
  8 11  1  0  0  0
 11 13  1  0  0  0
 13 14  1  0  0  0
 14 15  2  0  0  0
 15 16  1  0  0  0
 16 17  2  0  0  0
 17 18  1  0  0  0
 18 19  2  0  0  0
  7 10  1  0  0  0
 25 27  1  0  0  0
 27 28  2  0  0  0
 28 29  1  0  0  0
 29 30  1  0  0  0
 26 21  1  0  0  0
  6  1  1  0  0  0
 19 14  1  0  0  0
 29 24  1  0  0  0
  9  3  1  0  0  0
 11 12  1  0  0  0
M  END
>  <minimizedAffinity>
-8.86601

>  <minimizedRMSD>
1.78592

$$$$
CHEMBL3475381 MCULE-6142723050 MolPort-005-053-145 PubChem-45197008


 27 30  0  0  0  0  0  0  0  0999 V2000
   18.3808  -10.0239   14.0052 C   0  0  0  0  0  0  0  0  0  0  0  0
   19.1371  -10.9407   14.9510 C   0  0  0  0  0  0  0  0  0  0  0  0
   18.6559  -12.3560   14.6577 C   0  0  0  0  0  0  0  0  0  0  0  0
   17.9575  -12.3041   13.3110 C   0  0  0  0  0  0  0  0  0  0  0  0
   17.7718  -10.8973   13.0163 N   0  0  0  0  0  0  0  0  0  0  0  0
   17.1541  -10.4372   11.8044 C   0  0  0  0  0  0  0  0  0  0  0  0
   16.6934  -11.2672   10.9764 O   0  0  0  0  0  0  0  0  0  0  0  0
   15.8339   -8.2442   16.4523 C   0  0  0  0  0  0  0  0  0  0  0  0
   15.5242   -7.8522   15.1540 C   0  0  0  0  0  0  0  0  0  0  0  0
   16.3719   -8.4208   14.1941 C   0  0  0  0  0  0  0  0  0  0  0  0
   17.3379   -9.2525   14.7529 C   0  0  0  0  0  0  0  0  0  0  0  0
   17.1469   -9.2946   16.4195 S   0  0  0  0  0  0  0  0  0  0  0  0
   15.7206   -7.9770   18.9418 N   0  0  0  0  0  0  0  0  0  0  0  0
   15.1197   -7.8212   17.6611 C   0  0  0  0  0  0  0  0  0  0  0  0
   13.9687   -7.3188   17.5726 O   0  0  0  0  0  0  0  0  0  0  0  0
   15.2370   -7.6915   19.7505 H   0  0  0  0  0  0  0  0  0  0  0  0
   16.6198   -8.3702   19.0191 H   0  0  0  0  0  0  0  0  0  0  0  0
   17.0698   -8.9790   11.4873 C   0  0  0  0  0  0  0  0  0  0  0  0
   17.5547   -8.7301   10.1406 N   0  0  0  0  0  0  0  0  0  0  0  0
   17.0056   -9.2698    9.0543 N   0  0  0  0  0  0  0  0  0  0  0  0
   17.7642   -8.8291    8.0401 C   0  0  0  0  0  0  0  0  0  0  0  0
   17.6346   -9.0852    6.6791 C   0  0  0  0  0  0  0  0  0  0  0  0
   18.5830   -8.4889    5.8248 C   0  0  0  0  0  0  0  0  0  0  0  0
   19.6124   -7.6705    6.3482 C   0  0  0  0  0  0  0  0  0  0  0  0
   19.7086   -7.4347    7.7337 C   0  0  0  0  0  0  0  0  0  0  0  0
   18.7527   -8.0393    8.5430 C   0  0  0  0  0  0  0  0  0  0  0  0
   18.6223   -7.9802    9.8758 N   0  0  0  0  0  0  0  0  0  0  0  0
 13 14  1  0  0  0
 14 15  2  0  0  0
 14  8  1  0  0  0
  8  9  2  0  0  0
  9 10  1  0  0  0
 10 11  2  0  0  0
 11 12  1  0  0  0
 12  8  1  0  0  0
  1 11  1  0  0  0
  1  2  1  0  0  0
  2  3  1  0  0  0
  3  4  1  0  0  0
  4  5  1  0  0  0
  5  6  1  0  0  0
  5  1  1  0  0  0
  6  7  2  0  0  0
  6 18  1  0  0  0
 18 19  1  0  0  0
 19 20  1  0  0  0
 20 21  2  0  0  0
 21 22  1  0  0  0
 22 23  2  0  0  0
 23 24  1  0  0  0
 24 25  2  0  0  0
 25 26  1  0  0  0
 26 27  2  0  0  0
 26 21  1  0  0  0
 27 19  1  0  0  0
 13 16  1  0  0  0
 13 17  1  0  0  0
M  END
>  <minimizedAffinity>
-6.66519

>  <minimizedRMSD>
1.78644

$$$$
CHEMBL1532599


 32 34  0  0  0  0  0  0  0  0999 V2000
   16.9442   -9.4603   16.4034 N   0  0  0  0  0  0  0  0  0  0  0  0
   16.9204  -10.8680   16.7718 C   0  0  0  0  0  0  0  0  0  0  0  0
   16.7128   -9.0468   15.0470 C   0  0  0  0  0  0  0  0  0  0  0  0
   16.7131   -7.8219   14.7499 O   0  0  0  0  0  0  0  0  0  0  0  0
   17.1501   -8.4740   17.4556 C   0  0  0  0  0  0  0  0  0  0  0  0
   15.6871   -7.7305   19.3719 N   0  0  0  0  0  0  0  0  0  0  0  0
   15.8388   -7.9870   17.9695 C   0  0  0  0  0  0  0  0  0  0  0  0
   14.8785   -7.8395   17.1683 O   0  0  0  0  0  0  0  0  0  0  0  0
   16.4807   -7.8872   19.9331 H   0  0  0  0  0  0  0  0  0  0  0  0
   14.5170   -7.0464   21.4536 C   0  0  0  0  0  0  0  0  0  0  0  0
   13.3498   -6.5912   22.0793 C   0  0  0  0  0  0  0  0  0  0  0  0
   12.1851   -6.3580   21.3478 C   0  0  0  0  0  0  0  0  0  0  0  0
   12.1734   -6.5784   19.9725 C   0  0  0  0  0  0  0  0  0  0  0  0
   10.7149   -6.2875   19.0504 Cl  0  0  0  0  0  0  0  0  0  0  0  0
   13.3260   -7.0301   19.3307 C   0  0  0  0  0  0  0  0  0  0  0  0
   14.5077   -7.2706   20.0502 C   0  0  0  0  0  0  0  0  0  0  0  0
   16.6896   -6.3228   22.4797 C   0  0  0  0  0  0  0  0  0  0  0  0
   15.6344   -7.2522   22.2789 O   0  0  0  0  0  0  0  0  0  0  0  0
   16.5012  -10.0520   13.9582 C   0  0  0  0  0  0  0  0  0  0  0  0
   17.7784  -10.2618   13.1551 C   0  0  0  0  0  0  0  0  0  0  0  0
   17.5863   -9.8824   11.7249 C   0  0  0  0  0  0  0  0  0  0  0  0
   16.4911  -10.3155   11.0431 N   0  0  0  0  0  0  0  0  0  0  0  0
   16.2937   -9.9817    9.7407 C   0  0  0  0  0  0  0  0  0  0  0  0
   15.1611  -10.4421    9.0784 O   0  0  0  0  0  0  0  0  0  0  0  0
   17.2314   -9.1790    9.0825 C   0  0  0  0  0  0  0  0  0  0  0  0
   17.0748   -8.8055    7.7419 C   0  0  0  0  0  0  0  0  0  0  0  0
   18.0385   -8.0020    7.1245 C   0  0  0  0  0  0  0  0  0  0  0  0
   19.1588   -7.5706    7.8429 C   0  0  0  0  0  0  0  0  0  0  0  0
   19.3206   -7.9407    9.1818 C   0  0  0  0  0  0  0  0  0  0  0  0
   18.3610   -8.7436    9.8051 C   0  0  0  0  0  0  0  0  0  0  0  0
   18.5128   -9.1049   11.1047 N   0  0  0  0  0  0  0  0  0  0  0  0
   14.5401  -10.9791    9.5301 H   0  0  0  0  0  0  0  0  0  0  0  0
 17 18  1  0  0  0
 18 10  1  0  0  0
 10 11  2  0  0  0
 11 12  1  0  0  0
 12 13  2  0  0  0
 13 14  1  0  0  0
 13 15  1  0  0  0
 15 16  2  0  0  0
 16  6  1  0  0  0
 16 10  1  0  0  0
  6  7  1  0  0  0
  7  8  2  0  0  0
  7  5  1  0  0  0
  5  1  1  0  0  0
  1  2  1  0  0  0
  1  3  1  0  0  0
  3  4  2  0  0  0
  3 19  1  0  0  0
 19 20  1  0  0  0
 20 21  1  0  0  0
 21 22  2  0  0  0
 22 23  1  0  0  0
 23 24  1  0  0  0
 23 25  2  0  0  0
 25 26  1  0  0  0
 26 27  2  0  0  0
 27 28  1  0  0  0
 28 29  2  0  0  0
 29 30  1  0  0  0
 30 31  2  0  0  0
 30 25  1  0  0  0
 31 21  1  0  0  0
  6  9  1  0  0  0
 24 32  1  0  0  0
M  END
>  <minimizedAffinity>
-9.46249

>  <minimizedRMSD>
1.78676

$$$$
CHEMBL397252 PubChem-3937221 PubChem-54606524


 39 42  0  0  0  0  0  0  0  0999 V2000
   16.3760   -9.8808   11.6814 C   0  0  0  0  0  0  0  0  0  0  0  0
   16.4313   -8.5692   12.4766 C   0  0  0  0  0  0  0  0  0  0  0  0
   17.1495   -8.9638   13.7338 C   0  0  0  0  0  0  0  0  0  0  0  0
   17.9179  -10.1982   13.2867 C   0  0  0  0  0  0  0  0  0  0  0  0
   17.1998  -10.8601   12.2776 O   0  0  0  0  0  0  0  0  0  0  0  0
   17.1785   -7.5920   11.8126 O   0  0  0  0  0  0  0  0  0  0  0  0
   18.0745   -7.9258   11.6492 H   0  0  0  0  0  0  0  0  0  0  0  0
   19.6564   -7.9658    8.1765 N   0  0  0  0  0  0  0  0  0  0  0  0
   18.6008   -8.5621    7.5401 C   0  0  0  0  0  0  0  0  0  0  0  0
   17.6220   -9.1455    8.3528 C   0  0  0  0  0  0  0  0  0  0  0  0
   17.7419   -9.0975    9.6993 C   0  0  0  0  0  0  0  0  0  0  0  0
   18.7882   -8.5039   10.3214 N   0  0  0  0  0  0  0  0  0  0  0  0
   19.7539   -7.9330    9.5435 C   0  0  0  0  0  0  0  0  0  0  0  0
   16.6957   -9.7146   10.2645 N   0  0  0  0  0  0  0  0  0  0  0  0
   15.9400  -10.1258    9.2183 C   0  0  0  0  0  0  0  0  0  0  0  0
   16.4871   -9.7910    8.0164 N   0  0  0  0  0  0  0  0  0  0  0  0
   18.5395   -8.5758    6.1010 N   0  0  0  0  0  0  0  0  0  0  0  0
   17.3841   -9.0743    5.3725 C   0  0  0  0  0  0  0  0  0  0  0  0
   19.6439   -8.0415    5.3196 C   0  0  0  0  0  0  0  0  0  0  0  0
   16.1994   -9.2322   14.8228 N   0  0  0  0  0  0  0  0  0  0  0  0
   15.5908  -10.5517   14.9844 C   0  0  0  0  0  0  0  0  0  0  0  0
   15.8513   -8.1685   15.7231 C   0  0  0  0  0  0  0  0  0  0  0  0
   16.2994   -7.0056   15.5250 O   0  0  0  0  0  0  0  0  0  0  0  0
   15.0134   -8.4384   16.9415 C   0  0  0  0  0  0  0  0  0  0  0  0
   14.3644   -7.2248   17.4129 N   0  0  0  0  0  0  0  0  0  0  0  0
   15.0732   -6.5488   17.6977 H   0  0  0  0  0  0  0  0  0  0  0  0
   13.7664   -7.4462   18.2089 H   0  0  0  0  0  0  0  0  0  0  0  0
   15.8170   -9.1119   18.0588 C   0  0  0  0  0  0  0  0  0  0  0  0
   16.7256   -8.1766   18.7959 C   0  0  0  0  0  0  0  0  0  0  0  0
   16.2667   -7.4632   19.9097 C   0  0  0  0  0  0  0  0  0  0  0  0
   17.1257   -6.5959   20.5896 C   0  0  0  0  0  0  0  0  0  0  0  0
   18.4543   -6.4393   20.1638 C   0  0  0  0  0  0  0  0  0  0  0  0
   18.9117   -7.1651   19.0580 C   0  0  0  0  0  0  0  0  0  0  0  0
   18.0521   -8.0330   18.3781 C   0  0  0  0  0  0  0  0  0  0  0  0
   19.3359   -5.5746   20.8189 O   0  0  0  0  0  0  0  0  0  0  0  0
   19.0576   -5.0190   22.0968 C   0  0  0  0  0  0  0  0  0  0  0  0
   18.3903  -11.1391   14.3944 C   0  0  0  0  0  0  0  0  0  0  0  0
   18.2080  -12.4745   14.0371 O   0  0  0  0  0  0  0  0  0  0  0  0
   17.2647  -12.6430   13.8864 H   0  0  0  0  0  0  0  0  0  0  0  0
  8  9  2  0  0  0
  9 10  1  0  0  0
 10 11  2  0  0  0
 11 12  1  0  0  0
 12 13  2  0  0  0
 11 14  1  0  0  0
 14 15  1  0  0  0
 15 16  2  0  0  0
 14  1  1  0  0  0
  1  2  1  0  0  0
  2  3  1  0  0  0
  3  4  1  0  0  0
  4  5  1  0  0  0
  4 37  1  0  0  0
 37 38  1  0  0  0
  3 20  1  0  0  0
 20 21  1  0  0  0
 20 22  1  0  0  0
 22 23  2  0  0  0
 22 24  1  0  0  0
 24 25  1  0  0  0
 24 28  1  0  0  0
 28 29  1  0  0  0
 29 30  2  0  0  0
 30 31  1  0  0  0
 31 32  2  0  0  0
 32 33  1  0  0  0
 33 34  2  0  0  0
 32 35  1  0  0  0
 35 36  1  0  0  0
  2  6  1  0  0  0
  9 17  1  0  0  0
 17 18  1  0  0  0
 17 19  1  0  0  0
 13  8  1  0  0  0
  5  1  1  0  0  0
 34 29  1  0  0  0
 16 10  1  0  0  0
 38 39  1  0  0  0
 25 26  1  0  0  0
 25 27  1  0  0  0
  6  7  1  0  0  0
M  END
>  <minimizedAffinity>
5.35729

>  <minimizedRMSD>
1.79040

$$$$
CHEMBL462382 MCULE-9411753407 PubChem-44562394 ZINC000040866340


 32 36  0  0  0  0  0  0  0  0999 V2000
   17.6728   -9.3724   13.0825 C   0  0  0  0  0  0  0  0  0  0  0  0
   17.0559   -8.2269   13.6373 C   0  0  0  0  0  0  0  0  0  0  0  0
   16.6938   -8.1795   14.9959 C   0  0  0  0  0  0  0  0  0  0  0  0
   16.9564   -9.3071   15.7690 C   0  0  0  0  0  0  0  0  0  0  0  0
   16.7858   -9.6006   17.1127 C   0  0  0  0  0  0  0  0  0  0  0  0
   17.3086  -10.8227   17.3710 N   0  0  0  0  0  0  0  0  0  0  0  0
   17.7734  -11.3106   16.2269 N   0  0  0  0  0  0  0  0  0  0  0  0
   18.4236  -12.6038   16.0998 C   0  0  0  0  0  0  0  0  0  0  0  0
   17.5746  -10.4102   15.2492 C   0  0  0  0  0  0  0  0  0  0  0  0
   17.9523  -10.4836   13.9101 C   0  0  0  0  0  0  0  0  0  0  0  0
   16.2536   -8.7499   18.1353 N   0  0  0  0  0  0  0  0  0  0  0  0
   15.0264   -8.0159   18.0588 C   0  0  0  0  0  0  0  0  0  0  0  0
   14.1434   -8.3261   17.2149 O   0  0  0  0  0  0  0  0  0  0  0  0
   16.7780   -8.6623   18.9640 H   0  0  0  0  0  0  0  0  0  0  0  0
   14.7448   -6.9444   19.0603 C   0  0  0  0  0  0  0  0  0  0  0  0
   13.2478   -6.8248   19.2807 C   0  0  0  0  0  0  0  0  0  0  0  0
   14.1024   -7.5488   20.2958 C   0  0  0  0  0  0  0  0  0  0  0  0
   18.0205   -9.3412   11.7224 O   0  0  0  0  0  0  0  0  0  0  0  0
   18.2521   -8.1921    6.7857 C   0  0  0  0  0  0  0  0  0  0  0  0
   17.0519   -8.8829    6.9887 C   0  0  0  0  0  0  0  0  0  0  0  0
   16.6924   -9.3438    8.2551 C   0  0  0  0  0  0  0  0  0  0  0  0
   15.5207  -10.0100    8.4274 N   0  0  0  0  0  0  0  0  0  0  0  0
   15.1381  -10.4692    9.6477 C   0  0  0  0  0  0  0  0  0  0  0  0
   15.9534  -10.2642   10.7621 C   0  0  0  0  0  0  0  0  0  0  0  0
   17.1749   -9.5878   10.6248 C   0  0  0  0  0  0  0  0  0  0  0  0
   17.5446   -9.1160    9.3549 C   0  0  0  0  0  0  0  0  0  0  0  0
   18.7450   -8.4266    9.1605 C   0  0  0  0  0  0  0  0  0  0  0  0
   19.1140   -7.9587    7.8876 C   0  0  0  0  0  0  0  0  0  0  0  0
   18.8657   -8.6274    4.3981 C   0  0  0  0  0  0  0  0  0  0  0  0
   18.5276   -7.7677    5.4770 O   0  0  0  0  0  0  0  0  0  0  0  0
   20.3208   -7.2706    7.7166 O   0  0  0  0  0  0  0  0  0  0  0  0
   21.0232   -7.2335    6.4812 C   0  0  0  0  0  0  0  0  0  0  0  0
 29 30  1  0  0  0
 30 19  1  0  0  0
 19 20  2  0  0  0
 20 21  1  0  0  0
 21 22  2  0  0  0
 22 23  1  0  0  0
 23 24  2  0  0  0
 24 25  1  0  0  0
 25 18  1  0  0  0
 25 26  2  0  0  0
 18  1  1  0  0  0
  1  2  2  0  0  0
  2  3  1  0  0  0
  3  4  2  0  0  0
  4  5  1  0  0  0
  5 11  1  0  0  0
  5  6  2  0  0  0
 11 12  1  0  0  0
 12 13  2  0  0  0
 12 15  1  0  0  0
 15 16  1  0  0  0
 16 17  1  0  0  0
 17 15  1  0  0  0
  6  7  1  0  0  0
  7  8  1  0  0  0
  7  9  1  0  0  0
  9 10  2  0  0  0
  9  4  1  0  0  0
 10  1  1  0  0  0
 26 27  1  0  0  0
 26 21  1  0  0  0
 27 28  2  0  0  0
 28 31  1  0  0  0
 28 19  1  0  0  0
 31 32  1  0  0  0
 11 14  1  0  0  0
M  END
>  <minimizedAffinity>
-3.49319

>  <minimizedRMSD>
1.79106

$$$$
CHEMBL2089312 PubChem-136233414


 36 39  0  0  0  0  0  0  0  0999 V2000
   14.9929  -10.1399   11.6380 C   0  0  0  0  0  0  0  0  0  0  0  0
   13.8793  -10.6544   11.3502 O   0  0  0  0  0  0  0  0  0  0  0  0
   15.3298   -9.9893   13.0235 N   0  0  0  0  0  0  0  0  0  0  0  0
   14.6314  -10.1975   13.6853 H   0  0  0  0  0  0  0  0  0  0  0  0
   21.4264   -7.7205    9.3513 N   0  0  0  0  0  0  0  0  0  0  0  0
   20.0953   -8.1233    9.0532 C   0  0  0  0  0  0  0  0  0  0  0  0
   19.2696   -8.5290   10.0547 N   0  0  0  0  0  0  0  0  0  0  0  0
   17.9958   -8.9157    9.7875 C   0  0  0  0  0  0  0  0  0  0  0  0
   17.1726   -9.3215   10.7884 N   0  0  0  0  0  0  0  0  0  0  0  0
   15.8920   -9.7137   10.5397 C   0  0  0  0  0  0  0  0  0  0  0  0
   15.4195   -9.6846    9.2181 C   0  0  0  0  0  0  0  0  0  0  0  0
   16.2401   -9.2799    8.2123 N   0  0  0  0  0  0  0  0  0  0  0  0
   17.5187   -8.8959    8.4678 C   0  0  0  0  0  0  0  0  0  0  0  0
   18.3841   -8.4781    7.4528 C   0  0  0  0  0  0  0  0  0  0  0  0
   18.0017   -8.4493    6.2528 O   0  0  0  0  0  0  0  0  0  0  0  0
   19.6520   -8.1018    7.7668 N   0  0  0  0  0  0  0  0  0  0  0  0
   21.7486   -7.7355   10.2814 H   0  0  0  0  0  0  0  0  0  0  0  0
   22.0255   -7.4267    8.6275 H   0  0  0  0  0  0  0  0  0  0  0  0
   20.2606   -7.8084    7.0507 H   0  0  0  0  0  0  0  0  0  0  0  0
   16.6222   -9.5530   13.5280 C   0  0  0  0  0  0  0  0  0  0  0  0
   16.5065   -9.2147   14.9720 C   0  0  0  0  0  0  0  0  0  0  0  0
   17.4490   -9.5120   15.9373 C   0  0  0  0  0  0  0  0  0  0  0  0
   16.9149   -9.0361   17.1248 C   0  0  0  0  0  0  0  0  0  0  0  0
   15.6898   -8.4901   16.7835 C   0  0  0  0  0  0  0  0  0  0  0  0
   15.4714   -8.6118   15.4982 O   0  0  0  0  0  0  0  0  0  0  0  0
   14.7500   -7.8582   17.7145 C   0  0  0  0  0  0  0  0  0  0  0  0
   14.0121   -6.9187   17.3130 O   0  0  0  0  0  0  0  0  0  0  0  0
   14.6686   -8.3130   19.0681 N   0  0  0  0  0  0  0  0  0  0  0  0
   15.2141   -9.0862   19.3398 H   0  0  0  0  0  0  0  0  0  0  0  0
   13.8122   -7.6794   20.0606 C   0  0  0  0  0  0  0  0  0  0  0  0
   14.6379   -6.9314   21.0508 C   0  0  0  0  0  0  0  0  0  0  0  0
   14.0279   -6.0454   21.9434 C   0  0  0  0  0  0  0  0  0  0  0  0
   14.8191   -5.3427   22.8543 C   0  0  0  0  0  0  0  0  0  0  0  0
   16.2027   -5.5287   22.8622 C   0  0  0  0  0  0  0  0  0  0  0  0
   16.7759   -6.4199   21.9518 C   0  0  0  0  0  0  0  0  0  0  0  0
   15.9891   -7.0961   21.0716 N   0  0  0  0  0  0  0  0  0  0  0  0
  5  6  1  0  0  0
  6  7  2  0  0  0
  7  8  1  0  0  0
  8  9  2  0  0  0
  9 10  1  0  0  0
 10  1  1  0  0  0
 10 11  2  0  0  0
  1  2  2  0  0  0
  1  3  1  0  0  0
  3 20  1  0  0  0
 20 21  1  0  0  0
 21 22  2  0  0  0
 22 23  1  0  0  0
 23 24  2  0  0  0
 24 26  1  0  0  0
 24 25  1  0  0  0
 26 27  2  0  0  0
 26 28  1  0  0  0
 28 30  1  0  0  0
 30 31  1  0  0  0
 31 32  2  0  0  0
 32 33  1  0  0  0
 33 34  2  0  0  0
 34 35  1  0  0  0
 35 36  2  0  0  0
 36 31  1  0  0  0
 25 21  1  0  0  0
 11 12  1  0  0  0
 12 13  2  0  0  0
 13 14  1  0  0  0
 13  8  1  0  0  0
 14 15  2  0  0  0
 14 16  1  0  0  0
 16  6  1  0  0  0
  5 17  1  0  0  0
  5 18  1  0  0  0
  3  4  1  0  0  0
 28 29  1  0  0  0
 16 19  1  0  0  0
M  END
>  <minimizedAffinity>
-3.88690

>  <minimizedRMSD>
1.79233

$$$$
CHEMBL321591 PubChem-15068036


 33 37  0  0  0  0  0  0  0  0999 V2000
   16.7817   -8.2503   15.7955 C   0  0  0  0  0  0  0  0  0  0  0  0
   17.8127   -9.2599   15.3096 C   0  0  0  0  0  0  0  0  0  0  0  0
   17.1396   -9.8197   11.9459 N   0  0  0  0  0  0  0  0  0  0  0  0
   18.3811  -10.2711   12.5629 C   0  0  0  0  0  0  0  0  0  0  0  0
   18.0633  -11.1112   13.8029 C   0  0  0  0  0  0  0  0  0  0  0  0
   17.1503  -10.4254   14.7279 N   0  0  0  0  0  0  0  0  0  0  0  0
   15.9104  -10.0227   14.0472 C   0  0  0  0  0  0  0  0  0  0  0  0
   16.1748   -9.1555   12.8133 C   0  0  0  0  0  0  0  0  0  0  0  0
   16.9856   -9.7397   10.5164 C   0  0  0  0  0  0  0  0  0  0  0  0
   16.0024  -10.4391    9.8783 N   0  0  0  0  0  0  0  0  0  0  0  0
   16.1644  -10.0983    8.2544 S   0  0  0  0  0  0  0  0  0  0  0  0
   17.4708   -9.0776    8.3248 C   0  0  0  0  0  0  0  0  0  0  0  0
   17.8244   -8.9748    9.6610 C   0  0  0  0  0  0  0  0  0  0  0  0
   18.9254   -8.1889   10.0188 C   0  0  0  0  0  0  0  0  0  0  0  0
   19.6372   -7.5145    9.0118 C   0  0  0  0  0  0  0  0  0  0  0  0
   19.2522   -7.6317    7.6621 C   0  0  0  0  0  0  0  0  0  0  0  0
   18.1532   -8.4263    7.3028 C   0  0  0  0  0  0  0  0  0  0  0  0
   16.0094   -8.7820   16.9968 C   0  0  0  0  0  0  0  0  0  0  0  0
   16.3788   -8.0334   18.2685 C   0  0  0  0  0  0  0  0  0  0  0  0
   15.2618   -8.0483   19.1999 N   0  0  0  0  0  0  0  0  0  0  0  0
   14.0501   -7.3422   18.9347 C   0  0  0  0  0  0  0  0  0  0  0  0
   13.9207   -6.6689   17.8760 O   0  0  0  0  0  0  0  0  0  0  0  0
   15.3439   -8.5599   20.0370 H   0  0  0  0  0  0  0  0  0  0  0  0
   12.9454   -7.3754   19.9485 C   0  0  0  0  0  0  0  0  0  0  0  0
   13.2558   -6.6965   21.3121 C   0  0  0  0  0  0  0  0  0  0  0  0
   12.1120   -5.7157   21.5768 C   0  0  0  0  0  0  0  0  0  0  0  0
   11.2943   -5.8247   20.3528 C   0  0  0  0  0  0  0  0  0  0  0  0
   10.2527   -5.1507   20.1445 O   0  0  0  0  0  0  0  0  0  0  0  0
   11.7817   -6.7417   19.4504 O   0  0  0  0  0  0  0  0  0  0  0  0
   14.5885   -5.9515   21.3670 C   0  0  0  0  0  0  0  0  0  0  0  0
   15.3245   -6.4714   22.5837 C   0  0  0  0  0  0  0  0  0  0  0  0
   14.7373   -7.8355   22.8576 C   0  0  0  0  0  0  0  0  0  0  0  0
   13.2953   -7.7461   22.4087 C   0  0  0  0  0  0  0  0  0  0  0  0
  9 10  2  0  0  0
 10 11  1  0  0  0
 11 12  1  0  0  0
 12 13  2  0  0  0
 13 14  1  0  0  0
 14 15  2  0  0  0
 15 16  1  0  0  0
 16 17  2  0  0  0
  9  3  1  0  0  0
  3  4  1  0  0  0
  4  5  1  0  0  0
  5  6  1  0  0  0
  6  7  1  0  0  0
  7  8  1  0  0  0
  6  2  1  0  0  0
  2  1  1  0  0  0
  1 18  1  0  0  0
 18 19  1  0  0  0
 19 20  1  0  0  0
 20 21  1  0  0  0
 21 22  2  0  0  0
 21 24  1  0  0  0
 24 25  1  0  0  0
 25 26  1  0  0  0
 26 27  1  0  0  0
 27 28  2  0  0  0
 27 29  1  0  0  0
 25 30  1  0  0  0
 30 31  1  0  0  0
 31 32  1  0  0  0
 32 33  1  0  0  0
 13  9  1  0  0  0
  8  3  1  0  0  0
 29 24  1  0  0  0
 17 12  1  0  0  0
 33 25  1  0  0  0
 20 23  1  0  0  0
M  END
>  <minimizedAffinity>
-8.59821

>  <minimizedRMSD>
1.79519

$$$$
CHEMBL3680749 PubChem-84973054


 38 42  0  0  0  0  0  0  0  0999 V2000
   17.0564   -9.2883   15.4914 C   0  0  0  0  0  0  0  0  0  0  0  0
   17.0179   -9.2133   14.0911 C   0  0  0  0  0  0  0  0  0  0  0  0
   17.8830   -9.9912   13.3154 C   0  0  0  0  0  0  0  0  0  0  0  0
   18.7907  -10.8554   13.9375 C   0  0  0  0  0  0  0  0  0  0  0  0
   18.8324  -10.9394   15.3319 C   0  0  0  0  0  0  0  0  0  0  0  0
   17.9696  -10.1576   16.1059 C   0  0  0  0  0  0  0  0  0  0  0  0
   15.9796   -8.7453   17.6989 N   0  0  0  0  0  0  0  0  0  0  0  0
   16.1601   -8.4503   16.3063 C   0  0  0  0  0  0  0  0  0  0  0  0
   15.5529   -7.4834   15.7717 O   0  0  0  0  0  0  0  0  0  0  0  0
   16.4089   -9.5632   18.0394 H   0  0  0  0  0  0  0  0  0  0  0  0
   13.0711   -4.9573   21.6909 C   0  0  0  0  0  0  0  0  0  0  0  0
   13.9023   -5.8252   22.6469 C   0  0  0  0  0  0  0  0  0  0  0  0
   15.1500   -6.3935   21.9554 C   0  0  0  0  0  0  0  0  0  0  0  0
   14.8483   -6.8989   20.5741 C   0  0  0  0  0  0  0  0  0  0  0  0
   13.6741   -6.5797   19.9037 C   0  0  0  0  0  0  0  0  0  0  0  0
   12.5556   -5.7828   20.4914 C   0  0  0  0  0  0  0  0  0  0  0  0
   13.7012   -7.2978   18.3868 S   0  0  0  0  0  0  0  0  0  0  0  0
   15.2352   -7.9648   18.6417 C   0  0  0  0  0  0  0  0  0  0  0  0
   15.7265   -7.6524   19.8625 N   0  0  0  0  0  0  0  0  0  0  0  0
   10.9792   -3.8489   21.4745 C   0  0  0  0  0  0  0  0  0  0  0  0
   12.0113   -4.2452   22.4193 N   0  0  0  0  0  0  0  0  0  0  0  0
   11.3883   -5.1056   23.4197 C   0  0  0  0  0  0  0  0  0  0  0  0
   17.8237   -9.9030   11.8310 C   0  0  0  0  0  0  0  0  0  0  0  0
   16.4461  -10.0329   11.3812 N   0  0  0  0  0  0  0  0  0  0  0  0
   16.0134   -9.9131   10.0201 C   0  0  0  0  0  0  0  0  0  0  0  0
   14.8225  -10.2124    9.7424 O   0  0  0  0  0  0  0  0  0  0  0  0
   15.7598  -10.2168   12.0627 H   0  0  0  0  0  0  0  0  0  0  0  0
   16.8954   -9.4419    8.9317 C   0  0  0  0  0  0  0  0  0  0  0  0
   17.9655   -8.5598    9.0581 C   0  0  0  0  0  0  0  0  0  0  0  0
   18.4498   -8.3987    7.8190 N   0  0  0  0  0  0  0  0  0  0  0  0
   19.4906   -7.6381    7.4000 C   0  0  0  0  0  0  0  0  0  0  0  0
   19.7959   -7.6377    6.0310 C   0  0  0  0  0  0  0  0  0  0  0  0
   19.0213   -8.4139    5.1474 C   0  0  0  0  0  0  0  0  0  0  0  0
   17.9501   -9.1857    5.6280 C   0  0  0  0  0  0  0  0  0  0  0  0
   17.6981   -9.1465    6.9977 C   0  0  0  0  0  0  0  0  0  0  0  0
   16.7205   -9.8103    7.6374 N   0  0  0  0  0  0  0  0  0  0  0  0
   20.8820   -6.8426    5.5341 C   0  0  0  0  0  0  0  0  0  0  0  0
   21.7567   -6.1993    5.1342 N   0  0  0  0  0  0  0  0  0  0  0  0
 20 21  1  0  0  0
 21 22  1  0  0  0
 11 21  1  0  0  0
 11 12  1  0  0  0
 12 13  1  0  0  0
 13 14  1  0  0  0
 14 15  2  0  0  0
 15 16  1  0  0  0
 15 17  1  0  0  0
 16 11  1  0  0  0
 17 18  1  0  0  0
 18 19  2  0  0  0
 18  7  1  0  0  0
 19 14  1  0  0  0
  7  8  1  0  0  0
  8  9  2  0  0  0
  8  1  1  0  0  0
  1  2  2  0  0  0
  2  3  1  0  0  0
  3  4  2  0  0  0
  3 23  1  0  0  0
  4  5  1  0  0  0
  5  6  2  0  0  0
  6  1  1  0  0  0
 23 24  1  0  0  0
 24 25  1  0  0  0
 25 26  2  0  0  0
 25 28  1  0  0  0
 28 29  2  0  0  0
 29 30  1  0  0  0
 30 31  1  0  0  0
 31 32  2  0  0  0
 32 33  1  0  0  0
 32 37  1  0  0  0
 33 34  2  0  0  0
 34 35  1  0  0  0
 35 36  2  0  0  0
 35 30  1  0  0  0
 36 28  1  0  0  0
 37 38  3  0  0  0
  7 10  1  0  0  0
 24 27  1  0  0  0
M  END
>  <minimizedAffinity>
-10.10052

>  <minimizedRMSD>
1.79537

$$$$
CHEMBL3680477 PubChem-66763531


 40 43  0  0  0  0  0  0  0  0999 V2000
   17.0515   -9.8955   16.7270 C   0  0  0  0  0  0  0  0  0  0  0  0
   17.4780  -11.1875   17.0548 C   0  0  0  0  0  0  0  0  0  0  0  0
   18.1429  -11.9752   16.1102 C   0  0  0  0  0  0  0  0  0  0  0  0
   18.3881  -11.4728   14.8297 C   0  0  0  0  0  0  0  0  0  0  0  0
   17.9702  -10.1809   14.4943 C   0  0  0  0  0  0  0  0  0  0  0  0
   17.3003   -9.3976   15.4390 C   0  0  0  0  0  0  0  0  0  0  0  0
   15.3212   -8.1684   17.5112 C   0  0  0  0  0  0  0  0  0  0  0  0
   14.8747   -7.9550   16.3511 O   0  0  0  0  0  0  0  0  0  0  0  0
   16.3768   -9.1183   17.7254 N   0  0  0  0  0  0  0  0  0  0  0  0
   16.6681   -9.2498   18.6566 H   0  0  0  0  0  0  0  0  0  0  0  0
   13.7096   -6.0592   20.8483 C   0  0  0  0  0  0  0  0  0  0  0  0
   15.0194   -6.4358   20.8150 N   0  0  0  0  0  0  0  0  0  0  0  0
   15.5501   -7.1087   19.7593 C   0  0  0  0  0  0  0  0  0  0  0  0
   14.7524   -7.4393   18.6579 C   0  0  0  0  0  0  0  0  0  0  0  0
   13.4050   -7.0629   18.6697 C   0  0  0  0  0  0  0  0  0  0  0  0
   12.8797   -6.3726   19.7622 C   0  0  0  0  0  0  0  0  0  0  0  0
   11.7620   -5.2961   22.2558 C   0  0  0  0  0  0  0  0  0  0  0  0
   13.1924   -5.3500   21.9882 N   0  0  0  0  0  0  0  0  0  0  0  0
   14.0785   -4.5969   22.8669 C   0  0  0  0  0  0  0  0  0  0  0  0
   14.3950   -5.3988   24.1202 C   0  0  0  0  0  0  0  0  0  0  0  0
   15.5327   -6.1807   23.9181 O   0  0  0  0  0  0  0  0  0  0  0  0
   15.3573   -7.2776   24.7601 C   0  0  0  0  0  0  0  0  0  0  0  0
   18.2087   -9.6498   13.1254 C   0  0  0  0  0  0  0  0  0  0  0  0
   17.1360  -10.0756   12.2383 N   0  0  0  0  0  0  0  0  0  0  0  0
   16.4058  -10.5945   12.6466 H   0  0  0  0  0  0  0  0  0  0  0  0
   17.0319   -9.8171   10.8279 C   0  0  0  0  0  0  0  0  0  0  0  0
   15.9120  -10.2531   10.1944 N   0  0  0  0  0  0  0  0  0  0  0  0
   15.7186  -10.0616    8.8665 C   0  0  0  0  0  0  0  0  0  0  0  0
   16.6538   -9.4153    8.1291 N   0  0  0  0  0  0  0  0  0  0  0  0
   17.8001   -8.9442    8.6873 C   0  0  0  0  0  0  0  0  0  0  0  0
   18.0205   -9.1342   10.0767 C   0  0  0  0  0  0  0  0  0  0  0  0
   19.1912   -8.6314   10.6571 C   0  0  0  0  0  0  0  0  0  0  0  0
   20.1365   -7.9579    9.8885 C   0  0  0  0  0  0  0  0  0  0  0  0
   19.9227   -7.7763    8.5243 C   0  0  0  0  0  0  0  0  0  0  0  0
   18.7634   -8.2608    7.9008 C   0  0  0  0  0  0  0  0  0  0  0  0
   18.6095   -8.0212    6.4416 C   0  0  0  0  0  0  0  0  0  0  0  0
   19.4358   -7.2861    5.8368 O   0  0  0  0  0  0  0  0  0  0  0  0
   17.5450   -8.6054    5.6961 N   0  0  0  0  0  0  0  0  0  0  0  0
   16.8875   -9.1831    6.1469 H   0  0  0  0  0  0  0  0  0  0  0  0
   17.4670   -8.4313    4.7303 H   0  0  0  0  0  0  0  0  0  0  0  0
 17 18  1  0  0  0
 18 19  1  0  0  0
 18 11  1  0  0  0
 19 20  1  0  0  0
 20 21  1  0  0  0
 21 22  1  0  0  0
 11 12  2  0  0  0
 12 13  1  0  0  0
 13 14  2  0  0  0
 14 15  1  0  0  0
 14  7  1  0  0  0
 15 16  2  0  0  0
 16 11  1  0  0  0
  7  8  2  0  0  0
  7  9  1  0  0  0
  9  1  1  0  0  0
  1  2  2  0  0  0
  2  3  1  0  0  0
  3  4  2  0  0  0
  4  5  1  0  0  0
  5  6  2  0  0  0
  5 23  1  0  0  0
  6  1  1  0  0  0
 23 24  1  0  0  0
 24 26  1  0  0  0
 26 27  2  0  0  0
 27 28  1  0  0  0
 28 29  2  0  0  0
 29 30  1  0  0  0
 30 31  2  0  0  0
 31 32  1  0  0  0
 31 26  1  0  0  0
 32 33  2  0  0  0
 33 34  1  0  0  0
 34 35  2  0  0  0
 35 36  1  0  0  0
 35 30  1  0  0  0
 36 37  2  0  0  0
 36 38  1  0  0  0
  9 10  1  0  0  0
 24 25  1  0  0  0
 38 39  1  0  0  0
 38 40  1  0  0  0
M  END
>  <minimizedAffinity>
-8.31268

>  <minimizedRMSD>
1.79724

$$$$
CHEMBL3925129


 34 38  0  0  0  0  0  0  0  0999 V2000
   19.5678   -7.4520    7.1568 C   0  0  0  0  0  0  0  0  0  0  0  0
   20.6385   -7.6469    8.0272 C   0  0  0  0  0  0  0  0  0  0  0  0
   20.4312   -8.2697    9.2553 C   0  0  0  0  0  0  0  0  0  0  0  0
   19.1541   -8.6998    9.6192 C   0  0  0  0  0  0  0  0  0  0  0  0
   18.0517   -8.5124    8.7526 C   0  0  0  0  0  0  0  0  0  0  0  0
   18.2797   -7.8745    7.5000 C   0  0  0  0  0  0  0  0  0  0  0  0
   17.2033   -7.6204    6.4974 C   0  0  0  0  0  0  0  0  0  0  0  0
   16.7794   -8.9689    9.1863 C   0  0  0  0  0  0  0  0  0  0  0  0
   15.7643   -8.8078    8.4523 O   0  0  0  0  0  0  0  0  0  0  0  0
   16.6361   -9.5775   10.4120 N   0  0  0  0  0  0  0  0  0  0  0  0
   17.7172   -9.7593   11.2403 C   0  0  0  0  0  0  0  0  0  0  0  0
   18.9817   -9.3187   10.8476 C   0  0  0  0  0  0  0  0  0  0  0  0
   15.3299  -10.0232   10.8306 C   0  0  0  0  0  0  0  0  0  0  0  0
   14.3355  -10.2904    9.8779 C   0  0  0  0  0  0  0  0  0  0  0  0
   13.0702  -10.7239   10.2842 C   0  0  0  0  0  0  0  0  0  0  0  0
   12.7915  -10.8918   11.6435 C   0  0  0  0  0  0  0  0  0  0  0  0
   13.7770  -10.6253   12.5980 C   0  0  0  0  0  0  0  0  0  0  0  0
   15.0425  -10.1912   12.1938 C   0  0  0  0  0  0  0  0  0  0  0  0
   17.5734  -10.4487   12.5704 C   0  0  0  0  0  0  0  0  0  0  0  0
   18.2798  -11.7949   12.5683 C   0  0  0  0  0  0  0  0  0  0  0  0
   18.0876   -9.6021   13.6374 N   0  0  0  0  0  0  0  0  0  0  0  0
   18.6101   -8.8036   13.3953 H   0  0  0  0  0  0  0  0  0  0  0  0
   17.8659   -9.8810   15.0213 C   0  0  0  0  0  0  0  0  0  0  0  0
   18.5419  -10.8822   15.6624 N   0  0  0  0  0  0  0  0  0  0  0  0
   18.3232  -11.1548   16.9892 C   0  0  0  0  0  0  0  0  0  0  0  0
   17.4152  -10.4274   17.7084 N   0  0  0  0  0  0  0  0  0  0  0  0
   16.7442   -9.4368   17.0734 C   0  0  0  0  0  0  0  0  0  0  0  0
   16.9456   -9.1512   15.7626 C   0  0  0  0  0  0  0  0  0  0  0  0
   16.0907   -8.1067   15.5019 C   0  0  0  0  0  0  0  0  0  0  0  0
   15.4179   -7.8039   16.6378 N   0  0  0  0  0  0  0  0  0  0  0  0
   15.8188   -8.6228   17.6088 N   0  0  0  0  0  0  0  0  0  0  0  0
   15.4987   -8.6303   18.5398 H   0  0  0  0  0  0  0  0  0  0  0  0
   15.9122   -7.4254   14.2484 C   0  0  0  0  0  0  0  0  0  0  0  0
   15.7697   -6.8781   13.2389 N   0  0  0  0  0  0  0  0  0  0  0  0
  1  2  2  0  0  0
  2  3  1  0  0  0
  3  4  2  0  0  0
  4  5  1  0  0  0
  5  6  2  0  0  0
  6  7  1  0  0  0
  5  8  1  0  0  0
  8  9  2  0  0  0
  8 10  1  0  0  0
 10 11  1  0  0  0
 11 12  2  0  0  0
 11 19  1  0  0  0
 19 21  1  0  0  0
 21 23  1  0  0  0
 23 24  2  0  0  0
 24 25  1  0  0  0
 25 26  2  0  0  0
 26 27  1  0  0  0
 27 28  2  0  0  0
 28 29  1  0  0  0
 29 30  2  0  0  0
 30 31  1  0  0  0
 29 33  1  0  0  0
 33 34  3  0  0  0
 19 20  1  0  0  0
 10 13  1  0  0  0
 13 14  2  0  0  0
 14 15  1  0  0  0
 15 16  2  0  0  0
 16 17  1  0  0  0
 17 18  2  0  0  0
  6  1  1  0  0  0
 28 23  1  0  0  0
 18 13  1  0  0  0
 12  4  1  0  0  0
 31 27  1  0  0  0
 21 22  1  0  0  0
 31 32  1  0  0  0
M  END
>  <minimizedAffinity>
3.09206

>  <minimizedRMSD>
1.79887

$$$$
CHEMBL4475173 PubChem-59278436


 33 36  0  0  0  0  0  0  0  0999 V2000
   18.6116   -9.9278   13.1679 N   0  0  0  0  0  0  0  0  0  0  0  0
   17.3014  -10.0756   12.6115 C   0  0  0  0  0  0  0  0  0  0  0  0
   16.3387  -10.4068   13.3564 O   0  0  0  0  0  0  0  0  0  0  0  0
   19.3601   -9.7261   12.5609 H   0  0  0  0  0  0  0  0  0  0  0  0
   17.0664   -9.8500   11.1694 C   0  0  0  0  0  0  0  0  0  0  0  0
   15.8286  -10.1931   10.5868 C   0  0  0  0  0  0  0  0  0  0  0  0
   15.5969   -9.9856    9.2528 N   0  0  0  0  0  0  0  0  0  0  0  0
   16.5401   -9.4420    8.4296 C   0  0  0  0  0  0  0  0  0  0  0  0
   17.7695   -9.0951    8.9834 C   0  0  0  0  0  0  0  0  0  0  0  0
   18.0230   -9.2930   10.3098 C   0  0  0  0  0  0  0  0  0  0  0  0
   19.3136   -8.8413   10.5212 C   0  0  0  0  0  0  0  0  0  0  0  0
   19.7863   -8.3937    9.3313 N   0  0  0  0  0  0  0  0  0  0  0  0
   18.8520   -8.5468    8.3982 N   0  0  0  0  0  0  0  0  0  0  0  0
   19.0368   -8.1657    7.0211 C   0  0  0  0  0  0  0  0  0  0  0  0
   18.2779   -8.7492    5.9937 C   0  0  0  0  0  0  0  0  0  0  0  0
   18.4694   -8.3672    4.6630 C   0  0  0  0  0  0  0  0  0  0  0  0
   19.4227   -7.3970    4.3456 C   0  0  0  0  0  0  0  0  0  0  0  0
   20.1845   -6.8096    5.3584 C   0  0  0  0  0  0  0  0  0  0  0  0
   19.9919   -7.1921    6.6890 C   0  0  0  0  0  0  0  0  0  0  0  0
   19.6084   -7.0258    3.0564 F   0  0  0  0  0  0  0  0  0  0  0  0
   18.8876  -10.0623   14.5916 C   0  0  0  0  0  0  0  0  0  0  0  0
   15.6772   -8.3684   16.8800 C   0  0  0  0  0  0  0  0  0  0  0  0
   16.1335   -7.7210   15.7266 C   0  0  0  0  0  0  0  0  0  0  0  0
   17.1823   -8.2698   14.9831 C   0  0  0  0  0  0  0  0  0  0  0  0
   17.7801   -9.4668   15.3927 C   0  0  0  0  0  0  0  0  0  0  0  0
   17.3229  -10.1159   16.5443 C   0  0  0  0  0  0  0  0  0  0  0  0
   16.2739   -9.5670   17.2876 C   0  0  0  0  0  0  0  0  0  0  0  0
   14.3617   -7.6698   17.8103 S   0  0  0  0  0  0  0  0  0  0  0  0
   13.6058   -6.7032   16.9432 O   0  0  0  0  0  0  0  0  0  0  0  0
   13.4213   -8.7534   18.2621 O   0  0  0  0  0  0  0  0  0  0  0  0
   14.8856   -7.7261   20.3349 C   0  0  0  0  0  0  0  0  0  0  0  0
   14.9880   -6.8342   19.1920 N   0  0  0  0  0  0  0  0  0  0  0  0
   15.9640   -6.5841   19.0334 H   0  0  0  0  0  0  0  0  0  0  0  0
 31 32  1  0  0  0
 32 28  1  0  0  0
 28 29  2  0  0  0
 28 30  2  0  0  0
 28 22  1  0  0  0
 22 23  2  0  0  0
 23 24  1  0  0  0
 24 25  2  0  0  0
 25 26  1  0  0  0
 25 21  1  0  0  0
 26 27  2  0  0  0
 27 22  1  0  0  0
 21  1  1  0  0  0
  1  2  1  0  0  0
  2  3  2  0  0  0
  2  5  1  0  0  0
  5  6  2  0  0  0
  6  7  1  0  0  0
  7  8  2  0  0  0
  8  9  1  0  0  0
  9 10  2  0  0  0
 10 11  1  0  0  0
 10  5  1  0  0  0
 11 12  2  0  0  0
 12 13  1  0  0  0
 13 14  1  0  0  0
 13  9  1  0  0  0
 14 15  2  0  0  0
 15 16  1  0  0  0
 16 17  2  0  0  0
 17 18  1  0  0  0
 17 20  1  0  0  0
 18 19  2  0  0  0
 19 14  1  0  0  0
 32 33  1  0  0  0
  1  4  1  0  0  0
M  END
>  <minimizedAffinity>
-6.06741

>  <minimizedRMSD>
1.79944

$$$$
CHEMBL1884010 8583001 LN01059960 MCULE-3663123971 MolPort-004-901-648 PubChem-16033913 ZINC000008583001


 32 35  0  0  0  0  0  0  0  0999 V2000
   19.0497   -8.0391    7.4511 N   0  0  0  0  0  0  0  0  0  0  0  0
   19.8083   -7.4749    8.3882 N   0  0  0  0  0  0  0  0  0  0  0  0
   19.3611   -7.8438    9.6186 C   0  0  0  0  0  0  0  0  0  0  0  0
   18.2765   -8.6741    9.4168 C   0  0  0  0  0  0  0  0  0  0  0  0
   17.4194   -9.3486   10.2742 C   0  0  0  0  0  0  0  0  0  0  0  0
   16.4234  -10.1004    9.7142 N   0  0  0  0  0  0  0  0  0  0  0  0
   16.2751  -10.1868    8.3533 C   0  0  0  0  0  0  0  0  0  0  0  0
   17.1259   -9.5177    7.5180 N   0  0  0  0  0  0  0  0  0  0  0  0
   18.1125   -8.7726    8.0754 C   0  0  0  0  0  0  0  0  0  0  0  0
   19.2507   -7.8549    6.0381 C   0  0  0  0  0  0  0  0  0  0  0  0
   20.2924   -7.0330    5.5813 C   0  0  0  0  0  0  0  0  0  0  0  0
   20.4997   -6.8446    4.2118 C   0  0  0  0  0  0  0  0  0  0  0  0
   19.6667   -7.4770    3.2856 C   0  0  0  0  0  0  0  0  0  0  0  0
   18.6265   -8.2975    3.7286 C   0  0  0  0  0  0  0  0  0  0  0  0
   18.4196   -8.4854    5.0981 C   0  0  0  0  0  0  0  0  0  0  0  0
   19.8870   -7.2768    1.8297 C   0  0  0  0  0  0  0  0  0  0  0  0
   17.5728   -9.2554   11.6908 N   0  0  0  0  0  0  0  0  0  0  0  0
   17.7261   -8.3718   12.0969 H   0  0  0  0  0  0  0  0  0  0  0  0
   17.5093  -10.4254   12.5520 C   0  0  0  0  0  0  0  0  0  0  0  0
   18.2676  -10.1579   13.8469 C   0  0  0  0  0  0  0  0  0  0  0  0
   17.4316   -9.5526   14.9401 C   0  0  0  0  0  0  0  0  0  0  0  0
   17.5614  -10.0662   16.2349 C   0  0  0  0  0  0  0  0  0  0  0  0
   16.8029   -9.5399   17.2845 C   0  0  0  0  0  0  0  0  0  0  0  0
   15.9069   -8.4927   17.0466 C   0  0  0  0  0  0  0  0  0  0  0  0
   15.7663   -7.9789   15.7536 C   0  0  0  0  0  0  0  0  0  0  0  0
   16.5246   -8.5056   14.7046 C   0  0  0  0  0  0  0  0  0  0  0  0
   14.9479   -7.8393   18.3617 S   0  0  0  0  0  0  0  0  0  0  0  0
   15.9908   -7.2297   19.5973 N   0  0  0  0  0  0  0  0  0  0  0  0
   14.0735   -8.9195   18.9321 O   0  0  0  0  0  0  0  0  0  0  0  0
   14.0906   -6.7147   17.8529 O   0  0  0  0  0  0  0  0  0  0  0  0
   16.5779   -7.9854   19.9502 H   0  0  0  0  0  0  0  0  0  0  0  0
   15.4292   -6.8510   20.3599 H   0  0  0  0  0  0  0  0  0  0  0  0
  1 10  1  0  0  0
 10 11  2  0  0  0
 11 12  1  0  0  0
 12 13  2  0  0  0
 13 14  1  0  0  0
 14 15  2  0  0  0
 13 16  1  0  0  0
  1  2  1  0  0  0
  2  3  2  0  0  0
  3  4  1  0  0  0
  4  5  2  0  0  0
  5 17  1  0  0  0
 17 19  1  0  0  0
 19 20  1  0  0  0
 20 21  1  0  0  0
 21 22  2  0  0  0
 22 23  1  0  0  0
 23 24  2  0  0  0
 24 25  1  0  0  0
 25 26  2  0  0  0
 24 27  1  0  0  0
 27 28  1  0  0  0
 27 29  2  0  0  0
 27 30  2  0  0  0
  5  6  1  0  0  0
  6  7  2  0  0  0
  7  8  1  0  0  0
  8  9  2  0  0  0
  9  1  1  0  0  0
 15 10  1  0  0  0
  9  4  1  0  0  0
 26 21  1  0  0  0
 17 18  1  0  0  0
 28 31  1  0  0  0
 28 32  1  0  0  0
M  END
>  <minimizedAffinity>
-7.58761

>  <minimizedRMSD>
1.80047

$$$$
CHEMBL3234587 PubChem-136046122


 33 36  0  0  0  0  0  0  0  0999 V2000
   20.4293   -7.8534   10.4026 C   0  0  0  0  0  0  0  0  0  0  0  0
   19.4127   -7.3103    9.5104 N   0  0  0  0  0  0  0  0  0  0  0  0
   19.2094   -6.3516    9.6039 H   0  0  0  0  0  0  0  0  0  0  0  0
   18.6738   -8.0336    8.5042 C   0  0  0  0  0  0  0  0  0  0  0  0
   17.5720   -8.8079    8.9188 C   0  0  0  0  0  0  0  0  0  0  0  0
   16.8275   -9.5340    7.9632 C   0  0  0  0  0  0  0  0  0  0  0  0
   17.1840   -9.4951    6.6548 N   0  0  0  0  0  0  0  0  0  0  0  0
   18.2245   -8.7472    6.2124 C   0  0  0  0  0  0  0  0  0  0  0  0
   18.9979   -7.9885    7.1240 C   0  0  0  0  0  0  0  0  0  0  0  0
   20.0449   -7.2002    6.6201 C   0  0  0  0  0  0  0  0  0  0  0  0
   20.3343   -7.1797    5.2537 C   0  0  0  0  0  0  0  0  0  0  0  0
   19.5747   -7.9456    4.3675 C   0  0  0  0  0  0  0  0  0  0  0  0
   18.5210   -8.7263    4.8461 C   0  0  0  0  0  0  0  0  0  0  0  0
   15.7070  -10.4517    8.3692 C   0  0  0  0  0  0  0  0  0  0  0  0
   15.1393  -10.1112    9.7434 C   0  0  0  0  0  0  0  0  0  0  0  0
   16.2769   -9.9774   10.7421 C   0  0  0  0  0  0  0  0  0  0  0  0
   17.1364   -8.7772   10.3639 C   0  0  0  0  0  0  0  0  0  0  0  0
   20.2204   -9.3466   10.5907 C   0  0  0  0  0  0  0  0  0  0  0  0
   19.4562   -9.6142   11.8743 C   0  0  0  0  0  0  0  0  0  0  0  0
   19.5207  -11.0924   12.2283 C   0  0  0  0  0  0  0  0  0  0  0  0
   18.1459  -11.6147   12.6270 C   0  0  0  0  0  0  0  0  0  0  0  0
   17.8777  -11.3666   14.0753 C   0  0  0  0  0  0  0  0  0  0  0  0
   18.2727  -12.2984   15.0386 C   0  0  0  0  0  0  0  0  0  0  0  0
   18.0024  -12.0438   16.3828 C   0  0  0  0  0  0  0  0  0  0  0  0
   17.3405  -10.8714   16.7557 C   0  0  0  0  0  0  0  0  0  0  0  0
   16.9534   -9.9516   15.7571 C   0  0  0  0  0  0  0  0  0  0  0  0
   17.2336  -10.2307   14.4551 N   0  0  0  0  0  0  0  0  0  0  0  0
   17.0787  -10.6439   18.1019 O   0  0  0  0  0  0  0  0  0  0  0  0
   17.3469  -11.2715   18.7440 H   0  0  0  0  0  0  0  0  0  0  0  0
   16.2414   -8.6951   16.0497 C   0  0  0  0  0  0  0  0  0  0  0  0
   15.6159   -8.4929   17.1621 N   0  0  0  0  0  0  0  0  0  0  0  0
   14.9609   -7.3046   17.3776 O   0  0  0  0  0  0  0  0  0  0  0  0
   14.5076   -7.1592   18.1847 H   0  0  0  0  0  0  0  0  0  0  0  0
  4  5  2  0  0  0
  5  6  1  0  0  0
  6  7  2  0  0  0
  7  8  1  0  0  0
  8  9  2  0  0  0
  9 10  1  0  0  0
 10 11  2  0  0  0
 11 12  1  0  0  0
 12 13  2  0  0  0
  6 14  1  0  0  0
 14 15  1  0  0  0
 15 16  1  0  0  0
 16 17  1  0  0  0
  4  2  1  0  0  0
  2  1  1  0  0  0
  1 18  1  0  0  0
 18 19  1  0  0  0
 19 20  1  0  0  0
 20 21  1  0  0  0
 21 22  1  0  0  0
 22 23  2  0  0  0
 23 24  1  0  0  0
 24 25  2  0  0  0
 25 26  1  0  0  0
 26 27  2  0  0  0
 26 30  1  0  0  0
 30 31  2  0  0  0
 31 32  1  0  0  0
 25 28  1  0  0  0
  9  4  1  0  0  0
 27 22  1  0  0  0
 17  5  1  0  0  0
 13  8  1  0  0  0
  2  3  1  0  0  0
 32 33  1  0  0  0
 28 29  1  0  0  0
M  END
>  <minimizedAffinity>
-1.11766

>  <minimizedRMSD>
1.80390

$$$$
CHEMBL3920398 PubChem-89743527


 32 35  0  0  0  0  0  0  0  0999 V2000
   17.9183  -12.9773   15.3711 C   0  0  0  0  0  0  0  0  0  0  0  0
   17.9018  -11.5590   15.0436 N   0  0  0  0  0  0  0  0  0  0  0  0
   17.1323  -10.6324   15.8411 C   0  0  0  0  0  0  0  0  0  0  0  0
   17.3998  -10.4743   17.2098 C   0  0  0  0  0  0  0  0  0  0  0  0
   16.6441   -9.5752   17.9626 C   0  0  0  0  0  0  0  0  0  0  0  0
   15.6280   -8.8393   17.3521 C   0  0  0  0  0  0  0  0  0  0  0  0
   15.3848   -9.0175   15.9889 C   0  0  0  0  0  0  0  0  0  0  0  0
   16.1326   -9.8985   15.2727 N   0  0  0  0  0  0  0  0  0  0  0  0
   14.6689   -7.7100   18.2939 S   0  0  0  0  0  0  0  0  0  0  0  0
   15.5261   -7.1204   19.3779 O   0  0  0  0  0  0  0  0  0  0  0  0
   14.1694   -6.6004   17.4099 O   0  0  0  0  0  0  0  0  0  0  0  0
   13.3202   -8.5281   19.0084 N   0  0  0  0  0  0  0  0  0  0  0  0
   13.4896   -8.6731   20.0037 H   0  0  0  0  0  0  0  0  0  0  0  0
   12.1463   -7.6920   18.8231 C   0  0  0  0  0  0  0  0  0  0  0  0
   10.9475   -8.5655   18.5219 C   0  0  0  0  0  0  0  0  0  0  0  0
   10.3871   -8.1810   17.3050 O   0  0  0  0  0  0  0  0  0  0  0  0
   10.1070   -7.2538   17.3566 H   0  0  0  0  0  0  0  0  0  0  0  0
   18.6911  -11.1458   13.8831 C   0  0  0  0  0  0  0  0  0  0  0  0
   19.1763   -9.7071   14.0168 C   0  0  0  0  0  0  0  0  0  0  0  0
   18.9035   -9.0399   12.6817 C   0  0  0  0  0  0  0  0  0  0  0  0
   18.0926   -9.9721   11.9196 N   0  0  0  0  0  0  0  0  0  0  0  0
   17.8875  -11.2361   12.5982 C   0  0  0  0  0  0  0  0  0  0  0  0
   17.5337   -9.7010   10.6221 C   0  0  0  0  0  0  0  0  0  0  0  0
   16.3311  -10.2488   10.2696 N   0  0  0  0  0  0  0  0  0  0  0  0
   15.7631  -10.0156    9.0460 C   0  0  0  0  0  0  0  0  0  0  0  0
   16.3902   -9.2181    8.1334 N   0  0  0  0  0  0  0  0  0  0  0  0
   17.5811   -8.6671    8.4683 C   0  0  0  0  0  0  0  0  0  0  0  0
   18.3163   -7.8659    7.6867 N   0  0  0  0  0  0  0  0  0  0  0  0
   19.4051   -7.5707    8.4393 C   0  0  0  0  0  0  0  0  0  0  0  0
   19.3531   -8.1864    9.6922 C   0  0  0  0  0  0  0  0  0  0  0  0
   18.1657   -8.8843    9.6763 C   0  0  0  0  0  0  0  0  0  0  0  0
   18.1126   -7.5606    6.7732 H   0  0  0  0  0  0  0  0  0  0  0  0
  1  2  1  0  0  0
 18  2  1  0  0  0
 18 19  1  0  0  0
 19 20  1  0  0  0
 20 21  1  0  0  0
 21 22  1  0  0  0
 21 23  1  0  0  0
 23 24  2  0  0  0
 24 25  1  0  0  0
 25 26  2  0  0  0
 26 27  1  0  0  0
 27 28  1  0  0  0
 28 29  1  0  0  0
 29 30  2  0  0  0
 30 31  1  0  0  0
  2  3  1  0  0  0
  3  4  2  0  0  0
  4  5  1  0  0  0
  5  6  2  0  0  0
  6  7  1  0  0  0
  7  8  2  0  0  0
  6  9  1  0  0  0
  9 10  2  0  0  0
  9 11  2  0  0  0
  9 12  1  0  0  0
 12 14  1  0  0  0
 14 15  1  0  0  0
 15 16  1  0  0  0
 22 18  1  0  0  0
 31 23  1  0  0  0
  8  3  1  0  0  0
 31 27  2  0  0  0
 28 32  1  0  0  0
 12 13  1  0  0  0
 16 17  1  0  0  0
M  END
>  <minimizedAffinity>
-3.37117

>  <minimizedRMSD>
1.80621

$$$$
CHEMBL3948216 PubChem-89743528


 33 36  0  0  0  0  0  0  0  0999 V2000
   17.9229  -11.5155   15.0339 N   0  0  0  0  0  0  0  0  0  0  0  0
   17.9850  -12.9242   15.3907 C   0  0  0  0  0  0  0  0  0  0  0  0
   15.6058   -8.8993   17.4188 C   0  0  0  0  0  0  0  0  0  0  0  0
   15.4120   -8.9145   16.0372 C   0  0  0  0  0  0  0  0  0  0  0  0
   16.1691   -9.7721   15.2396 C   0  0  0  0  0  0  0  0  0  0  0  0
   17.1227  -10.6151   15.8312 C   0  0  0  0  0  0  0  0  0  0  0  0
   17.2893  -10.5766   17.1849 N   0  0  0  0  0  0  0  0  0  0  0  0
   16.5614   -9.7478   17.9803 C   0  0  0  0  0  0  0  0  0  0  0  0
   14.6718   -7.8227   18.4439 S   0  0  0  0  0  0  0  0  0  0  0  0
   13.2096   -8.1195   18.2677 O   0  0  0  0  0  0  0  0  0  0  0  0
   14.9292   -6.3926   18.0553 O   0  0  0  0  0  0  0  0  0  0  0  0
   15.1109   -8.0574   20.1021 N   0  0  0  0  0  0  0  0  0  0  0  0
   14.2713   -8.1451   20.6746 H   0  0  0  0  0  0  0  0  0  0  0  0
   15.8808   -6.8954   20.5252 C   0  0  0  0  0  0  0  0  0  0  0  0
   17.0116   -6.4414   22.7118 C   0  0  0  0  0  0  0  0  0  0  0  0
   15.6790   -6.6207   22.0088 C   0  0  0  0  0  0  0  0  0  0  0  0
   14.9629   -7.6602   22.6035 O   0  0  0  0  0  0  0  0  0  0  0  0
   15.4638   -8.4867   22.5208 H   0  0  0  0  0  0  0  0  0  0  0  0
   18.6961  -11.1044   13.8601 C   0  0  0  0  0  0  0  0  0  0  0  0
   19.1923   -9.6688   13.9818 C   0  0  0  0  0  0  0  0  0  0  0  0
   18.9368   -9.0184   12.6348 C   0  0  0  0  0  0  0  0  0  0  0  0
   18.1071   -9.9462   11.8869 N   0  0  0  0  0  0  0  0  0  0  0  0
   17.8792  -11.1961   12.5842 C   0  0  0  0  0  0  0  0  0  0  0  0
   17.5515   -9.6834   10.5862 C   0  0  0  0  0  0  0  0  0  0  0  0
   16.3534  -10.2396   10.2315 N   0  0  0  0  0  0  0  0  0  0  0  0
   15.7881  -10.0132    9.0054 C   0  0  0  0  0  0  0  0  0  0  0  0
   16.4136   -9.2152    8.0923 N   0  0  0  0  0  0  0  0  0  0  0  0
   17.6005   -8.6568    8.4290 C   0  0  0  0  0  0  0  0  0  0  0  0
   18.3332   -7.8532    7.6475 N   0  0  0  0  0  0  0  0  0  0  0  0
   19.4174   -7.5488    8.4030 C   0  0  0  0  0  0  0  0  0  0  0  0
   19.3650   -8.1608    9.6577 C   0  0  0  0  0  0  0  0  0  0  0  0
   18.1821   -8.8664    9.6398 C   0  0  0  0  0  0  0  0  0  0  0  0
   18.1308   -7.5519    6.7324 H   0  0  0  0  0  0  0  0  0  0  0  0
 16 15  1  0  0  0
 16 17  1  0  0  0
 16 14  1  0  0  0
 14 12  1  0  0  0
 12  9  1  0  0  0
  9 10  2  0  0  0
  9 11  2  0  0  0
  9  3  1  0  0  0
  3  4  2  0  0  0
  4  5  1  0  0  0
  5  6  2  0  0  0
  6  7  1  0  0  0
  7  8  2  0  0  0
  6  1  1  0  0  0
  1  2  1  0  0  0
 19  1  1  0  0  0
 19 20  1  0  0  0
 20 21  1  0  0  0
 21 22  1  0  0  0
 22 23  1  0  0  0
 22 24  1  0  0  0
 24 25  2  0  0  0
 25 26  1  0  0  0
 26 27  2  0  0  0
 27 28  1  0  0  0
 28 29  1  0  0  0
 29 30  1  0  0  0
 30 31  2  0  0  0
 31 32  1  0  0  0
  8  3  1  0  0  0
 23 19  1  0  0  0
 32 24  1  0  0  0
 32 28  2  0  0  0
 17 18  1  0  0  0
 12 13  1  0  0  0
 29 33  1  0  0  0
M  END
>  <minimizedAffinity>
-2.99065

>  <minimizedRMSD>
1.80636

$$$$
CHEMBL272252 PubChem-24823095


 28 31  0  0  0  0  0  0  0  0999 V2000
   18.1687  -12.3959   13.8994 C   0  0  0  0  0  0  0  0  0  0  0  0
   18.5684  -12.4691   15.2317 C   0  0  0  0  0  0  0  0  0  0  0  0
   18.2861  -11.4191   16.1055 C   0  0  0  0  0  0  0  0  0  0  0  0
   17.5996  -10.2733   15.6727 C   0  0  0  0  0  0  0  0  0  0  0  0
   17.1915  -10.1977   14.3134 C   0  0  0  0  0  0  0  0  0  0  0  0
   17.4854  -11.2726   13.4350 C   0  0  0  0  0  0  0  0  0  0  0  0
   17.0934  -11.2169   12.0958 C   0  0  0  0  0  0  0  0  0  0  0  0
   16.4117  -10.0961   11.5991 C   0  0  0  0  0  0  0  0  0  0  0  0
   16.1115   -9.0395   12.4613 C   0  0  0  0  0  0  0  0  0  0  0  0
   16.4988   -9.0885   13.8025 C   0  0  0  0  0  0  0  0  0  0  0  0
   17.3422   -9.2037   16.6739 C   0  0  0  0  0  0  0  0  0  0  0  0
   16.1766   -8.9505   17.0772 O   0  0  0  0  0  0  0  0  0  0  0  0
   18.4265   -8.4402   17.1968 N   0  0  0  0  0  0  0  0  0  0  0  0
   19.3462   -8.6209   16.8956 H   0  0  0  0  0  0  0  0  0  0  0  0
   18.2556   -7.7321   17.8591 H   0  0  0  0  0  0  0  0  0  0  0  0
   15.9969  -10.0184   10.2630 O   0  0  0  0  0  0  0  0  0  0  0  0
   16.6577   -9.2817    9.2705 C   0  0  0  0  0  0  0  0  0  0  0  0
   15.9316   -8.8784    8.1474 C   0  0  0  0  0  0  0  0  0  0  0  0
   16.5596   -8.1458    7.1387 C   0  0  0  0  0  0  0  0  0  0  0  0
   17.8729   -7.8137    7.2496 N   0  0  0  0  0  0  0  0  0  0  0  0
   18.6080   -8.1693    8.3359 C   0  0  0  0  0  0  0  0  0  0  0  0
   18.0125   -8.9090    9.3838 C   0  0  0  0  0  0  0  0  0  0  0  0
   18.7729   -9.2241   10.5179 C   0  0  0  0  0  0  0  0  0  0  0  0
   20.1122   -8.8357   10.5989 C   0  0  0  0  0  0  0  0  0  0  0  0
   20.7092   -8.1192    9.5492 C   0  0  0  0  0  0  0  0  0  0  0  0
   19.9493   -7.7865    8.4235 C   0  0  0  0  0  0  0  0  0  0  0  0
   22.0483   -7.7231    9.6014 O   0  0  0  0  0  0  0  0  0  0  0  0
   23.0869   -8.5843   10.0476 C   0  0  0  0  0  0  0  0  0  0  0  0
  1  2  2  0  0  0
  2  3  1  0  0  0
  3  4  2  0  0  0
  4  5  1  0  0  0
  5  6  2  0  0  0
  6  7  1  0  0  0
  7  8  2  0  0  0
  8  9  1  0  0  0
  9 10  2  0  0  0
  8 16  1  0  0  0
 16 17  1  0  0  0
 17 18  2  0  0  0
 18 19  1  0  0  0
 19 20  2  0  0  0
 20 21  1  0  0  0
 21 22  2  0  0  0
 22 23  1  0  0  0
 23 24  2  0  0  0
 24 25  1  0  0  0
 25 26  2  0  0  0
 25 27  1  0  0  0
 27 28  1  0  0  0
  4 11  1  0  0  0
 11 12  2  0  0  0
 11 13  1  0  0  0
  6  1  1  0  0  0
 22 17  1  0  0  0
 10  5  1  0  0  0
 26 21  1  0  0  0
 13 14  1  0  0  0
 13 15  1  0  0  0
M  END
>  <minimizedAffinity>
1.42685

>  <minimizedRMSD>
1.81394

$$$$
CHEMBL1727206 919760 MCULE-3119644727 MolPort-000-039-771 PubChem-1165925 ZINC000000919760 ZINC00919760


 32 35  0  0  0  0  0  0  0  0999 V2000
   18.0200   -9.0092   15.7331 S   0  0  0  0  0  0  0  0  0  0  0  0
   17.4486   -9.6268   14.1528 C   0  0  0  0  0  0  0  0  0  0  0  0
   17.9739  -10.6994   13.5313 N   0  0  0  0  0  0  0  0  0  0  0  0
   17.3080  -10.8493   12.3934 N   0  0  0  0  0  0  0  0  0  0  0  0
   16.3893   -9.8657   12.3445 C   0  0  0  0  0  0  0  0  0  0  0  0
   16.4557   -9.0809   13.4325 N   0  0  0  0  0  0  0  0  0  0  0  0
   15.6488   -7.9129   13.7532 C   0  0  0  0  0  0  0  0  0  0  0  0
   15.4575   -9.6504   11.1962 C   0  0  0  0  0  0  0  0  0  0  0  0
   16.1858   -9.7442    9.9394 N   0  0  0  0  0  0  0  0  0  0  0  0
   15.9484  -10.6450    8.9917 N   0  0  0  0  0  0  0  0  0  0  0  0
   16.8294  -10.5324    7.9977 N   0  0  0  0  0  0  0  0  0  0  0  0
   17.6507   -9.5262    8.3498 C   0  0  0  0  0  0  0  0  0  0  0  0
   18.7546   -9.0229    7.6707 C   0  0  0  0  0  0  0  0  0  0  0  0
   19.4599   -7.9688    8.2887 C   0  0  0  0  0  0  0  0  0  0  0  0
   19.0479   -7.4609    9.5455 C   0  0  0  0  0  0  0  0  0  0  0  0
   17.9250   -7.9986   10.2035 C   0  0  0  0  0  0  0  0  0  0  0  0
   17.2561   -9.0362    9.5559 C   0  0  0  0  0  0  0  0  0  0  0  0
   16.5683   -9.6753   16.5953 C   0  0  0  0  0  0  0  0  0  0  0  0
   15.6193   -8.6424   18.6913 N   0  0  0  0  0  0  0  0  0  0  0  0
   15.8366   -8.5763   17.2759 C   0  0  0  0  0  0  0  0  0  0  0  0
   15.4443   -7.5889   16.6004 O   0  0  0  0  0  0  0  0  0  0  0  0
   16.0382   -9.3941   19.1693 H   0  0  0  0  0  0  0  0  0  0  0  0
   13.5949   -5.6433   19.7065 C   0  0  0  0  0  0  0  0  0  0  0  0
   13.3522   -5.9438   21.0540 C   0  0  0  0  0  0  0  0  0  0  0  0
   13.8486   -7.1237   21.6117 C   0  0  0  0  0  0  0  0  0  0  0  0
   14.5978   -8.0203   20.8311 C   0  0  0  0  0  0  0  0  0  0  0  0
   14.8511   -7.7210   19.4817 C   0  0  0  0  0  0  0  0  0  0  0  0
   14.3419   -6.5343   18.9308 C   0  0  0  0  0  0  0  0  0  0  0  0
   13.1112   -3.2191   19.7863 C   0  0  0  0  0  0  0  0  0  0  0  0
   13.1112   -4.4719   19.1163 O   0  0  0  0  0  0  0  0  0  0  0  0
   15.1020   -9.2073   21.3764 O   0  0  0  0  0  0  0  0  0  0  0  0
   14.7950   -9.6415   22.6934 C   0  0  0  0  0  0  0  0  0  0  0  0
 29 30  1  0  0  0
 30 23  1  0  0  0
 23 24  2  0  0  0
 24 25  1  0  0  0
 25 26  2  0  0  0
 26 31  1  0  0  0
 31 32  1  0  0  0
 26 27  1  0  0  0
 27 19  1  0  0  0
 19 20  1  0  0  0
 20 21  2  0  0  0
 20 18  1  0  0  0
 18  1  1  0  0  0
  1  2  1  0  0  0
  2  3  2  0  0  0
  3  4  1  0  0  0
  4  5  2  0  0  0
  5  8  1  0  0  0
  8  9  1  0  0  0
  9 10  1  0  0  0
 10 11  2  0  0  0
 11 12  1  0  0  0
 12 13  2  0  0  0
 13 14  1  0  0  0
 14 15  2  0  0  0
 15 16  1  0  0  0
 16 17  2  0  0  0
  5  6  1  0  0  0
  6  7  1  0  0  0
 27 28  2  0  0  0
 28 23  1  0  0  0
  6  2  1  0  0  0
 17  9  1  0  0  0
 17 12  1  0  0  0
 19 22  1  0  0  0
M  END
>  <minimizedAffinity>
0.02809

>  <minimizedRMSD>
1.81861

$$$$
CHEMBL3971140 PubChem-134153891


 38 42  0  0  0  0  0  0  0  0999 V2000
   16.4435   -9.7100   14.5693 C   0  0  0  0  0  0  0  0  0  0  0  0
   17.1551  -10.7823   15.1413 C   0  0  0  0  0  0  0  0  0  0  0  0
   17.2777  -10.8742   16.5304 C   0  0  0  0  0  0  0  0  0  0  0  0
   16.6966   -9.9072   17.3549 C   0  0  0  0  0  0  0  0  0  0  0  0
   15.9718   -8.8454   16.7979 C   0  0  0  0  0  0  0  0  0  0  0  0
   15.8410   -8.7624   15.4047 C   0  0  0  0  0  0  0  0  0  0  0  0
   17.6867  -11.7631   14.3688 F   0  0  0  0  0  0  0  0  0  0  0  0
   17.3389   -9.6581   12.1889 C   0  0  0  0  0  0  0  0  0  0  0  0
   18.5411   -9.5908   12.5603 O   0  0  0  0  0  0  0  0  0  0  0  0
   16.2796   -9.5782   13.1518 N   0  0  0  0  0  0  0  0  0  0  0  0
   15.3689   -9.4206   12.8127 H   0  0  0  0  0  0  0  0  0  0  0  0
   17.0070   -9.5342    8.6329 C   0  0  0  0  0  0  0  0  0  0  0  0
   17.3925   -9.0582    7.3824 C   0  0  0  0  0  0  0  0  0  0  0  0
   18.4677   -8.1567    7.3391 C   0  0  0  0  0  0  0  0  0  0  0  0
   19.1189   -7.7614    8.5224 C   0  0  0  0  0  0  0  0  0  0  0  0
   18.6848   -8.2742    9.7523 C   0  0  0  0  0  0  0  0  0  0  0  0
   17.6414   -9.1434    9.7494 N   0  0  0  0  0  0  0  0  0  0  0  0
   17.0144   -9.7726   10.7572 C   0  0  0  0  0  0  0  0  0  0  0  0
   15.9965  -10.5476   10.2157 C   0  0  0  0  0  0  0  0  0  0  0  0
   15.9969  -10.3933    8.8680 N   0  0  0  0  0  0  0  0  0  0  0  0
   15.3779   -7.8147   17.6670 C   0  0  0  0  0  0  0  0  0  0  0  0
   14.3001   -7.2505   17.3318 O   0  0  0  0  0  0  0  0  0  0  0  0
   16.0324   -7.4380   18.8808 N   0  0  0  0  0  0  0  0  0  0  0  0
   16.8356   -7.9321   19.1637 H   0  0  0  0  0  0  0  0  0  0  0  0
   15.5471   -6.3470   19.7097 C   0  0  0  0  0  0  0  0  0  0  0  0
   15.3509   -6.8260   21.1096 C   0  0  0  0  0  0  0  0  0  0  0  0
   14.1307   -7.3997   21.5517 C   0  0  0  0  0  0  0  0  0  0  0  0
   14.0622   -7.9069   22.8618 C   0  0  0  0  0  0  0  0  0  0  0  0
   15.1634   -7.8390   23.7184 C   0  0  0  0  0  0  0  0  0  0  0  0
   16.3561   -7.2665   23.2769 C   0  0  0  0  0  0  0  0  0  0  0  0
   16.4496   -6.7680   21.9770 C   0  0  0  0  0  0  0  0  0  0  0  0
   12.9679   -7.4822   20.6996 N   0  0  0  0  0  0  0  0  0  0  0  0
   12.1935   -6.2809   20.3840 C   0  0  0  0  0  0  0  0  0  0  0  0
   11.5525   -6.4351   19.0072 C   0  0  0  0  0  0  0  0  0  0  0  0
   10.7426   -7.6500   18.9832 N   0  0  0  0  0  0  0  0  0  0  0  0
   11.6419   -8.7950   19.1078 C   0  0  0  0  0  0  0  0  0  0  0  0
   12.3209   -8.7782   20.4766 C   0  0  0  0  0  0  0  0  0  0  0  0
   10.1356   -7.7301   17.6661 C   0  0  0  0  0  0  0  0  0  0  0  0
 12 13  1  0  0  0
 13 14  2  0  0  0
 14 15  1  0  0  0
 15 16  2  0  0  0
 16 17  1  0  0  0
 17 18  1  0  0  0
 18 19  2  0  0  0
 19 20  1  0  0  0
 18  8  1  0  0  0
  8  9  2  0  0  0
  8 10  1  0  0  0
 10  1  1  0  0  0
  1  2  2  0  0  0
  2  3  1  0  0  0
  3  4  2  0  0  0
  4  5  1  0  0  0
  5  6  2  0  0  0
  5 21  1  0  0  0
 21 22  2  0  0  0
 21 23  1  0  0  0
 23 25  1  0  0  0
 25 26  1  0  0  0
 26 27  1  0  0  0
 27 28  2  0  0  0
 28 29  1  0  0  0
 29 30  2  0  0  0
 30 31  1  0  0  0
 27 32  1  0  0  0
 32 33  1  0  0  0
 33 34  1  0  0  0
 34 35  1  0  0  0
 35 36  1  0  0  0
 36 37  1  0  0  0
 35 38  1  0  0  0
  2  7  1  0  0  0
 17 12  1  0  0  0
  6  1  1  0  0  0
 31 26  2  0  0  0
 37 32  1  0  0  0
 20 12  2  0  0  0
 10 11  1  0  0  0
 23 24  1  0  0  0
M  END
>  <minimizedAffinity>
-8.39739

>  <minimizedRMSD>
1.81998

$$$$
CHEMBL4878231 CHEMBL5029046 PubChem-164628301 PubChem-164628302


 34 36  0  0  0  0  0  0  0  0999 V2000
   15.2850   -9.9307   12.6293 C   0  0  0  0  0  0  0  0  0  0  0  0
   14.9557   -8.7531   11.6951 C   0  0  0  0  0  0  0  0  0  0  0  0
   16.2204   -8.1374   11.0973 C   0  0  0  0  0  0  0  0  0  0  0  0
   17.0095   -9.1795   10.4479 N   0  0  0  0  0  0  0  0  0  0  0  0
   17.3907  -10.3278   11.2637 C   0  0  0  0  0  0  0  0  0  0  0  0
   16.1385  -10.9619   11.8705 C   0  0  0  0  0  0  0  0  0  0  0  0
   14.0387  -10.5683   13.0132 N   0  0  0  0  0  0  0  0  0  0  0  0
   13.4567   -9.9004   13.5187 H   0  0  0  0  0  0  0  0  0  0  0  0
   14.2370  -11.3689   13.6133 H   0  0  0  0  0  0  0  0  0  0  0  0
   17.3966   -9.1183    9.0606 C   0  0  0  0  0  0  0  0  0  0  0  0
   16.6813   -9.8120    8.1230 N   0  0  0  0  0  0  0  0  0  0  0  0
   17.0107   -9.7831    6.7948 C   0  0  0  0  0  0  0  0  0  0  0  0
   18.0772   -9.0503    6.3629 N   0  0  0  0  0  0  0  0  0  0  0  0
   18.7965   -8.3572    7.2771 C   0  0  0  0  0  0  0  0  0  0  0  0
   18.4898   -8.3697    8.6021 C   0  0  0  0  0  0  0  0  0  0  0  0
   19.4092   -7.5691    9.2442 C   0  0  0  0  0  0  0  0  0  0  0  0
   20.2410   -7.1105    8.2201 C   0  0  0  0  0  0  0  0  0  0  0  0
   19.8648   -7.5946    7.0110 N   0  0  0  0  0  0  0  0  0  0  0  0
   20.2822   -7.4241    6.1357 H   0  0  0  0  0  0  0  0  0  0  0  0
   15.6754  -10.0645   15.1476 N   0  0  0  0  0  0  0  0  0  0  0  0
   15.9810   -9.4568   13.8836 C   0  0  0  0  0  0  0  0  0  0  0  0
   16.7880   -8.4879   13.8282 O   0  0  0  0  0  0  0  0  0  0  0  0
   14.9768  -10.7581   15.1627 H   0  0  0  0  0  0  0  0  0  0  0  0
   16.3255   -9.7293   16.4162 C   0  0  0  0  0  0  0  0  0  0  0  0
   15.8322   -8.4320   16.9890 C   0  0  0  0  0  0  0  0  0  0  0  0
   15.3524   -7.5352   16.2434 O   0  0  0  0  0  0  0  0  0  0  0  0
   15.8934   -8.2241   18.3989 N   0  0  0  0  0  0  0  0  0  0  0  0
   15.4526   -7.0696   18.9508 O   0  0  0  0  0  0  0  0  0  0  0  0
   16.2612   -8.9299   18.9783 H   0  0  0  0  0  0  0  0  0  0  0  0
   15.1234   -6.4824   18.2525 H   0  0  0  0  0  0  0  0  0  0  0  0
   17.8464   -9.7315   16.2801 C   0  0  0  0  0  0  0  0  0  0  0  0
   19.6274  -10.3977   14.6959 C   0  0  0  0  0  0  0  0  0  0  0  0
   18.3114  -10.8129   15.3177 C   0  0  0  0  0  0  0  0  0  0  0  0
   18.4993  -12.1249   16.0550 C   0  0  0  0  0  0  0  0  0  0  0  0
 32 33  1  0  0  0
 33 34  1  0  0  0
 33 31  1  0  0  0
 24 31  1  0  0  0
 24 25  1  0  0  0
 25 26  2  0  0  0
 25 27  1  0  0  0
 27 28  1  0  0  0
 24 20  1  0  0  0
 20 21  1  0  0  0
 21 22  2  0  0  0
 21  1  1  0  0  0
  1  2  1  0  0  0
  2  3  1  0  0  0
  3  4  1  0  0  0
  4  5  1  0  0  0
  5  6  1  0  0  0
  4 10  1  0  0  0
 10 11  2  0  0  0
 11 12  1  0  0  0
 12 13  2  0  0  0
 13 14  1  0  0  0
 14 15  2  0  0  0
 15 16  1  0  0  0
 16 17  2  0  0  0
 17 18  1  0  0  0
  1  7  1  0  0  0
  6  1  1  0  0  0
 15 10  1  0  0  0
 18 14  1  0  0  0
 27 29  1  0  0  0
 28 30  1  0  0  0
 20 23  1  0  0  0
 18 19  1  0  0  0
  7  8  1  0  0  0
  7  9  1  0  0  0
M  END
>  <minimizedAffinity>
0.43873

>  <minimizedRMSD>
1.82073

$$$$
CHEMBL3968579 PubChem-86692153


 29 33  0  0  0  0  0  0  0  0999 V2000
   18.7597  -11.2184   13.6869 C   0  0  0  0  0  0  0  0  0  0  0  0
   19.2942   -9.7986   13.8342 C   0  0  0  0  0  0  0  0  0  0  0  0
   19.0239   -9.1031   12.5131 C   0  0  0  0  0  0  0  0  0  0  0  0
   18.1693   -9.9955   11.7513 N   0  0  0  0  0  0  0  0  0  0  0  0
   17.9316  -11.2616   12.4152 C   0  0  0  0  0  0  0  0  0  0  0  0
   17.5985   -9.6860   10.4676 C   0  0  0  0  0  0  0  0  0  0  0  0
   16.3937  -10.2251   10.1092 N   0  0  0  0  0  0  0  0  0  0  0  0
   15.8140   -9.9546    8.8990 C   0  0  0  0  0  0  0  0  0  0  0  0
   16.4311   -9.1278    8.0059 N   0  0  0  0  0  0  0  0  0  0  0  0
   17.6244   -8.5857    8.3467 C   0  0  0  0  0  0  0  0  0  0  0  0
   18.3505   -7.7582    7.5842 N   0  0  0  0  0  0  0  0  0  0  0  0
   19.4453   -7.4837    8.3359 C   0  0  0  0  0  0  0  0  0  0  0  0
   19.4062   -8.1387    9.5693 C   0  0  0  0  0  0  0  0  0  0  0  0
   18.2205   -8.8391    9.5420 C   0  0  0  0  0  0  0  0  0  0  0  0
   18.1378   -7.4247    6.6827 H   0  0  0  0  0  0  0  0  0  0  0  0
   17.9699  -13.0450   15.1720 C   0  0  0  0  0  0  0  0  0  0  0  0
   17.9773  -11.6243   14.8547 N   0  0  0  0  0  0  0  0  0  0  0  0
   17.2369  -10.6884   15.6688 C   0  0  0  0  0  0  0  0  0  0  0  0
   17.5235  -10.5476   17.0350 C   0  0  0  0  0  0  0  0  0  0  0  0
   16.7958   -9.6390   17.8039 C   0  0  0  0  0  0  0  0  0  0  0  0
   15.7860   -8.8732   17.2143 C   0  0  0  0  0  0  0  0  0  0  0  0
   15.5262   -9.0381   15.8503 C   0  0  0  0  0  0  0  0  0  0  0  0
   16.2468   -9.9290   15.1185 N   0  0  0  0  0  0  0  0  0  0  0  0
   15.0114   -7.9123   18.0132 C   0  0  0  0  0  0  0  0  0  0  0  0
   13.9706   -7.1984   17.5464 N   0  0  0  0  0  0  0  0  0  0  0  0
   13.5728   -6.4722   18.5781 N   0  0  0  0  0  0  0  0  0  0  0  0
   14.3357   -6.7302   19.6285 N   0  0  0  0  0  0  0  0  0  0  0  0
   15.2498   -7.6311   19.3075 N   0  0  0  0  0  0  0  0  0  0  0  0
   14.2377   -6.3142   20.5154 H   0  0  0  0  0  0  0  0  0  0  0  0
 16 17  1  0  0  0
  1 17  1  0  0  0
  1  2  1  0  0  0
  2  3  1  0  0  0
  3  4  1  0  0  0
  4  5  1  0  0  0
  4  6  1  0  0  0
  6  7  2  0  0  0
  7  8  1  0  0  0
  8  9  2  0  0  0
  9 10  1  0  0  0
 10 11  1  0  0  0
 11 12  1  0  0  0
 12 13  2  0  0  0
 13 14  1  0  0  0
 17 18  1  0  0  0
 18 19  2  0  0  0
 19 20  1  0  0  0
 20 21  2  0  0  0
 21 22  1  0  0  0
 22 23  2  0  0  0
 21 24  1  0  0  0
 24 25  1  0  0  0
 25 26  2  0  0  0
 26 27  1  0  0  0
 27 28  1  0  0  0
  5  1  1  0  0  0
 14  6  1  0  0  0
 23 18  1  0  0  0
 28 24  2  0  0  0
 14 10  2  0  0  0
 11 15  1  0  0  0
 27 29  1  0  0  0
M  END
>  <minimizedAffinity>
-5.00152

>  <minimizedRMSD>
1.82078

$$$$
CHEMBL3957343 PubChem-89726443


 37 42  0  0  0  0  0  0  0  0999 V2000
   14.0619  -10.5062   13.4978 C   0  0  0  0  0  0  0  0  0  0  0  0
   15.3459  -10.3431   12.7013 C   0  0  0  0  0  0  0  0  0  0  0  0
   16.5350  -10.8974   13.4839 C   0  0  0  0  0  0  0  0  0  0  0  0
   16.8886   -9.9875   14.5717 N   0  0  0  0  0  0  0  0  0  0  0  0
   17.1293   -8.5832   14.2453 C   0  0  0  0  0  0  0  0  0  0  0  0
   15.9360   -8.0213   13.4778 C   0  0  0  0  0  0  0  0  0  0  0  0
   15.5804   -8.9316   12.3898 N   0  0  0  0  0  0  0  0  0  0  0  0
   15.5726   -8.4640   11.0324 C   0  0  0  0  0  0  0  0  0  0  0  0
   15.7841   -7.2475   10.7807 O   0  0  0  0  0  0  0  0  0  0  0  0
   17.3738  -10.5251   15.8076 C   0  0  0  0  0  0  0  0  0  0  0  0
   17.0547  -10.0846   17.0981 C   0  0  0  0  0  0  0  0  0  0  0  0
   17.7451  -10.7180   18.0857 N   0  0  0  0  0  0  0  0  0  0  0  0
   18.6025  -11.6411   17.5983 C   0  0  0  0  0  0  0  0  0  0  0  0
   18.5334  -11.7414   15.9221 S   0  0  0  0  0  0  0  0  0  0  0  0
   16.0115   -9.0978   17.4262 C   0  0  0  0  0  0  0  0  0  0  0  0
   14.9202   -8.8765   16.6462 N   0  0  0  0  0  0  0  0  0  0  0  0
   14.2431   -7.9547   17.3432 C   0  0  0  0  0  0  0  0  0  0  0  0
   13.0333   -7.3531   17.0066 C   0  0  0  0  0  0  0  0  0  0  0  0
   12.5090   -6.4084   17.9084 C   0  0  0  0  0  0  0  0  0  0  0  0
   13.1970   -6.0978   19.1032 C   0  0  0  0  0  0  0  0  0  0  0  0
   14.4177   -6.7280   19.4099 C   0  0  0  0  0  0  0  0  0  0  0  0
   14.9062   -7.6554   18.4931 C   0  0  0  0  0  0  0  0  0  0  0  0
   16.0343   -8.3740   18.5774 N   0  0  0  0  0  0  0  0  0  0  0  0
   16.7102   -8.3771   19.2933 H   0  0  0  0  0  0  0  0  0  0  0  0
   19.4409  -12.5144   18.4612 C   0  0  0  0  0  0  0  0  0  0  0  0
   19.9912  -13.5407   17.6942 O   0  0  0  0  0  0  0  0  0  0  0  0
   19.2785  -14.0674   17.2998 H   0  0  0  0  0  0  0  0  0  0  0  0
   15.3539   -9.4072    9.8924 C   0  0  0  0  0  0  0  0  0  0  0  0
   16.6014   -9.6247    9.1752 N   0  0  0  0  0  0  0  0  0  0  0  0
   17.5464  -10.5605    9.4415 C   0  0  0  0  0  0  0  0  0  0  0  0
   18.6238  -10.4630    8.6115 N   0  0  0  0  0  0  0  0  0  0  0  0
   18.3145   -9.4204    7.8184 C   0  0  0  0  0  0  0  0  0  0  0  0
   17.1034   -8.9171    8.1592 C   0  0  0  0  0  0  0  0  0  0  0  0
   16.5449   -7.8512    7.5335 N   0  0  0  0  0  0  0  0  0  0  0  0
   17.2368   -7.2626    6.5108 C   0  0  0  0  0  0  0  0  0  0  0  0
   18.5044   -7.7569    6.1210 C   0  0  0  0  0  0  0  0  0  0  0  0
   19.0636   -8.8634    6.7883 C   0  0  0  0  0  0  0  0  0  0  0  0
  2  1  1  0  0  0
  2  3  1  0  0  0
  3  4  1  0  0  0
  4  5  1  0  0  0
  4 10  1  0  0  0
  5  6  1  0  0  0
  6  7  1  0  0  0
  7  8  1  0  0  0
  7  2  1  0  0  0
  8  9  2  0  0  0
  8 28  1  0  0  0
 28 29  1  0  0  0
 29 30  1  0  0  0
 30 31  2  0  0  0
 31 32  1  0  0  0
 32 33  2  0  0  0
 33 34  1  0  0  0
 33 29  1  0  0  0
 34 35  2  0  0  0
 35 36  1  0  0  0
 36 37  2  0  0  0
 37 32  1  0  0  0
 10 11  2  0  0  0
 11 12  1  0  0  0
 11 15  1  0  0  0
 12 13  2  0  0  0
 13 14  1  0  0  0
 13 25  1  0  0  0
 14 10  1  0  0  0
 25 26  1  0  0  0
 15 16  2  0  0  0
 16 17  1  0  0  0
 17 18  2  0  0  0
 18 19  1  0  0  0
 19 20  2  0  0  0
 20 21  1  0  0  0
 21 22  2  0  0  0
 22 23  1  0  0  0
 22 17  1  0  0  0
 23 15  1  0  0  0
 26 27  1  0  0  0
 23 24  1  0  0  0
M  END
>  <minimizedAffinity>
15.55633

>  <minimizedRMSD>
1.82166

$$$$
CHEMBL3765044 PubChem-127027443


 27 28  0  0  0  0  0  0  0  0999 V2000
   17.5319   -9.8005   11.4679 C   0  0  0  0  0  0  0  0  0  0  0  0
   16.2380  -10.1601   11.2056 N   0  0  0  0  0  0  0  0  0  0  0  0
   15.6564   -9.8993    9.9900 C   0  0  0  0  0  0  0  0  0  0  0  0
   16.3637   -9.2684    9.0038 N   0  0  0  0  0  0  0  0  0  0  0  0
   17.6450   -8.9184    9.2710 C   0  0  0  0  0  0  0  0  0  0  0  0
   18.5096   -8.2955    8.4660 N   0  0  0  0  0  0  0  0  0  0  0  0
   19.6360   -8.1614    9.2105 C   0  0  0  0  0  0  0  0  0  0  0  0
   19.5018   -8.6966   10.4578 N   0  0  0  0  0  0  0  0  0  0  0  0
   18.2382   -9.1623   10.4586 C   0  0  0  0  0  0  0  0  0  0  0  0
   13.9977  -10.3759    9.7004 Cl  0  0  0  0  0  0  0  0  0  0  0  0
   18.1355  -10.0672   12.7343 N   0  0  0  0  0  0  0  0  0  0  0  0
   18.3596   -9.3123   13.3252 H   0  0  0  0  0  0  0  0  0  0  0  0
   18.4286  -11.4195   13.1764 C   0  0  0  0  0  0  0  0  0  0  0  0
   18.9815  -11.3806   14.5881 C   0  0  0  0  0  0  0  0  0  0  0  0
   18.0798  -12.1605   15.5331 C   0  0  0  0  0  0  0  0  0  0  0  0
   17.6013  -11.2912   16.6862 C   0  0  0  0  0  0  0  0  0  0  0  0
   18.0251   -9.8484   16.4742 C   0  0  0  0  0  0  0  0  0  0  0  0
   16.8260   -8.9986   16.2444 C   0  0  0  0  0  0  0  0  0  0  0  0
   16.3342   -8.9090   15.0884 O   0  0  0  0  0  0  0  0  0  0  0  0
   16.2217   -8.3145   17.3397 N   0  0  0  0  0  0  0  0  0  0  0  0
   15.1216   -7.5476   17.1573 O   0  0  0  0  0  0  0  0  0  0  0  0
   16.6097   -8.4011   18.2403 H   0  0  0  0  0  0  0  0  0  0  0  0
   14.8661   -7.5659   16.2217 H   0  0  0  0  0  0  0  0  0  0  0  0
   18.2822   -7.7998    7.1185 C   0  0  0  0  0  0  0  0  0  0  0  0
   19.5981   -7.3590    6.4992 C   0  0  0  0  0  0  0  0  0  0  0  0
   19.4689   -7.2674    4.9896 C   0  0  0  0  0  0  0  0  0  0  0  0
   19.3199   -8.6513    4.3858 C   0  0  0  0  0  0  0  0  0  0  0  0
 18 19  2  0  0  0
 18 17  1  0  0  0
 17 16  1  0  0  0
 16 15  1  0  0  0
 15 14  1  0  0  0
 14 13  1  0  0  0
 13 11  1  0  0  0
 11  1  1  0  0  0
  1  2  2  0  0  0
  2  3  1  0  0  0
  3  4  2  0  0  0
  4  5  1  0  0  0
  5  6  1  0  0  0
  6  7  1  0  0  0
  7  8  2  0  0  0
  8  9  1  0  0  0
  6 24  1  0  0  0
 24 25  1  0  0  0
 25 26  1  0  0  0
 26 27  1  0  0  0
  3 10  1  0  0  0
 18 20  1  0  0  0
 20 21  1  0  0  0
  9  1  1  0  0  0
  9  5  2  0  0  0
 11 12  1  0  0  0
 20 22  1  0  0  0
 21 23  1  0  0  0
M  END
>  <minimizedAffinity>
-6.38952

>  <minimizedRMSD>
1.82272

$$$$
CHEMBL4528765 12525926 CSC026678758 MCULE-5445583188 MolPort-009-260-937 PubChem-25335082 Z317383194 ZINC000012525926 ZINC12525926


 27 29  0  0  0  0  0  0  0  0999 V2000
   17.0976  -10.1285   12.9423 C   0  0  0  0  0  0  0  0  0  0  0  0
   17.5403  -11.3062   12.8473 O   0  0  0  0  0  0  0  0  0  0  0  0
   16.7741   -9.5765   14.2725 C   0  0  0  0  0  0  0  0  0  0  0  0
   16.1882   -8.3080   14.3992 C   0  0  0  0  0  0  0  0  0  0  0  0
   15.8871   -7.7904   15.6616 C   0  0  0  0  0  0  0  0  0  0  0  0
   16.1685   -8.5348   16.8156 C   0  0  0  0  0  0  0  0  0  0  0  0
   16.7525   -9.7986   16.6932 C   0  0  0  0  0  0  0  0  0  0  0  0
   17.0539  -10.3169   15.4306 C   0  0  0  0  0  0  0  0  0  0  0  0
   15.8707   -8.0284   18.1193 N   0  0  0  0  0  0  0  0  0  0  0  0
   16.6194   -7.8656   18.7375 H   0  0  0  0  0  0  0  0  0  0  0  0
   14.2640   -7.6857   18.6708 S   0  0  0  0  0  0  0  0  0  0  0  0
   14.2070   -7.8651   20.4374 C   0  0  0  0  0  0  0  0  0  0  0  0
   13.8903   -6.2767   18.3070 O   0  0  0  0  0  0  0  0  0  0  0  0
   13.2948   -8.6497   18.0469 O   0  0  0  0  0  0  0  0  0  0  0  0
   16.8929   -9.2947   11.7085 C   0  0  0  0  0  0  0  0  0  0  0  0
   16.4315  -10.2833   10.2473 S   0  0  0  0  0  0  0  0  0  0  0  0
   18.9576   -8.6460   11.1619 C   0  0  0  0  0  0  0  0  0  0  0  0
   18.6655   -8.6776    9.7010 C   0  0  0  0  0  0  0  0  0  0  0  0
   17.5638   -9.3850    9.1833 C   0  0  0  0  0  0  0  0  0  0  0  0
   17.3510   -9.3951    7.8397 N   0  0  0  0  0  0  0  0  0  0  0  0
   18.1752   -8.7303    6.9903 C   0  0  0  0  0  0  0  0  0  0  0  0
   17.9409   -8.7474    5.6129 C   0  0  0  0  0  0  0  0  0  0  0  0
   18.8005   -8.0554    4.7528 C   0  0  0  0  0  0  0  0  0  0  0  0
   19.8924   -7.3477    5.2686 C   0  0  0  0  0  0  0  0  0  0  0  0
   20.1306   -7.3283    6.6471 C   0  0  0  0  0  0  0  0  0  0  0  0
   19.2743   -8.0179    7.5095 C   0  0  0  0  0  0  0  0  0  0  0  0
   19.4910   -8.0118    8.8496 N   0  0  0  0  0  0  0  0  0  0  0  0
 17 18  1  0  0  0
 18 19  2  0  0  0
 19 16  1  0  0  0
 19 20  1  0  0  0
 16 15  1  0  0  0
 15  1  1  0  0  0
  1  2  2  0  0  0
  1  3  1  0  0  0
  3  4  2  0  0  0
  4  5  1  0  0  0
  5  6  2  0  0  0
  6  9  1  0  0  0
  6  7  1  0  0  0
  9 11  1  0  0  0
 11 12  1  0  0  0
 11 13  2  0  0  0
 11 14  2  0  0  0
  7  8  2  0  0  0
  8  3  1  0  0  0
 20 21  2  0  0  0
 21 22  1  0  0  0
 22 23  2  0  0  0
 23 24  1  0  0  0
 24 25  2  0  0  0
 25 26  1  0  0  0
 26 27  2  0  0  0
 26 21  1  0  0  0
 27 18  1  0  0  0
  9 10  1  0  0  0
M  END
>  <minimizedAffinity>
-5.87599

>  <minimizedRMSD>
1.82405

$$$$
CHEMBL3901585


 33 37  0  0  0  0  0  0  0  0999 V2000
   19.5611   -7.3919    7.1384 C   0  0  0  0  0  0  0  0  0  0  0  0
   20.6427   -7.6298    7.9841 C   0  0  0  0  0  0  0  0  0  0  0  0
   20.4461   -8.2876    9.1956 C   0  0  0  0  0  0  0  0  0  0  0  0
   19.1687   -8.7108    9.5670 C   0  0  0  0  0  0  0  0  0  0  0  0
   18.0554   -8.4799    8.7253 C   0  0  0  0  0  0  0  0  0  0  0  0
   18.2725   -7.8061    7.4897 C   0  0  0  0  0  0  0  0  0  0  0  0
   17.1832   -7.5016    6.5155 C   0  0  0  0  0  0  0  0  0  0  0  0
   16.7844   -8.9355    9.1636 C   0  0  0  0  0  0  0  0  0  0  0  0
   15.7642   -8.7609    8.4398 O   0  0  0  0  0  0  0  0  0  0  0  0
   16.6519   -9.5788   10.3726 N   0  0  0  0  0  0  0  0  0  0  0  0
   17.7424   -9.7989   11.1788 C   0  0  0  0  0  0  0  0  0  0  0  0
   19.0063   -9.3611   10.7806 C   0  0  0  0  0  0  0  0  0  0  0  0
   15.3466  -10.0202   10.7973 C   0  0  0  0  0  0  0  0  0  0  0  0
   15.0555  -10.1502   12.1632 C   0  0  0  0  0  0  0  0  0  0  0  0
   13.7913  -10.5815   12.5751 C   0  0  0  0  0  0  0  0  0  0  0  0
   12.8117  -10.8843   11.6251 C   0  0  0  0  0  0  0  0  0  0  0  0
   13.0950  -10.7549   10.2625 C   0  0  0  0  0  0  0  0  0  0  0  0
   14.3584  -10.3235    9.8488 C   0  0  0  0  0  0  0  0  0  0  0  0
   17.5971  -10.4604   12.5228 C   0  0  0  0  0  0  0  0  0  0  0  0
   18.4030  -11.7482   12.5921 C   0  0  0  0  0  0  0  0  0  0  0  0
   18.0010   -9.5458   13.5812 N   0  0  0  0  0  0  0  0  0  0  0  0
   18.4361   -8.6988   13.3314 H   0  0  0  0  0  0  0  0  0  0  0  0
   17.7928   -9.8251   14.9671 C   0  0  0  0  0  0  0  0  0  0  0  0
   18.4579  -10.8423   15.5948 N   0  0  0  0  0  0  0  0  0  0  0  0
   18.2535  -11.1154   16.9236 C   0  0  0  0  0  0  0  0  0  0  0  0
   17.3712  -10.3725   17.6585 N   0  0  0  0  0  0  0  0  0  0  0  0
   16.7111   -9.3664   17.0366 C   0  0  0  0  0  0  0  0  0  0  0  0
   16.8986   -9.0798   15.7243 C   0  0  0  0  0  0  0  0  0  0  0  0
   16.0625   -8.0172   15.4770 C   0  0  0  0  0  0  0  0  0  0  0  0
   15.4137   -7.7064   16.6252 N   0  0  0  0  0  0  0  0  0  0  0  0
   15.8110   -8.5360   17.5880 N   0  0  0  0  0  0  0  0  0  0  0  0
   15.8378   -7.1746   13.9559 Cl  0  0  0  0  0  0  0  0  0  0  0  0
   15.5042   -8.5400   18.5235 H   0  0  0  0  0  0  0  0  0  0  0  0
  1  2  2  0  0  0
  2  3  1  0  0  0
  3  4  2  0  0  0
  4  5  1  0  0  0
  5  6  2  0  0  0
  6  7  1  0  0  0
  5  8  1  0  0  0
  8  9  2  0  0  0
  8 10  1  0  0  0
 10 11  1  0  0  0
 11 12  2  0  0  0
 11 19  1  0  0  0
 19 21  1  0  0  0
 21 23  1  0  0  0
 23 24  2  0  0  0
 24 25  1  0  0  0
 25 26  2  0  0  0
 26 27  1  0  0  0
 27 28  2  0  0  0
 28 29  1  0  0  0
 29 30  2  0  0  0
 30 31  1  0  0  0
 29 32  1  0  0  0
 19 20  1  0  0  0
 10 13  1  0  0  0
 13 14  2  0  0  0
 14 15  1  0  0  0
 15 16  2  0  0  0
 16 17  1  0  0  0
 17 18  2  0  0  0
  6  1  1  0  0  0
 28 23  1  0  0  0
 18 13  1  0  0  0
 12  4  1  0  0  0
 31 27  1  0  0  0
 21 22  1  0  0  0
 31 33  1  0  0  0
M  END
>  <minimizedAffinity>
1.45692

>  <minimizedRMSD>
1.82569

$$$$
CHEMBL1710118 6600288 MCULE-8452756580 MolPort-000-023-468 PubChem-3173033 ZINC000006600288 ZINC06600288


 35 37  0  0  0  0  0  0  0  0999 V2000
   17.2103  -10.5584   16.5698 C   0  0  0  0  0  0  0  0  0  0  0  0
   16.3866   -9.6492   17.2410 C   0  0  0  0  0  0  0  0  0  0  0  0
   15.9422   -8.4702   16.6297 C   0  0  0  0  0  0  0  0  0  0  0  0
   16.3336   -8.1900   15.3151 C   0  0  0  0  0  0  0  0  0  0  0  0
   17.1625   -9.0919   14.6358 C   0  0  0  0  0  0  0  0  0  0  0  0
   17.6020  -10.2796   15.2356 C   0  0  0  0  0  0  0  0  0  0  0  0
   15.0938   -7.5407   17.3206 N   0  0  0  0  0  0  0  0  0  0  0  0
   14.8264   -7.5013   18.7286 C   0  0  0  0  0  0  0  0  0  0  0  0
   15.3484   -8.3338   19.5167 O   0  0  0  0  0  0  0  0  0  0  0  0
   14.6482   -6.8578   16.7689 H   0  0  0  0  0  0  0  0  0  0  0  0
   13.8936   -6.4635   19.2684 C   0  0  0  0  0  0  0  0  0  0  0  0
   12.4230   -6.8794   19.2007 C   0  0  0  0  0  0  0  0  0  0  0  0
   11.8421   -6.6857   17.8113 C   0  0  0  0  0  0  0  0  0  0  0  0
   12.2154   -8.3079   19.6712 C   0  0  0  0  0  0  0  0  0  0  0  0
   18.4677  -11.1756   14.5200 N   0  0  0  0  0  0  0  0  0  0  0  0
   18.9442  -11.0565   13.1713 C   0  0  0  0  0  0  0  0  0  0  0  0
   19.8278  -11.8549   12.7651 O   0  0  0  0  0  0  0  0  0  0  0  0
   18.7718  -11.9696   15.0162 H   0  0  0  0  0  0  0  0  0  0  0  0
   18.3806  -10.0626   12.2067 C   0  0  0  0  0  0  0  0  0  0  0  0
   17.1712  -10.6373   11.4803 C   0  0  0  0  0  0  0  0  0  0  0  0
   17.0670  -10.0934   10.1328 N   0  0  0  0  0  0  0  0  0  0  0  0
   16.1096  -10.4070    9.2663 N   0  0  0  0  0  0  0  0  0  0  0  0
   16.2650   -9.7396    8.1226 N   0  0  0  0  0  0  0  0  0  0  0  0
   17.3621   -8.9784    8.2913 C   0  0  0  0  0  0  0  0  0  0  0  0
   17.9527   -8.0902    7.3982 C   0  0  0  0  0  0  0  0  0  0  0  0
   19.1048   -7.4098    7.8409 C   0  0  0  0  0  0  0  0  0  0  0  0
   19.6219   -7.6331    9.1397 C   0  0  0  0  0  0  0  0  0  0  0  0
   18.9957   -8.5409   10.0162 C   0  0  0  0  0  0  0  0  0  0  0  0
   17.8613   -9.1927    9.5384 C   0  0  0  0  0  0  0  0  0  0  0  0
   17.5918  -11.7074   17.2816 O   0  0  0  0  0  0  0  0  0  0  0  0
   17.8542  -13.3849   15.5892 C   0  0  0  0  0  0  0  0  0  0  0  0
   18.4676  -12.7175   16.8021 C   0  0  0  0  0  0  0  0  0  0  0  0
   15.8928   -7.0093   14.7020 O   0  0  0  0  0  0  0  0  0  0  0  0
   15.5359   -6.9283   13.3261 C   0  0  0  0  0  0  0  0  0  0  0  0
   15.3831   -8.3201   12.7416 C   0  0  0  0  0  0  0  0  0  0  0  0
 31 32  1  0  0  0
 32 30  1  0  0  0
 30  1  1  0  0  0
  1  2  2  0  0  0
  2  3  1  0  0  0
  3  7  1  0  0  0
  3  4  2  0  0  0
  7  8  1  0  0  0
  8  9  2  0  0  0
  8 11  1  0  0  0
 11 12  1  0  0  0
 12 13  1  0  0  0
 12 14  1  0  0  0
  4 33  1  0  0  0
  4  5  1  0  0  0
 33 34  1  0  0  0
 34 35  1  0  0  0
  5  6  2  0  0  0
  6 15  1  0  0  0
  6  1  1  0  0  0
 15 16  1  0  0  0
 16 17  2  0  0  0
 16 19  1  0  0  0
 19 20  1  0  0  0
 20 21  1  0  0  0
 21 22  1  0  0  0
 22 23  2  0  0  0
 23 24  1  0  0  0
 24 25  2  0  0  0
 25 26  1  0  0  0
 26 27  2  0  0  0
 27 28  1  0  0  0
 28 29  2  0  0  0
 29 21  1  0  0  0
 29 24  1  0  0  0
  7 10  1  0  0  0
 15 18  1  0  0  0
M  END
>  <minimizedAffinity>
-3.14135

>  <minimizedRMSD>
1.82634

$$$$
CHEMBL5313586 588896399


 29 32  0  0  0  0  0  0  0  0999 V2000
   16.9995   -8.8606   15.9348 C   0  0  0  0  0  0  0  0  0  0  0  0
   18.2318   -8.8198   16.6031 C   0  0  0  0  0  0  0  0  0  0  0  0
   19.3770   -9.3580   16.0087 C   0  0  0  0  0  0  0  0  0  0  0  0
   19.2978   -9.9425   14.7420 C   0  0  0  0  0  0  0  0  0  0  0  0
   18.0722   -9.9944   14.0710 C   0  0  0  0  0  0  0  0  0  0  0  0
   16.9286   -9.4488   14.6632 C   0  0  0  0  0  0  0  0  0  0  0  0
   14.9356   -7.6966   15.8494 O   0  0  0  0  0  0  0  0  0  0  0  0
   15.7942   -8.2885   16.5597 C   0  0  0  0  0  0  0  0  0  0  0  0
   15.5953   -8.4056   17.9724 N   0  0  0  0  0  0  0  0  0  0  0  0
   16.2646   -8.8941   18.5041 H   0  0  0  0  0  0  0  0  0  0  0  0
   14.4444   -7.8324   18.6560 C   0  0  0  0  0  0  0  0  0  0  0  0
   14.8932   -6.7898   19.6668 C   0  0  0  0  0  0  0  0  0  0  0  0
   13.6892   -6.2030   20.3630 C   0  0  0  0  0  0  0  0  0  0  0  0
   14.1356   -6.0523   21.7858 C   0  0  0  0  0  0  0  0  0  0  0  0
   15.5457   -6.5952   21.7862 C   0  0  0  0  0  0  0  0  0  0  0  0
   15.7205   -7.3771   20.6354 O   0  0  0  0  0  0  0  0  0  0  0  0
   17.9924  -10.5939   12.7119 C   0  0  0  0  0  0  0  0  0  0  0  0
   18.3391   -9.5950   11.7140 N   0  0  0  0  0  0  0  0  0  0  0  0
   19.0596   -8.9537   11.9112 H   0  0  0  0  0  0  0  0  0  0  0  0
   17.6666   -9.5152   10.4566 C   0  0  0  0  0  0  0  0  0  0  0  0
   16.5051  -10.1992   10.2292 N   0  0  0  0  0  0  0  0  0  0  0  0
   15.8599  -10.1224    9.0228 C   0  0  0  0  0  0  0  0  0  0  0  0
   16.3680   -9.3542    8.0133 N   0  0  0  0  0  0  0  0  0  0  0  0
   17.5196   -8.6754    8.2369 C   0  0  0  0  0  0  0  0  0  0  0  0
   18.1467   -7.8826    7.3589 N   0  0  0  0  0  0  0  0  0  0  0  0
   19.2369   -7.4353    8.0331 C   0  0  0  0  0  0  0  0  0  0  0  0
   19.2954   -7.9463    9.3342 C   0  0  0  0  0  0  0  0  0  0  0  0
   18.1741   -8.7373    9.4231 C   0  0  0  0  0  0  0  0  0  0  0  0
   17.8785   -7.6722    6.4353 H   0  0  0  0  0  0  0  0  0  0  0  0
  7  8  2  0  0  0
  8  9  1  0  0  0
  9 11  1  0  0  0
 12 11  1  0  0  0
 12 13  1  0  0  0
 13 14  1  0  0  0
 14 15  1  0  0  0
 15 16  1  0  0  0
  8  1  1  0  0  0
  1  2  2  0  0  0
  2  3  1  0  0  0
  3  4  2  0  0  0
  4  5  1  0  0  0
  5 17  1  0  0  0
 17 18  1  0  0  0
 18 20  1  0  0  0
 20 21  2  0  0  0
 21 22  1  0  0  0
 22 23  2  0  0  0
 23 24  1  0  0  0
 24 25  1  0  0  0
 25 26  1  0  0  0
 26 27  2  0  0  0
 27 28  1  0  0  0
  5  6  2  0  0  0
 16 12  1  0  0  0
  6  1  1  0  0  0
 28 20  1  0  0  0
 28 24  2  0  0  0
  9 10  1  0  0  0
 18 19  1  0  0  0
 25 29  1  0  0  0
M  END
>  <minimizedAffinity>
-8.27029

>  <minimizedRMSD>
1.82755

$$$$
CHEMBL1553827 8607053 ChemDiv-G357-1273 MCULE-6369907800 MolPort-007-847-473 PubChem-16027448 ZINC000008607053 ZINC08607053


 35 39  0  0  0  0  0  0  0  0999 V2000
   16.5501   -8.9595   16.5056 C   0  0  0  0  0  0  0  0  0  0  0  0
   16.1297   -8.2311   15.3828 C   0  0  0  0  0  0  0  0  0  0  0  0
   16.5000   -8.6368   14.0977 C   0  0  0  0  0  0  0  0  0  0  0  0
   17.2953   -9.7758   13.9178 C   0  0  0  0  0  0  0  0  0  0  0  0
   17.7161  -10.5030   15.0400 C   0  0  0  0  0  0  0  0  0  0  0  0
   17.3452  -10.0958   16.3247 C   0  0  0  0  0  0  0  0  0  0  0  0
   14.2189   -7.3828   17.3790 O   0  0  0  0  0  0  0  0  0  0  0  0
   15.0517   -7.7953   18.2288 C   0  0  0  0  0  0  0  0  0  0  0  0
   16.1903   -8.5742   17.8393 N   0  0  0  0  0  0  0  0  0  0  0  0
   16.7869   -8.8758   18.5620 H   0  0  0  0  0  0  0  0  0  0  0  0
   14.8282   -7.5025   19.6688 C   0  0  0  0  0  0  0  0  0  0  0  0
   13.4652   -7.7388   19.9961 O   0  0  0  0  0  0  0  0  0  0  0  0
   12.6280   -6.7438   20.5072 C   0  0  0  0  0  0  0  0  0  0  0  0
   11.6807   -6.1554   19.6616 C   0  0  0  0  0  0  0  0  0  0  0  0
   10.8304   -5.1548   20.1424 C   0  0  0  0  0  0  0  0  0  0  0  0
   10.9237   -4.7368   21.4730 C   0  0  0  0  0  0  0  0  0  0  0  0
   11.8669   -5.3194   22.3241 C   0  0  0  0  0  0  0  0  0  0  0  0
   12.7172   -6.3200   21.8440 C   0  0  0  0  0  0  0  0  0  0  0  0
   17.6820  -10.1995   12.5623 C   0  0  0  0  0  0  0  0  0  0  0  0
   18.4278  -11.2054   12.4029 O   0  0  0  0  0  0  0  0  0  0  0  0
   17.2196   -9.4839   11.4554 O   0  0  0  0  0  0  0  0  0  0  0  0
   16.6375  -10.1297   10.3325 C   0  0  0  0  0  0  0  0  0  0  0  0
   17.0068   -9.3987    9.0916 C   0  0  0  0  0  0  0  0  0  0  0  0
   16.0957   -8.4992    8.5132 C   0  0  0  0  0  0  0  0  0  0  0  0
   16.4782   -7.8016    7.3622 C   0  0  0  0  0  0  0  0  0  0  0  0
   15.6828   -6.9909    6.8171 O   0  0  0  0  0  0  0  0  0  0  0  0
   17.7189   -8.0138    6.8491 N   0  0  0  0  0  0  0  0  0  0  0  0
   18.2033   -7.4178    5.7623 N   0  0  0  0  0  0  0  0  0  0  0  0
   19.4723   -7.8098    5.4866 C   0  0  0  0  0  0  0  0  0  0  0  0
   20.0358   -8.9608    6.6032 S   0  0  0  0  0  0  0  0  0  0  0  0
   18.5767   -8.8786    7.4300 C   0  0  0  0  0  0  0  0  0  0  0  0
   18.2434   -9.5732    8.5451 N   0  0  0  0  0  0  0  0  0  0  0  0
   20.2367   -7.3438    4.2912 C   0  0  0  0  0  0  0  0  0  0  0  0
   21.6917   -7.1256    4.6638 C   0  0  0  0  0  0  0  0  0  0  0  0
   20.7632   -5.9402    4.5285 C   0  0  0  0  0  0  0  0  0  0  0  0
  7  8  2  0  0  0
  8 11  1  0  0  0
  8  9  1  0  0  0
 11 12  1  0  0  0
 12 13  1  0  0  0
 13 14  2  0  0  0
 14 15  1  0  0  0
 15 16  2  0  0  0
 16 17  1  0  0  0
 17 18  2  0  0  0
 18 13  1  0  0  0
  9  1  1  0  0  0
  1  2  2  0  0  0
  2  3  1  0  0  0
  3  4  2  0  0  0
  4  5  1  0  0  0
  4 19  1  0  0  0
  5  6  2  0  0  0
  6  1  1  0  0  0
 19 20  2  0  0  0
 19 21  1  0  0  0
 21 22  1  0  0  0
 22 23  1  0  0  0
 23 24  2  0  0  0
 24 25  1  0  0  0
 25 26  2  0  0  0
 25 27  1  0  0  0
 27 28  1  0  0  0
 28 29  2  0  0  0
 29 30  1  0  0  0
 29 33  1  0  0  0
 30 31  1  0  0  0
 31 32  2  0  0  0
 31 27  1  0  0  0
 32 23  1  0  0  0
 33 34  1  0  0  0
 34 35  1  0  0  0
 35 33  1  0  0  0
  9 10  1  0  0  0
M  END
>  <minimizedAffinity>
-5.65216

>  <minimizedRMSD>
1.83413

$$$$
CHEMBL197762 PubChem-11496793


 37 41  0  0  0  0  0  0  0  0999 V2000
   17.0401  -10.2765   16.9733 C   0  0  0  0  0  0  0  0  0  0  0  0
   17.6622  -10.8892   15.7293 C   0  0  0  0  0  0  0  0  0  0  0  0
   16.9222  -10.2392   12.3993 N   0  0  0  0  0  0  0  0  0  0  0  0
   17.9857  -11.1601   12.7753 C   0  0  0  0  0  0  0  0  0  0  0  0
   18.9412  -10.4586   13.7440 C   0  0  0  0  0  0  0  0  0  0  0  0
   18.2400   -9.8469   14.8821 N   0  0  0  0  0  0  0  0  0  0  0  0
   17.1947   -8.9144   14.4281 C   0  0  0  0  0  0  0  0  0  0  0  0
   16.1963   -9.5722   13.4711 C   0  0  0  0  0  0  0  0  0  0  0  0
   18.8343   -8.2731    8.7081 C   0  0  0  0  0  0  0  0  0  0  0  0
   17.9725   -8.3780    7.5915 C   0  0  0  0  0  0  0  0  0  0  0  0
   16.7232   -9.0198    7.6963 C   0  0  0  0  0  0  0  0  0  0  0  0
   16.3768   -9.5430    8.9381 C   0  0  0  0  0  0  0  0  0  0  0  0
   15.2837  -10.1814    9.2782 O   0  0  0  0  0  0  0  0  0  0  0  0
   15.3289  -10.5187   10.5408 N   0  0  0  0  0  0  0  0  0  0  0  0
   16.5106  -10.0756   11.0340 C   0  0  0  0  0  0  0  0  0  0  0  0
   17.2021   -9.4435   10.0218 C   0  0  0  0  0  0  0  0  0  0  0  0
   18.4430   -8.8149    9.9544 C   0  0  0  0  0  0  0  0  0  0  0  0
   21.2033   -7.9461    9.3442 C   0  0  0  0  0  0  0  0  0  0  0  0
   20.0673   -7.6340    8.5486 O   0  0  0  0  0  0  0  0  0  0  0  0
   17.2334   -8.7701   16.9699 C   0  0  0  0  0  0  0  0  0  0  0  0
   16.7141   -8.1663   18.2657 C   0  0  0  0  0  0  0  0  0  0  0  0
   15.2572   -8.1034   18.2586 N   0  0  0  0  0  0  0  0  0  0  0  0
   14.5044   -7.2846   19.1615 C   0  0  0  0  0  0  0  0  0  0  0  0
   15.0971   -6.6227   20.0566 O   0  0  0  0  0  0  0  0  0  0  0  0
   14.7677   -8.6495   17.6019 H   0  0  0  0  0  0  0  0  0  0  0  0
   13.0377   -7.2147   19.0430 C   0  0  0  0  0  0  0  0  0  0  0  0
   12.3682   -5.9945   19.2147 C   0  0  0  0  0  0  0  0  0  0  0  0
   10.9768   -5.9315   19.0985 C   0  0  0  0  0  0  0  0  0  0  0  0
   10.2449   -7.0876   18.8111 C   0  0  0  0  0  0  0  0  0  0  0  0
   10.8988   -8.3158   18.6396 C   0  0  0  0  0  0  0  0  0  0  0  0
   12.2958   -8.3691   18.7552 C   0  0  0  0  0  0  0  0  0  0  0  0
   10.1278   -9.5404   18.3510 C   0  0  0  0  0  0  0  0  0  0  0  0
   10.5415  -10.7424   18.8404 N   0  0  0  0  0  0  0  0  0  0  0  0
    9.8414  -11.8809   18.5934 C   0  0  0  0  0  0  0  0  0  0  0  0
    8.6804  -11.8311   17.8250 C   0  0  0  0  0  0  0  0  0  0  0  0
    8.2711  -10.5957   17.3242 C   0  0  0  0  0  0  0  0  0  0  0  0
    8.9968   -9.4786   17.5944 N   0  0  0  0  0  0  0  0  0  0  0  0
 18 19  1  0  0  0
 19  9  1  0  0  0
  9 10  2  0  0  0
 10 11  1  0  0  0
 11 12  2  0  0  0
 12 13  1  0  0  0
 13 14  1  0  0  0
 14 15  2  0  0  0
 15  3  1  0  0  0
 15 16  1  0  0  0
  3  4  1  0  0  0
  4  5  1  0  0  0
  5  6  1  0  0  0
  6  2  1  0  0  0
  6  7  1  0  0  0
  2  1  1  0  0  0
  1 20  1  0  0  0
 20 21  1  0  0  0
 21 22  1  0  0  0
 22 23  1  0  0  0
 23 24  2  0  0  0
 23 26  1  0  0  0
 26 27  2  0  0  0
 27 28  1  0  0  0
 28 29  2  0  0  0
 29 30  1  0  0  0
 30 32  1  0  0  0
 30 31  2  0  0  0
 32 33  2  0  0  0
 33 34  1  0  0  0
 34 35  2  0  0  0
 35 36  1  0  0  0
 36 37  2  0  0  0
 37 32  1  0  0  0
 31 26  1  0  0  0
  7  8  1  0  0  0
  8  3  1  0  0  0
 16 17  2  0  0  0
 16 12  1  0  0  0
 17  9  1  0  0  0
 22 25  1  0  0  0
M  END
>  <minimizedAffinity>
-4.41055

>  <minimizedRMSD>
1.83471

$$$$
CHEMBL462216 PubChem-44563283


 26 27  0  0  0  0  0  0  0  0999 V2000
   18.7570  -10.8255   13.8689 C   0  0  0  0  0  0  0  0  0  0  0  0
   17.4854  -10.5512   13.2177 N   0  0  0  0  0  0  0  0  0  0  0  0
   16.6521  -10.6860   13.7244 H   0  0  0  0  0  0  0  0  0  0  0  0
   17.4063  -10.0930   11.8681 C   0  0  0  0  0  0  0  0  0  0  0  0
   18.4161   -9.3482   11.3515 N   0  0  0  0  0  0  0  0  0  0  0  0
   18.3573   -8.9060   10.0717 C   0  0  0  0  0  0  0  0  0  0  0  0
   19.3970   -8.1388    9.5392 C   0  0  0  0  0  0  0  0  0  0  0  0
   19.3244   -7.6887    8.2171 C   0  0  0  0  0  0  0  0  0  0  0  0
   18.2138   -8.0044    7.4270 C   0  0  0  0  0  0  0  0  0  0  0  0
   17.1711   -8.7720    7.9558 C   0  0  0  0  0  0  0  0  0  0  0  0
   17.2379   -9.2262    9.2804 C   0  0  0  0  0  0  0  0  0  0  0  0
   16.2413   -9.9759    9.8293 N   0  0  0  0  0  0  0  0  0  0  0  0
   15.1303  -10.3105    9.0886 O   0  0  0  0  0  0  0  0  0  0  0  0
   16.3288  -10.3964   11.0929 N   0  0  0  0  0  0  0  0  0  0  0  0
   18.8842   -9.9947   15.1366 C   0  0  0  0  0  0  0  0  0  0  0  0
   17.7079   -9.0438   15.2930 C   0  0  0  0  0  0  0  0  0  0  0  0
   16.8467   -9.4568   16.4712 C   0  0  0  0  0  0  0  0  0  0  0  0
   15.8060   -8.3861   16.7360 C   0  0  0  0  0  0  0  0  0  0  0  0
   13.6931   -6.9469   18.0085 O   0  0  0  0  0  0  0  0  0  0  0  0
   14.5909   -7.4383   18.7453 C   0  0  0  0  0  0  0  0  0  0  0  0
   15.6927   -8.1437   18.1665 N   0  0  0  0  0  0  0  0  0  0  0  0
   16.4031   -8.4787   18.7600 H   0  0  0  0  0  0  0  0  0  0  0  0
   14.5405   -7.2253   20.2246 C   0  0  0  0  0  0  0  0  0  0  0  0
   13.8537   -8.2610   20.8325 F   0  0  0  0  0  0  0  0  0  0  0  0
   13.8963   -6.0326   20.4935 F   0  0  0  0  0  0  0  0  0  0  0  0
   15.8236   -7.1758   20.7385 F   0  0  0  0  0  0  0  0  0  0  0  0
 19 20  2  0  0  0
 20 21  1  0  0  0
 20 23  1  0  0  0
 21 18  1  0  0  0
 18 17  1  0  0  0
 17 16  1  0  0  0
 16 15  1  0  0  0
 15  1  1  0  0  0
  1  2  1  0  0  0
  2  4  1  0  0  0
  4  5  2  0  0  0
  5  6  1  0  0  0
  6  7  2  0  0  0
  7  8  1  0  0  0
  8  9  2  0  0  0
  9 10  1  0  0  0
 10 11  2  0  0  0
 11 12  1  0  0  0
 11  6  1  0  0  0
 12 13  1  0  0  0
 12 14  2  0  0  0
 14  4  1  0  0  0
 23 24  1  0  0  0
 23 25  1  0  0  0
 23 26  1  0  0  0
 21 22  1  0  0  0
  2  3  1  0  0  0
M  CHG 1  12   1
M  CHG 1  13  -1
M  END
>  <minimizedAffinity>
-8.96192

>  <minimizedRMSD>
1.84202

$$$$
CHEMBL4538883 MCULE-1710050658 MolPort-002-906-783 PubChem-2820666 ZINC000001038321 ZINC01038321


 33 36  0  0  0  0  0  0  0  0999 V2000
   16.8058   -9.6718   11.4340 C   0  0  0  0  0  0  0  0  0  0  0  0
   17.6958  -10.1407   12.3515 N   0  0  0  0  0  0  0  0  0  0  0  0
   17.3311  -10.3796   13.6383 C   0  0  0  0  0  0  0  0  0  0  0  0
   16.0533  -10.1512   14.0367 N   0  0  0  0  0  0  0  0  0  0  0  0
   15.1282   -9.6803   13.1621 C   0  0  0  0  0  0  0  0  0  0  0  0
   15.4860   -9.4280   11.8392 C   0  0  0  0  0  0  0  0  0  0  0  0
   20.3657   -7.2016    5.5064 C   0  0  0  0  0  0  0  0  0  0  0  0
   19.4495   -7.8441    6.4848 C   0  0  0  0  0  0  0  0  0  0  0  0
   19.5918   -7.7247    7.8244 N   0  0  0  0  0  0  0  0  0  0  0  0
   18.6074   -8.4234    8.3570 N   0  0  0  0  0  0  0  0  0  0  0  0
   17.8669   -8.9694    7.3883 C   0  0  0  0  0  0  0  0  0  0  0  0
   18.3537   -8.6373    6.1419 C   0  0  0  0  0  0  0  0  0  0  0  0
   16.7944   -9.7433    7.6684 N   0  0  0  0  0  0  0  0  0  0  0  0
   16.4670   -9.9628    8.9726 C   0  0  0  0  0  0  0  0  0  0  0  0
   17.2223   -9.3998   10.0293 C   0  0  0  0  0  0  0  0  0  0  0  0
   18.3434   -8.5980    9.6783 C   0  0  0  0  0  0  0  0  0  0  0  0
   19.2433   -7.9684   10.6942 C   0  0  0  0  0  0  0  0  0  0  0  0
   18.5353  -10.9973   14.8069 S   0  0  0  0  0  0  0  0  0  0  0  0
   18.9880   -9.3303   15.3813 C   0  0  0  0  0  0  0  0  0  0  0  0
   17.7779   -8.5785   15.8165 C   0  0  0  0  0  0  0  0  0  0  0  0
   17.3347   -7.6532   15.0867 O   0  0  0  0  0  0  0  0  0  0  0  0
   17.1522   -8.9058   17.0644 N   0  0  0  0  0  0  0  0  0  0  0  0
   17.5971   -9.5889   17.6165 H   0  0  0  0  0  0  0  0  0  0  0  0
   15.9444   -8.3396   17.5901 C   0  0  0  0  0  0  0  0  0  0  0  0
   14.8326   -8.0758   16.7765 C   0  0  0  0  0  0  0  0  0  0  0  0
   13.6704   -7.5283   17.3249 C   0  0  0  0  0  0  0  0  0  0  0  0
   13.6097   -7.2451   18.6915 C   0  0  0  0  0  0  0  0  0  0  0  0
   14.7078   -7.5152   19.5197 C   0  0  0  0  0  0  0  0  0  0  0  0
   15.8744   -8.0552   18.9582 C   0  0  0  0  0  0  0  0  0  0  0  0
   14.6419   -7.1767   20.9811 C   0  0  0  0  0  0  0  0  0  0  0  0
   15.9093   -7.1380   21.5389 F   0  0  0  0  0  0  0  0  0  0  0  0
   13.8931   -8.1292   21.6495 F   0  0  0  0  0  0  0  0  0  0  0  0
   14.0450   -5.9390   21.1386 F   0  0  0  0  0  0  0  0  0  0  0  0
  7  8  1  0  0  0
  8  9  2  0  0  0
  9 10  1  0  0  0
 10 11  1  0  0  0
 11 12  2  0  0  0
 11 13  1  0  0  0
 12  8  1  0  0  0
 13 14  2  0  0  0
 14 15  1  0  0  0
 15 16  2  0  0  0
 15  1  1  0  0  0
 16 17  1  0  0  0
 16 10  1  0  0  0
  1  2  2  0  0  0
  2  3  1  0  0  0
  3 18  1  0  0  0
  3  4  2  0  0  0
 18 19  1  0  0  0
 19 20  1  0  0  0
 20 21  2  0  0  0
 20 22  1  0  0  0
 22 24  1  0  0  0
 24 25  2  0  0  0
 25 26  1  0  0  0
 26 27  2  0  0  0
 27 28  1  0  0  0
 28 29  2  0  0  0
 28 30  1  0  0  0
 29 24  1  0  0  0
 30 31  1  0  0  0
 30 32  1  0  0  0
 30 33  1  0  0  0
  4  5  1  0  0  0
  5  6  2  0  0  0
  6  1  1  0  0  0
 22 23  1  0  0  0
M  END
>  <minimizedAffinity>
-7.47077

>  <minimizedRMSD>
1.84414

$$$$
CHEMBL5081099 PubChem-72949557


 36 41  0  0  0  0  0  0  0  0999 V2000
   13.2291   -6.1917   20.4489 C   0  0  0  0  0  0  0  0  0  0  0  0
   14.3731   -7.0027   20.3255 C   0  0  0  0  0  0  0  0  0  0  0  0
   14.6796   -7.4914   19.0584 C   0  0  0  0  0  0  0  0  0  0  0  0
   13.9141   -7.2100   17.9691 C   0  0  0  0  0  0  0  0  0  0  0  0
   12.7732   -6.4163   18.0504 C   0  0  0  0  0  0  0  0  0  0  0  0
   12.4318   -5.9039   19.3157 C   0  0  0  0  0  0  0  0  0  0  0  0
   14.4248   -7.7991   16.8792 N   0  0  0  0  0  0  0  0  0  0  0  0
   15.5205   -8.4370   17.3733 C   0  0  0  0  0  0  0  0  0  0  0  0
   15.7117   -8.2721   18.7104 N   0  0  0  0  0  0  0  0  0  0  0  0
   16.4284   -8.6353   19.2794 H   0  0  0  0  0  0  0  0  0  0  0  0
   16.4238   -9.2382   16.5312 C   0  0  0  0  0  0  0  0  0  0  0  0
   16.3589   -9.1428   15.1350 C   0  0  0  0  0  0  0  0  0  0  0  0
   17.2140   -9.9006   14.3289 C   0  0  0  0  0  0  0  0  0  0  0  0
   18.1488  -10.7668   14.9244 C   0  0  0  0  0  0  0  0  0  0  0  0
   18.2141  -10.8628   16.3175 C   0  0  0  0  0  0  0  0  0  0  0  0
   17.3567  -10.1032   17.1174 C   0  0  0  0  0  0  0  0  0  0  0  0
   19.2490  -11.7431   13.9617 Cl  0  0  0  0  0  0  0  0  0  0  0  0
   17.1149   -9.7727   12.8991 C   0  0  0  0  0  0  0  0  0  0  0  0
   17.0321   -9.6663   11.7013 C   0  0  0  0  0  0  0  0  0  0  0  0
   16.9349   -9.5409   10.2728 C   0  0  0  0  0  0  0  0  0  0  0  0
   15.9770  -10.1228    9.4536 C   0  0  0  0  0  0  0  0  0  0  0  0
   16.2286   -9.7633    8.1651 N   0  0  0  0  0  0  0  0  0  0  0  0
   17.3235   -8.9807    8.2469 C   0  0  0  0  0  0  0  0  0  0  0  0
   17.7635   -8.8339    9.4992 N   0  0  0  0  0  0  0  0  0  0  0  0
   18.8279   -8.1088    9.8362 N   0  0  0  0  0  0  0  0  0  0  0  0
   19.5247   -7.4689    8.8541 C   0  0  0  0  0  0  0  0  0  0  0  0
   19.1083   -7.5862    7.5132 C   0  0  0  0  0  0  0  0  0  0  0  0
   17.9810   -8.3593    7.1923 C   0  0  0  0  0  0  0  0  0  0  0  0
   12.8539   -5.6499   21.7872 C   0  0  0  0  0  0  0  0  0  0  0  0
   16.3145   -4.4223   25.9081 C   0  0  0  0  0  0  0  0  0  0  0  0
   15.1179   -4.7516   25.1560 N   0  0  0  0  0  0  0  0  0  0  0  0
   15.3789   -6.0232   24.4833 C   0  0  0  0  0  0  0  0  0  0  0  0
   14.2065   -6.3708   23.5665 C   0  0  0  0  0  0  0  0  0  0  0  0
   14.0465   -5.3260   22.5542 N   0  0  0  0  0  0  0  0  0  0  0  0
   13.7815   -4.0566   23.2292 C   0  0  0  0  0  0  0  0  0  0  0  0
   14.9535   -3.7070   24.1462 C   0  0  0  0  0  0  0  0  0  0  0  0
 30 31  1  0  0  0
 31 32  1  0  0  0
 32 33  1  0  0  0
 33 34  1  0  0  0
 34 35  1  0  0  0
 34 29  1  0  0  0
 35 36  1  0  0  0
 36 31  1  0  0  0
 29  1  1  0  0  0
  1  2  2  0  0  0
  2  3  1  0  0  0
  3  4  2  0  0  0
  4  5  1  0  0  0
  4  7  1  0  0  0
  5  6  2  0  0  0
  6  1  1  0  0  0
  7  8  2  0  0  0
  8  9  1  0  0  0
  8 11  1  0  0  0
  9  3  1  0  0  0
 11 12  2  0  0  0
 12 13  1  0  0  0
 13 14  2  0  0  0
 13 18  1  0  0  0
 14 15  1  0  0  0
 14 17  1  0  0  0
 15 16  2  0  0  0
 16 11  1  0  0  0
 18 19  3  0  0  0
 19 20  1  0  0  0
 20 21  2  0  0  0
 21 22  1  0  0  0
 22 23  2  0  0  0
 23 24  1  0  0  0
 24 25  1  0  0  0
 24 20  1  0  0  0
 25 26  2  0  0  0
 26 27  1  0  0  0
 27 28  2  0  0  0
 28 23  1  0  0  0
  9 10  1  0  0  0
M  END
>  <minimizedAffinity>
-12.14009

>  <minimizedRMSD>
1.84476

$$$$
CHEMBL4449748 PubChem-155520851


 33 37  0  0  0  0  0  0  0  0999 V2000
   15.3913   -8.0658   17.1380 C   0  0  0  0  0  0  0  0  0  0  0  0
   14.6651   -7.1027   16.7694 O   0  0  0  0  0  0  0  0  0  0  0  0
   15.6182   -8.3151   18.5340 N   0  0  0  0  0  0  0  0  0  0  0  0
   16.0012   -8.9145   16.1553 N   0  0  0  0  0  0  0  0  0  0  0  0
   15.7112   -8.7151   14.7348 C   0  0  0  0  0  0  0  0  0  0  0  0
   16.9656   -8.9898   13.9129 C   0  0  0  0  0  0  0  0  0  0  0  0
   17.4790  -10.3215   14.2281 N   0  0  0  0  0  0  0  0  0  0  0  0
   17.9415  -10.3195   15.6168 C   0  0  0  0  0  0  0  0  0  0  0  0
   16.7697  -10.0895   16.5734 C   0  0  0  0  0  0  0  0  0  0  0  0
   15.8745  -11.3166   16.6248 C   0  0  0  0  0  0  0  0  0  0  0  0
   16.2009   -9.0771   18.7554 H   0  0  0  0  0  0  0  0  0  0  0  0
   15.0869   -7.5727   19.6397 C   0  0  0  0  0  0  0  0  0  0  0  0
   13.7135   -7.2577   19.7343 C   0  0  0  0  0  0  0  0  0  0  0  0
   13.2863   -6.5336   20.8437 C   0  0  0  0  0  0  0  0  0  0  0  0
   14.1437   -6.1328   21.8156 C   0  0  0  0  0  0  0  0  0  0  0  0
   15.5043   -6.4202   21.7649 C   0  0  0  0  0  0  0  0  0  0  0  0
   15.9720   -7.1507   20.6575 C   0  0  0  0  0  0  0  0  0  0  0  0
   13.4479   -5.4388   22.7852 O   0  0  0  0  0  0  0  0  0  0  0  0
   12.0667   -5.4008   22.3991 C   0  0  0  0  0  0  0  0  0  0  0  0
   12.0091   -6.1115   21.1541 O   0  0  0  0  0  0  0  0  0  0  0  0
   18.8556  -10.6125   13.2130 S   0  0  0  0  0  0  0  0  0  0  0  0
   18.9684  -12.0819   12.9161 O   0  0  0  0  0  0  0  0  0  0  0  0
   20.1087  -10.1588   13.9123 O   0  0  0  0  0  0  0  0  0  0  0  0
   18.6693   -9.7329   11.6934 C   0  0  0  0  0  0  0  0  0  0  0  0
   19.7166   -8.9111   11.2580 C   0  0  0  0  0  0  0  0  0  0  0  0
   19.6103   -8.1915   10.0652 C   0  0  0  0  0  0  0  0  0  0  0  0
   18.4522   -8.2841    9.2915 C   0  0  0  0  0  0  0  0  0  0  0  0
   17.3978   -9.0976    9.7094 C   0  0  0  0  0  0  0  0  0  0  0  0
   17.4964   -9.8308   10.9148 C   0  0  0  0  0  0  0  0  0  0  0  0
   16.4193  -10.6379   11.3044 C   0  0  0  0  0  0  0  0  0  0  0  0
   15.2781  -10.7020   10.5025 C   0  0  0  0  0  0  0  0  0  0  0  0
   15.2110   -9.9856    9.3483 N   0  0  0  0  0  0  0  0  0  0  0  0
   16.2373   -9.1928    8.9396 C   0  0  0  0  0  0  0  0  0  0  0  0
  1  2  2  0  0  0
  1  3  1  0  0  0
  3 12  1  0  0  0
 12 13  2  0  0  0
 13 14  1  0  0  0
 14 15  2  0  0  0
 15 16  1  0  0  0
 16 17  2  0  0  0
 15 18  1  0  0  0
 18 19  1  0  0  0
 19 20  1  0  0  0
  1  4  1  0  0  0
  4  5  1  0  0  0
  5  6  1  0  0  0
  6  7  1  0  0  0
  7  8  1  0  0  0
  8  9  1  0  0  0
  9 10  1  0  0  0
  7 21  1  0  0  0
 21 22  2  0  0  0
 21 23  2  0  0  0
 21 24  1  0  0  0
 24 25  2  0  0  0
 25 26  1  0  0  0
 26 27  2  0  0  0
 27 28  1  0  0  0
 28 29  2  0  0  0
 29 30  1  0  0  0
 30 31  2  0  0  0
 31 32  1  0  0  0
 32 33  2  0  0  0
 17 12  1  0  0  0
  9  4  1  0  0  0
 29 24  1  0  0  0
 20 14  1  0  0  0
 33 28  1  0  0  0
  3 11  1  0  0  0
M  END
>  <minimizedAffinity>
-3.46029

>  <minimizedRMSD>
1.84938

$$$$
CHEMBL3449572 MCULE-9426424625


 25 28  0  0  0  0  0  0  0  0999 V2000
   17.5104  -10.2382   11.3392 C   0  0  0  0  0  0  0  0  0  0  0  0
   16.9122   -9.3180   12.4087 C   0  0  0  0  0  0  0  0  0  0  0  0
   17.5293   -9.5943   13.7041 N   0  0  0  0  0  0  0  0  0  0  0  0
   16.6971   -9.7723   14.8592 C   0  0  0  0  0  0  0  0  0  0  0  0
   15.5817   -9.1881   14.9177 O   0  0  0  0  0  0  0  0  0  0  0  0
   18.9909   -9.6037   13.8296 C   0  0  0  0  0  0  0  0  0  0  0  0
   19.6688   -9.4614   12.4669 C   0  0  0  0  0  0  0  0  0  0  0  0
   19.0346  -10.4224   11.4612 C   0  0  0  0  0  0  0  0  0  0  0  0
   16.0560  -10.1616    9.3522 N   0  0  0  0  0  0  0  0  0  0  0  0
   17.1495   -9.7779   10.0031 N   0  0  0  0  0  0  0  0  0  0  0  0
   17.8095   -8.9293    9.1989 C   0  0  0  0  0  0  0  0  0  0  0  0
   17.0847   -8.8140    8.0539 C   0  0  0  0  0  0  0  0  0  0  0  0
   15.9873   -9.5863    8.1516 N   0  0  0  0  0  0  0  0  0  0  0  0
   17.4884   -8.0034    6.9978 C   0  0  0  0  0  0  0  0  0  0  0  0
   18.6953   -7.2939    7.1594 C   0  0  0  0  0  0  0  0  0  0  0  0
   19.4482   -7.4152    8.3522 C   0  0  0  0  0  0  0  0  0  0  0  0
   19.0070   -8.2463    9.4001 C   0  0  0  0  0  0  0  0  0  0  0  0
   19.1389   -6.4887    6.1647 F   0  0  0  0  0  0  0  0  0  0  0  0
   17.1208  -10.6041   15.9995 C   0  0  0  0  0  0  0  0  0  0  0  0
   17.7419  -11.8360   15.9608 C   0  0  0  0  0  0  0  0  0  0  0  0
   17.8652  -12.2286   17.2762 C   0  0  0  0  0  0  0  0  0  0  0  0
   17.3368  -11.2578   18.0499 N   0  0  0  0  0  0  0  0  0  0  0  0
   16.8772  -10.2815   17.2813 N   0  0  0  0  0  0  0  0  0  0  0  0
   18.1408  -12.8151   14.5599 Cl  0  0  0  0  0  0  0  0  0  0  0  0
   17.2986  -11.2727   19.0335 H   0  0  0  0  0  0  0  0  0  0  0  0
  9 10  1  0  0  0
 10 11  1  0  0  0
 11 12  2  0  0  0
 12 13  1  0  0  0
 12 14  1  0  0  0
 14 15  2  0  0  0
 15 16  1  0  0  0
 16 17  2  0  0  0
 15 18  1  0  0  0
 10  1  1  0  0  0
  1  2  1  0  0  0
  2  3  1  0  0  0
  3  4  1  0  0  0
  4  5  2  0  0  0
  4 19  1  0  0  0
 19 20  1  0  0  0
 20 21  2  0  0  0
 21 22  1  0  0  0
 22 23  1  0  0  0
 20 24  1  0  0  0
  3  6  1  0  0  0
  6  7  1  0  0  0
  7  8  1  0  0  0
 13  9  2  0  0  0
  8  1  1  0  0  0
 17 11  1  0  0  0
 23 19  2  0  0  0
 22 25  1  0  0  0
M  END
>  <minimizedAffinity>
-3.40304

>  <minimizedRMSD>
1.85029

$$$$
CHEMBL1873548


 37 40  0  0  0  0  0  0  0  0999 V2000
   17.3544  -10.5292   11.6689 N   0  0  0  0  0  0  0  0  0  0  0  0
   17.6972  -11.0292   12.9753 C   0  0  0  0  0  0  0  0  0  0  0  0
   18.3065  -12.1294   13.0735 O   0  0  0  0  0  0  0  0  0  0  0  0
   17.3411  -10.2979   14.2108 C   0  0  0  0  0  0  0  0  0  0  0  0
   17.1890   -8.9041   14.2072 C   0  0  0  0  0  0  0  0  0  0  0  0
   16.8660   -8.2244   15.3847 C   0  0  0  0  0  0  0  0  0  0  0  0
   16.6988   -8.9290   16.5855 C   0  0  0  0  0  0  0  0  0  0  0  0
   16.8563  -10.3178   16.5920 C   0  0  0  0  0  0  0  0  0  0  0  0
   17.1823  -10.9977   15.4151 C   0  0  0  0  0  0  0  0  0  0  0  0
   16.3352   -8.2691   17.8049 N   0  0  0  0  0  0  0  0  0  0  0  0
   15.1122   -7.5670   18.0570 C   0  0  0  0  0  0  0  0  0  0  0  0
   14.3133   -7.2914   17.1221 O   0  0  0  0  0  0  0  0  0  0  0  0
   16.9890   -8.3016   18.5402 H   0  0  0  0  0  0  0  0  0  0  0  0
   14.7883   -7.1496   19.4499 C   0  0  0  0  0  0  0  0  0  0  0  0
   13.2676   -6.1503   19.4755 S   0  0  0  0  0  0  0  0  0  0  0  0
   12.1922   -7.5680   19.2520 C   0  0  0  0  0  0  0  0  0  0  0  0
   11.4591   -7.8008   18.1472 N   0  0  0  0  0  0  0  0  0  0  0  0
   10.7880   -8.9168   18.4112 N   0  0  0  0  0  0  0  0  0  0  0  0
   11.0865   -9.3530   19.6275 N   0  0  0  0  0  0  0  0  0  0  0  0
   11.9579   -8.5211   20.1653 N   0  0  0  0  0  0  0  0  0  0  0  0
   12.5176   -8.6423   21.5003 C   0  0  0  0  0  0  0  0  0  0  0  0
   15.4611  -10.1191   10.1561 C   0  0  0  0  0  0  0  0  0  0  0  0
   16.1233   -9.7606   11.4745 C   0  0  0  0  0  0  0  0  0  0  0  0
   15.1574   -9.9809   12.6249 C   0  0  0  0  0  0  0  0  0  0  0  0
   18.1109  -10.9856   10.5034 C   0  0  0  0  0  0  0  0  0  0  0  0
   18.3859   -9.8440    9.5847 C   0  0  0  0  0  0  0  0  0  0  0  0
   18.6594   -8.6106   10.0895 N   0  0  0  0  0  0  0  0  0  0  0  0
   18.8891   -7.5489    9.2713 C   0  0  0  0  0  0  0  0  0  0  0  0
   19.1633   -6.3022    9.8236 O   0  0  0  0  0  0  0  0  0  0  0  0
   18.8409   -7.7219    7.8832 C   0  0  0  0  0  0  0  0  0  0  0  0
   19.0747   -6.6620    6.9958 C   0  0  0  0  0  0  0  0  0  0  0  0
   19.0120   -6.8816    5.6158 C   0  0  0  0  0  0  0  0  0  0  0  0
   18.7151   -8.1560    5.1195 C   0  0  0  0  0  0  0  0  0  0  0  0
   18.4830   -9.2169    6.0012 C   0  0  0  0  0  0  0  0  0  0  0  0
   18.5463   -9.0057    7.3812 C   0  0  0  0  0  0  0  0  0  0  0  0
   18.3236  -10.0328    8.2400 N   0  0  0  0  0  0  0  0  0  0  0  0
   19.1930   -6.1984   10.7544 H   0  0  0  0  0  0  0  0  0  0  0  0
 22 23  1  0  0  0
 23 24  1  0  0  0
 23  1  1  0  0  0
  1 25  1  0  0  0
  1  2  1  0  0  0
 25 26  1  0  0  0
 26 27  2  0  0  0
 27 28  1  0  0  0
 28 29  1  0  0  0
 28 30  2  0  0  0
 30 31  1  0  0  0
 31 32  2  0  0  0
 32 33  1  0  0  0
 33 34  2  0  0  0
 34 35  1  0  0  0
 35 36  2  0  0  0
 35 30  1  0  0  0
 36 26  1  0  0  0
  2  3  2  0  0  0
  2  4  1  0  0  0
  4  5  2  0  0  0
  5  6  1  0  0  0
  6  7  2  0  0  0
  7 10  1  0  0  0
  7  8  1  0  0  0
 10 11  1  0  0  0
 11 12  2  0  0  0
 11 14  1  0  0  0
 14 15  1  0  0  0
 15 16  1  0  0  0
 16 17  2  0  0  0
 17 18  1  0  0  0
 18 19  2  0  0  0
 19 20  1  0  0  0
 20 21  1  0  0  0
 20 16  1  0  0  0
  8  9  2  0  0  0
  9  4  1  0  0  0
 29 37  1  0  0  0
 10 13  1  0  0  0
M  END
>  <minimizedAffinity>
-3.82272

>  <minimizedRMSD>
1.85111

$$$$
CHEMBL2362702 MCULE-9952160268 MolPort-004-996-444 PubChem-45167545


 31 36  0  0  0  0  0  0  0  0999 V2000
   17.5481   -9.3051   11.8505 N   0  0  0  0  0  0  0  0  0  0  0  0
   16.6750   -8.4504   12.6546 C   0  0  0  0  0  0  0  0  0  0  0  0
   15.9101   -9.2919   13.6734 C   0  0  0  0  0  0  0  0  0  0  0  0
   16.9105  -10.1137   14.4885 C   0  0  0  0  0  0  0  0  0  0  0  0
   16.2419  -11.0282   15.4832 C   0  0  0  0  0  0  0  0  0  0  0  0
   17.1151   -9.8799   15.9846 C   0  0  0  0  0  0  0  0  0  0  0  0
   18.0519  -10.7861   13.7389 C   0  0  0  0  0  0  0  0  0  0  0  0
   18.6190   -9.8073   12.7131 C   0  0  0  0  0  0  0  0  0  0  0  0
   16.2708   -8.7666   16.5283 C   0  0  0  0  0  0  0  0  0  0  0  0
   16.1080   -7.7210   15.8419 O   0  0  0  0  0  0  0  0  0  0  0  0
   15.6963   -8.8883   17.8379 N   0  0  0  0  0  0  0  0  0  0  0  0
   15.9114   -9.7077   18.3396 H   0  0  0  0  0  0  0  0  0  0  0  0
   14.8418   -7.9408   18.4913 C   0  0  0  0  0  0  0  0  0  0  0  0
   13.7096   -7.3852   17.8436 C   0  0  0  0  0  0  0  0  0  0  0  0
   12.8791   -6.4637   18.5063 C   0  0  0  0  0  0  0  0  0  0  0  0
   13.2133   -6.1263   19.8148 C   0  0  0  0  0  0  0  0  0  0  0  0
   12.5654   -5.2565   20.6693 O   0  0  0  0  0  0  0  0  0  0  0  0
   13.2824   -5.2388   21.9125 C   0  0  0  0  0  0  0  0  0  0  0  0
   14.3795   -6.1438   21.7219 O   0  0  0  0  0  0  0  0  0  0  0  0
   14.2951   -6.6538   20.4415 C   0  0  0  0  0  0  0  0  0  0  0  0
   15.1401   -7.5668   19.8159 C   0  0  0  0  0  0  0  0  0  0  0  0
   18.1695   -8.4485   10.8554 C   0  0  0  0  0  0  0  0  0  0  0  0
   15.8549  -10.5044   10.1048 C   0  0  0  0  0  0  0  0  0  0  0  0
   16.7148   -9.7561    9.1472 C   0  0  0  0  0  0  0  0  0  0  0  0
   17.7077   -8.8399    9.4915 C   0  0  0  0  0  0  0  0  0  0  0  0
   18.2508   -8.4367    8.3414 N   0  0  0  0  0  0  0  0  0  0  0  0
   19.2490   -7.6200    7.9395 C   0  0  0  0  0  0  0  0  0  0  0  0
   19.3737   -7.6172    6.5368 C   0  0  0  0  0  0  0  0  0  0  0  0
   18.1971   -8.6762    5.8677 S   0  0  0  0  0  0  0  0  0  0  0  0
   17.6067   -9.0621    7.3807 C   0  0  0  0  0  0  0  0  0  0  0  0
   16.6401   -9.9052    7.7942 N   0  0  0  0  0  0  0  0  0  0  0  0
 23 24  1  0  0  0
 24 25  2  0  0  0
 25 22  1  0  0  0
 22  1  1  0  0  0
  1  2  1  0  0  0
  2  3  1  0  0  0
  3  4  1  0  0  0
  4  5  1  0  0  0
  5  6  1  0  0  0
  6  9  1  0  0  0
  9 10  2  0  0  0
  9 11  1  0  0  0
 11 13  1  0  0  0
 13 14  2  0  0  0
 14 15  1  0  0  0
 15 16  2  0  0  0
 16 17  1  0  0  0
 17 18  1  0  0  0
 18 19  1  0  0  0
 19 20  1  0  0  0
 20 21  2  0  0  0
  4  7  1  0  0  0
  7  8  1  0  0  0
 25 26  1  0  0  0
 26 27  1  0  0  0
 27 28  2  0  0  0
 28 29  1  0  0  0
 29 30  1  0  0  0
 30 31  2  0  0  0
 31 24  1  0  0  0
  8  1  1  0  0  0
 30 26  1  0  0  0
  6  4  1  0  0  0
 21 13  1  0  0  0
 20 16  1  0  0  0
 11 12  1  0  0  0
M  END
>  <minimizedAffinity>
-6.88463

>  <minimizedRMSD>
1.85405

$$$$
CHEMBL3261266 PubChem-54759259


 32 33  0  0  0  0  0  0  0  0999 V2000
   17.9675  -10.1072   13.1337 S   0  0  0  0  0  0  0  0  0  0  0  0
   19.1306  -10.0471   14.0832 O   0  0  0  0  0  0  0  0  0  0  0  0
   17.5355  -11.5374   12.9696 O   0  0  0  0  0  0  0  0  0  0  0  0
   17.6385   -9.4964   10.5490 C   0  0  0  0  0  0  0  0  0  0  0  0
   18.4694   -9.4680   11.5841 C   0  0  0  0  0  0  0  0  0  0  0  0
   18.5476   -8.1718    6.5508 C   0  0  0  0  0  0  0  0  0  0  0  0
   19.3391   -7.7492    7.6203 C   0  0  0  0  0  0  0  0  0  0  0  0
   19.0529   -8.1446    8.9347 C   0  0  0  0  0  0  0  0  0  0  0  0
   17.9380   -8.9885    9.1884 C   0  0  0  0  0  0  0  0  0  0  0  0
   17.1189   -9.3934    8.0952 C   0  0  0  0  0  0  0  0  0  0  0  0
   17.4495   -8.9884    6.7992 C   0  0  0  0  0  0  0  0  0  0  0  0
   20.1530   -7.6397    4.7454 C   0  0  0  0  0  0  0  0  0  0  0  0
   18.8277   -7.7933    5.2349 O   0  0  0  0  0  0  0  0  0  0  0  0
   19.8713   -7.7081    9.9847 O   0  0  0  0  0  0  0  0  0  0  0  0
   21.2733   -7.9409   10.0256 C   0  0  0  0  0  0  0  0  0  0  0  0
   15.9779  -10.2043    8.2156 O   0  0  0  0  0  0  0  0  0  0  0  0
   15.1645  -10.3093    9.3758 C   0  0  0  0  0  0  0  0  0  0  0  0
   16.6260   -9.1205   13.7770 C   0  0  0  0  0  0  0  0  0  0  0  0
   16.5056   -9.2704   15.2558 C   0  0  0  0  0  0  0  0  0  0  0  0
   16.9404  -10.4318   15.8988 C   0  0  0  0  0  0  0  0  0  0  0  0
   16.8067  -10.5551   17.2460 N   0  0  0  0  0  0  0  0  0  0  0  0
   16.2493   -9.5708   18.0081 C   0  0  0  0  0  0  0  0  0  0  0  0
   15.7932   -8.3930   17.3988 C   0  0  0  0  0  0  0  0  0  0  0  0
   15.9239   -8.2536   16.0119 C   0  0  0  0  0  0  0  0  0  0  0  0
   16.1275   -9.7264   19.3910 O   0  0  0  0  0  0  0  0  0  0  0  0
   16.6215  -10.8730   20.0669 C   0  0  0  0  0  0  0  0  0  0  0  0
   15.2050   -7.3592   18.1954 N   0  0  0  0  0  0  0  0  0  0  0  0
   15.8047   -6.7383   18.6687 H   0  0  0  0  0  0  0  0  0  0  0  0
   13.4951   -7.1411   18.3719 S   0  0  0  0  0  0  0  0  0  0  0  0
   13.1951   -5.7738   19.4658 C   0  0  0  0  0  0  0  0  0  0  0  0
   12.8809   -8.3822   18.9553 O   0  0  0  0  0  0  0  0  0  0  0  0
   12.8785   -6.8455   17.0339 O   0  0  0  0  0  0  0  0  0  0  0  0
 12 13  1  0  0  0
 13  6  1  0  0  0
  6  7  2  0  0  0
  7  8  1  0  0  0
  8 14  1  0  0  0
  8  9  2  0  0  0
 14 15  1  0  0  0
  9  4  1  0  0  0
  9 10  1  0  0  0
  4  5  2  0  0  0
  5  1  1  0  0  0
  1  2  2  0  0  0
  1  3  2  0  0  0
  1 18  1  0  0  0
 18 19  1  0  0  0
 19 20  2  0  0  0
 20 21  1  0  0  0
 21 22  2  0  0  0
 22 25  1  0  0  0
 22 23  1  0  0  0
 25 26  1  0  0  0
 23 27  1  0  0  0
 23 24  2  0  0  0
 27 29  1  0  0  0
 29 30  1  0  0  0
 29 31  2  0  0  0
 29 32  2  0  0  0
 24 19  1  0  0  0
 10 16  1  0  0  0
 10 11  2  0  0  0
 16 17  1  0  0  0
 11  6  1  0  0  0
 27 28  1  0  0  0
M  END
>  <minimizedAffinity>
1.39727

>  <minimizedRMSD>
1.85554

$$$$
CHEMBL3912482 PubChem-56848944


 32 35  0  0  0  0  0  0  0  0999 V2000
   17.9558  -12.8999   15.4196 C   0  0  0  0  0  0  0  0  0  0  0  0
   17.9102  -11.5020   15.0210 N   0  0  0  0  0  0  0  0  0  0  0  0
   17.1270  -10.5672   15.7956 C   0  0  0  0  0  0  0  0  0  0  0  0
   16.1502   -9.7606   15.1911 C   0  0  0  0  0  0  0  0  0  0  0  0
   15.4079   -8.8710   15.9677 C   0  0  0  0  0  0  0  0  0  0  0  0
   15.6392   -8.7890   17.3416 C   0  0  0  0  0  0  0  0  0  0  0  0
   16.6170   -9.6028   17.9159 C   0  0  0  0  0  0  0  0  0  0  0  0
   17.3307  -10.4627   17.1407 N   0  0  0  0  0  0  0  0  0  0  0  0
   14.7091   -7.6885   18.3442 S   0  0  0  0  0  0  0  0  0  0  0  0
   15.5525   -7.2746   19.5168 O   0  0  0  0  0  0  0  0  0  0  0  0
   14.3471   -6.4612   17.5538 O   0  0  0  0  0  0  0  0  0  0  0  0
   13.2757   -8.4981   18.9304 N   0  0  0  0  0  0  0  0  0  0  0  0
   13.4652   -8.8426   19.8715 H   0  0  0  0  0  0  0  0  0  0  0  0
   12.0806   -7.6436   18.9841 C   0  0  0  0  0  0  0  0  0  0  0  0
   11.9072   -6.8159   17.7193 C   0  0  0  0  0  0  0  0  0  0  0  0
   10.8667   -8.5388   19.1155 C   0  0  0  0  0  0  0  0  0  0  0  0
   12.1157   -6.7368   20.2019 C   0  0  0  0  0  0  0  0  0  0  0  0
   18.6728  -11.1394   13.8244 C   0  0  0  0  0  0  0  0  0  0  0  0
   19.2568   -9.7357   13.9257 C   0  0  0  0  0  0  0  0  0  0  0  0
   19.0153   -9.0814   12.5780 C   0  0  0  0  0  0  0  0  0  0  0  0
   18.1098   -9.9589   11.8575 N   0  0  0  0  0  0  0  0  0  0  0  0
   17.8160  -11.1847   12.5727 C   0  0  0  0  0  0  0  0  0  0  0  0
   17.5590   -9.6809   10.5579 C   0  0  0  0  0  0  0  0  0  0  0  0
   16.3607  -10.2309   10.1934 N   0  0  0  0  0  0  0  0  0  0  0  0
   15.8017   -9.9942    8.9662 C   0  0  0  0  0  0  0  0  0  0  0  0
   16.4332   -9.1897    8.0623 N   0  0  0  0  0  0  0  0  0  0  0  0
   17.6193   -8.6352    8.4097 C   0  0  0  0  0  0  0  0  0  0  0  0
   18.3584   -7.8279    7.6376 N   0  0  0  0  0  0  0  0  0  0  0  0
   19.4401   -7.5327    8.4004 C   0  0  0  0  0  0  0  0  0  0  0  0
   19.3803   -8.1543    9.6504 C   0  0  0  0  0  0  0  0  0  0  0  0
   18.1954   -8.8564    9.6215 C   0  0  0  0  0  0  0  0  0  0  0  0
   18.1611   -7.5189    6.7239 H   0  0  0  0  0  0  0  0  0  0  0  0
  1  2  1  0  0  0
 18  2  1  0  0  0
 18 19  1  0  0  0
 19 20  1  0  0  0
 20 21  1  0  0  0
 21 22  1  0  0  0
 21 23  1  0  0  0
 23 24  2  0  0  0
 24 25  1  0  0  0
 25 26  2  0  0  0
 26 27  1  0  0  0
 27 28  1  0  0  0
 28 29  1  0  0  0
 29 30  2  0  0  0
 30 31  1  0  0  0
  2  3  1  0  0  0
  3  4  2  0  0  0
  4  5  1  0  0  0
  5  6  2  0  0  0
  6  7  1  0  0  0
  7  8  2  0  0  0
  6  9  1  0  0  0
  9 10  2  0  0  0
  9 11  2  0  0  0
  9 12  1  0  0  0
 12 14  1  0  0  0
 14 15  1  0  0  0
 14 16  1  0  0  0
 14 17  1  0  0  0
 22 18  1  0  0  0
 31 23  1  0  0  0
  8  3  1  0  0  0
 31 27  2  0  0  0
 28 32  1  0  0  0
 12 13  1  0  0  0
M  END
>  <minimizedAffinity>
-3.55560

>  <minimizedRMSD>
1.85563

$$$$
CHEMBL3582387 PubChem-122179522


 31 34  0  0  0  0  0  0  0  0999 V2000
   16.6636  -10.5263   15.4086 C   0  0  0  0  0  0  0  0  0  0  0  0
   17.4618  -11.5966   15.8241 C   0  0  0  0  0  0  0  0  0  0  0  0
   18.3478  -12.2141   14.9412 C   0  0  0  0  0  0  0  0  0  0  0  0
   18.4478  -11.7677   13.6240 C   0  0  0  0  0  0  0  0  0  0  0  0
   19.3172  -12.3788   12.7803 F   0  0  0  0  0  0  0  0  0  0  0  0
   17.6509  -10.7018   13.1837 C   0  0  0  0  0  0  0  0  0  0  0  0
   16.7531  -10.0814   14.0696 C   0  0  0  0  0  0  0  0  0  0  0  0
   15.9713   -9.0757   13.6055 F   0  0  0  0  0  0  0  0  0  0  0  0
   15.7870   -9.9410   16.3833 N   0  0  0  0  0  0  0  0  0  0  0  0
   14.9423  -10.4175   16.5529 H   0  0  0  0  0  0  0  0  0  0  0  0
   15.2852   -7.3578   16.6647 O   0  0  0  0  0  0  0  0  0  0  0  0
   16.0480   -8.4888   17.2962 S   0  0  0  0  0  0  0  0  0  0  0  0
   15.5420   -8.6974   18.6952 O   0  0  0  0  0  0  0  0  0  0  0  0
   17.7616   -8.1158   17.3719 C   0  0  0  0  0  0  0  0  0  0  0  0
   18.5996   -8.4258   16.2982 C   0  0  0  0  0  0  0  0  0  0  0  0
   19.9596   -8.1197   16.3665 C   0  0  0  0  0  0  0  0  0  0  0  0
   20.4633   -7.5063   17.5159 C   0  0  0  0  0  0  0  0  0  0  0  0
   19.6329   -7.2142   18.5533 N   0  0  0  0  0  0  0  0  0  0  0  0
   18.3046   -7.5042   18.5053 C   0  0  0  0  0  0  0  0  0  0  0  0
   17.7516  -10.2449   11.8207 C   0  0  0  0  0  0  0  0  0  0  0  0
   17.8369   -9.8597   10.6813 C   0  0  0  0  0  0  0  0  0  0  0  0
   17.9392   -9.3995    9.3262 C   0  0  0  0  0  0  0  0  0  0  0  0
   17.0012   -9.8312    8.3588 C   0  0  0  0  0  0  0  0  0  0  0  0
   17.0885   -9.3996    7.0636 N   0  0  0  0  0  0  0  0  0  0  0  0
   18.0917   -8.5510    6.7292 C   0  0  0  0  0  0  0  0  0  0  0  0
   18.3311   -8.0298    5.5200 N   0  0  0  0  0  0  0  0  0  0  0  0
   19.4078   -7.2581    5.6507 N   0  0  0  0  0  0  0  0  0  0  0  0
   19.8560   -7.2836    6.9337 C   0  0  0  0  0  0  0  0  0  0  0  0
   19.0099   -8.1154    7.6291 C   0  0  0  0  0  0  0  0  0  0  0  0
   18.9735   -8.5183    8.9582 C   0  0  0  0  0  0  0  0  0  0  0  0
   17.8136   -8.1862    4.6972 H   0  0  0  0  0  0  0  0  0  0  0  0
 11 12  2  0  0  0
 12 13  2  0  0  0
 12  9  1  0  0  0
  9  1  1  0  0  0
  1  2  2  0  0  0
  2  3  1  0  0  0
  3  4  2  0  0  0
  4  5  1  0  0  0
  4  6  1  0  0  0
  6 20  1  0  0  0
 20 21  3  0  0  0
 21 22  1  0  0  0
 22 23  2  0  0  0
 23 24  1  0  0  0
 24 25  2  0  0  0
 25 26  1  0  0  0
 26 27  1  0  0  0
 27 28  2  0  0  0
 28 29  1  0  0  0
 29 30  2  0  0  0
  6  7  2  0  0  0
  7  8  1  0  0  0
 12 14  1  0  0  0
 14 15  2  0  0  0
 15 16  1  0  0  0
 16 17  2  0  0  0
 17 18  1  0  0  0
 18 19  2  0  0  0
  7  1  1  0  0  0
 19 14  1  0  0  0
 30 22  1  0  0  0
 29 25  1  0  0  0
  9 10  1  0  0  0
 26 31  1  0  0  0
M  END
>  <minimizedAffinity>
-0.05461

>  <minimizedRMSD>
1.85615

$$$$
CHEMBL2063452 PubChem-70688644


 35 38  0  0  0  0  0  0  0  0999 V2000
   17.5563   -9.1332   14.4905 C   0  0  0  0  0  0  0  0  0  0  0  0
   18.3473   -9.9877   15.2735 C   0  0  0  0  0  0  0  0  0  0  0  0
   17.9779  -10.2861   16.5882 C   0  0  0  0  0  0  0  0  0  0  0  0
   16.8141   -9.7328   17.1287 C   0  0  0  0  0  0  0  0  0  0  0  0
   16.0170   -8.8841   16.3531 C   0  0  0  0  0  0  0  0  0  0  0  0
   16.3909   -8.5867   15.0384 C   0  0  0  0  0  0  0  0  0  0  0  0
   17.9142   -9.6958   12.0127 C   0  0  0  0  0  0  0  0  0  0  0  0
   17.6861  -10.9265   12.1667 O   0  0  0  0  0  0  0  0  0  0  0  0
   17.9002   -8.8062   13.1374 N   0  0  0  0  0  0  0  0  0  0  0  0
   18.1539   -7.8713   12.9618 H   0  0  0  0  0  0  0  0  0  0  0  0
   15.5476  -10.8627   10.1301 N   0  0  0  0  0  0  0  0  0  0  0  0
   16.2837  -10.0218    9.2501 C   0  0  0  0  0  0  0  0  0  0  0  0
   15.9800   -9.8729    7.9419 N   0  0  0  0  0  0  0  0  0  0  0  0
   16.9230   -9.1414    7.4119 O   0  0  0  0  0  0  0  0  0  0  0  0
   17.8181   -8.8255    8.3163 C   0  0  0  0  0  0  0  0  0  0  0  0
   18.9931   -8.1040    8.1339 C   0  0  0  0  0  0  0  0  0  0  0  0
   19.8299   -7.9360    9.2495 C   0  0  0  0  0  0  0  0  0  0  0  0
   19.4728   -8.4759   10.5036 C   0  0  0  0  0  0  0  0  0  0  0  0
   18.2687   -9.1913   10.6734 C   0  0  0  0  0  0  0  0  0  0  0  0
   17.4615   -9.3531    9.5316 C   0  0  0  0  0  0  0  0  0  0  0  0
   14.7163  -11.2906    9.8216 H   0  0  0  0  0  0  0  0  0  0  0  0
   15.8693  -11.0167   11.0477 H   0  0  0  0  0  0  0  0  0  0  0  0
   14.7838   -8.2789   16.9328 C   0  0  0  0  0  0  0  0  0  0  0  0
   15.0675   -7.6967   18.2376 N   0  0  0  0  0  0  0  0  0  0  0  0
   14.0992   -7.6360   19.2872 C   0  0  0  0  0  0  0  0  0  0  0  0
   12.9571   -8.1483   19.1394 O   0  0  0  0  0  0  0  0  0  0  0  0
   15.9655   -7.3290   18.4038 H   0  0  0  0  0  0  0  0  0  0  0  0
   14.4584   -6.9903   20.5818 C   0  0  0  0  0  0  0  0  0  0  0  0
   13.5555   -5.8372   20.8614 C   0  0  0  0  0  0  0  0  0  0  0  0
   13.7851   -5.0164   21.9730 C   0  0  0  0  0  0  0  0  0  0  0  0
   12.9292   -3.9427   22.2394 C   0  0  0  0  0  0  0  0  0  0  0  0
   11.8414   -3.6898   21.3967 C   0  0  0  0  0  0  0  0  0  0  0  0
   11.6083   -4.5113   20.2887 C   0  0  0  0  0  0  0  0  0  0  0  0
   10.5514   -4.2688   19.4762 F   0  0  0  0  0  0  0  0  0  0  0  0
   12.4630   -5.5857   20.0226 C   0  0  0  0  0  0  0  0  0  0  0  0
 11 12  1  0  0  0
 12 13  2  0  0  0
 13 14  1  0  0  0
 14 15  1  0  0  0
 15 16  2  0  0  0
 16 17  1  0  0  0
 17 18  2  0  0  0
 18 19  1  0  0  0
 19  7  1  0  0  0
 19 20  2  0  0  0
  7  8  2  0  0  0
  7  9  1  0  0  0
  9  1  1  0  0  0
  1  2  2  0  0  0
  2  3  1  0  0  0
  3  4  2  0  0  0
  4  5  1  0  0  0
  5 23  1  0  0  0
  5  6  2  0  0  0
 23 24  1  0  0  0
 24 25  1  0  0  0
 25 26  2  0  0  0
 25 28  1  0  0  0
 28 29  1  0  0  0
 29 30  2  0  0  0
 30 31  1  0  0  0
 31 32  2  0  0  0
 32 33  1  0  0  0
 33 34  1  0  0  0
 33 35  2  0  0  0
 35 29  1  0  0  0
  6  1  1  0  0  0
 20 12  1  0  0  0
 20 15  1  0  0  0
 11 21  1  0  0  0
 11 22  1  0  0  0
  9 10  1  0  0  0
 24 27  1  0  0  0
M  END
>  <minimizedAffinity>
-8.24483

>  <minimizedRMSD>
1.86027

$$$$
CHEMBL1884010 8583001 LN01059960 MCULE-3663123971 MolPort-004-901-648 PubChem-16033913 ZINC000008583001


 32 35  0  0  0  0  0  0  0  0999 V2000
   19.0493   -8.0338    7.4378 N   0  0  0  0  0  0  0  0  0  0  0  0
   19.8070   -7.4592    8.3695 N   0  0  0  0  0  0  0  0  0  0  0  0
   19.3631   -7.8204    9.6034 C   0  0  0  0  0  0  0  0  0  0  0  0
   18.2817   -8.6567    9.4095 C   0  0  0  0  0  0  0  0  0  0  0  0
   17.4286   -9.3280   10.2734 C   0  0  0  0  0  0  0  0  0  0  0  0
   16.4348  -10.0882    9.7208 N   0  0  0  0  0  0  0  0  0  0  0  0
   16.2848  -10.1856    8.3607 C   0  0  0  0  0  0  0  0  0  0  0  0
   17.1317   -9.5195    7.5190 N   0  0  0  0  0  0  0  0  0  0  0  0
   18.1160   -8.7662    8.0693 C   0  0  0  0  0  0  0  0  0  0  0  0
   19.2475   -7.8598    6.0232 C   0  0  0  0  0  0  0  0  0  0  0  0
   20.2962   -7.0512    5.5583 C   0  0  0  0  0  0  0  0  0  0  0  0
   20.5010   -6.8729    4.1871 C   0  0  0  0  0  0  0  0  0  0  0  0
   19.6584   -7.5019    3.2672 C   0  0  0  0  0  0  0  0  0  0  0  0
   18.6112   -8.3091    3.7184 C   0  0  0  0  0  0  0  0  0  0  0  0
   18.4070   -8.4870    5.0896 C   0  0  0  0  0  0  0  0  0  0  0  0
   19.8760   -7.3125    1.8096 C   0  0  0  0  0  0  0  0  0  0  0  0
   17.5837   -9.2230   11.6889 N   0  0  0  0  0  0  0  0  0  0  0  0
   17.8019   -8.3467   12.0810 H   0  0  0  0  0  0  0  0  0  0  0  0
   17.4296  -10.3700   12.5695 C   0  0  0  0  0  0  0  0  0  0  0  0
   18.2463  -10.1704   13.8374 C   0  0  0  0  0  0  0  0  0  0  0  0
   17.4157   -9.5985   14.9393 C   0  0  0  0  0  0  0  0  0  0  0  0
   16.5344   -8.5369   14.6955 C   0  0  0  0  0  0  0  0  0  0  0  0
   15.7770   -8.0000   15.7402 C   0  0  0  0  0  0  0  0  0  0  0  0
   15.9000   -8.5183   17.0343 C   0  0  0  0  0  0  0  0  0  0  0  0
   16.7890   -9.5703   17.2804 C   0  0  0  0  0  0  0  0  0  0  0  0
   17.5467  -10.1076   16.2355 C   0  0  0  0  0  0  0  0  0  0  0  0
   14.9567   -7.8465   18.3518 S   0  0  0  0  0  0  0  0  0  0  0  0
   16.0190   -7.2465   19.5743 N   0  0  0  0  0  0  0  0  0  0  0  0
   14.1002   -6.7202   17.8450 O   0  0  0  0  0  0  0  0  0  0  0  0
   14.0702   -8.9130   18.9303 O   0  0  0  0  0  0  0  0  0  0  0  0
   16.6190   -6.5231   19.1782 H   0  0  0  0  0  0  0  0  0  0  0  0
   16.5953   -8.0099   19.9286 H   0  0  0  0  0  0  0  0  0  0  0  0
  1 10  1  0  0  0
 10 11  2  0  0  0
 11 12  1  0  0  0
 12 13  2  0  0  0
 13 14  1  0  0  0
 14 15  2  0  0  0
 13 16  1  0  0  0
  1  2  1  0  0  0
  2  3  2  0  0  0
  3  4  1  0  0  0
  4  5  2  0  0  0
  5 17  1  0  0  0
 17 19  1  0  0  0
 19 20  1  0  0  0
 20 21  1  0  0  0
 21 22  2  0  0  0
 22 23  1  0  0  0
 23 24  2  0  0  0
 24 25  1  0  0  0
 25 26  2  0  0  0
 24 27  1  0  0  0
 27 28  1  0  0  0
 27 29  2  0  0  0
 27 30  2  0  0  0
  5  6  1  0  0  0
  6  7  2  0  0  0
  7  8  1  0  0  0
  8  9  2  0  0  0
  9  1  1  0  0  0
 15 10  1  0  0  0
  9  4  1  0  0  0
 26 21  1  0  0  0
 17 18  1  0  0  0
 28 31  1  0  0  0
 28 32  1  0  0  0
M  END
>  <minimizedAffinity>
-7.59292

>  <minimizedRMSD>
1.86064

$$$$
CHEMBL3582388 PubChem-122179523


 31 34  0  0  0  0  0  0  0  0999 V2000
   16.6594  -10.5265   15.4145 C   0  0  0  0  0  0  0  0  0  0  0  0
   17.4561  -11.5970   15.8325 C   0  0  0  0  0  0  0  0  0  0  0  0
   18.3427  -12.2164   14.9516 C   0  0  0  0  0  0  0  0  0  0  0  0
   18.4447  -11.7719   13.6338 C   0  0  0  0  0  0  0  0  0  0  0  0
   19.3144  -12.3850   12.7919 F   0  0  0  0  0  0  0  0  0  0  0  0
   17.6490  -10.7061   13.1910 C   0  0  0  0  0  0  0  0  0  0  0  0
   16.7509  -10.0835   14.0750 C   0  0  0  0  0  0  0  0  0  0  0  0
   15.9698   -9.0785   13.6084 F   0  0  0  0  0  0  0  0  0  0  0  0
   15.7819   -9.9392   16.3872 N   0  0  0  0  0  0  0  0  0  0  0  0
   14.9361  -10.4142   16.5555 H   0  0  0  0  0  0  0  0  0  0  0  0
   15.2810   -7.3558   16.6680 O   0  0  0  0  0  0  0  0  0  0  0  0
   16.0438   -8.4868   17.2995 S   0  0  0  0  0  0  0  0  0  0  0  0
   15.5385   -8.6944   18.6989 O   0  0  0  0  0  0  0  0  0  0  0  0
   17.7576   -8.1146   17.3740 C   0  0  0  0  0  0  0  0  0  0  0  0
   18.5946   -8.4253   16.2997 C   0  0  0  0  0  0  0  0  0  0  0  0
   19.9549   -8.1204   16.3671 C   0  0  0  0  0  0  0  0  0  0  0  0
   20.4598   -7.5071   17.5161 C   0  0  0  0  0  0  0  0  0  0  0  0
   19.6303   -7.2142   18.5540 N   0  0  0  0  0  0  0  0  0  0  0  0
   18.3019   -7.5034   18.5070 C   0  0  0  0  0  0  0  0  0  0  0  0
   17.7507  -10.2518   11.8272 C   0  0  0  0  0  0  0  0  0  0  0  0
   17.8367   -9.8685   10.6873 C   0  0  0  0  0  0  0  0  0  0  0  0
   17.9395   -9.4099    9.3317 C   0  0  0  0  0  0  0  0  0  0  0  0
   17.0002   -9.8360    8.3666 C   0  0  0  0  0  0  0  0  0  0  0  0
   17.0904   -9.4038    7.0728 N   0  0  0  0  0  0  0  0  0  0  0  0
   18.0959   -8.5596    6.7305 C   0  0  0  0  0  0  0  0  0  0  0  0
   18.3131   -8.0535    5.5101 N   0  0  0  0  0  0  0  0  0  0  0  0
   19.4159   -7.2765    5.6628 C   0  0  0  0  0  0  0  0  0  0  0  0
   19.8921   -7.2937    6.9782 C   0  0  0  0  0  0  0  0  0  0  0  0
   19.0185   -8.1280    7.6321 C   0  0  0  0  0  0  0  0  0  0  0  0
   18.9758   -8.5347    8.9611 C   0  0  0  0  0  0  0  0  0  0  0  0
   17.7921   -8.2091    4.6894 H   0  0  0  0  0  0  0  0  0  0  0  0
 11 12  2  0  0  0
 12 13  2  0  0  0
 12  9  1  0  0  0
  9  1  1  0  0  0
  1  2  2  0  0  0
  2  3  1  0  0  0
  3  4  2  0  0  0
  4  5  1  0  0  0
  4  6  1  0  0  0
  6 20  1  0  0  0
 20 21  3  0  0  0
 21 22  1  0  0  0
 22 23  2  0  0  0
 23 24  1  0  0  0
 24 25  2  0  0  0
 25 26  1  0  0  0
 26 27  1  0  0  0
 27 28  2  0  0  0
 28 29  1  0  0  0
 29 30  2  0  0  0
  6  7  2  0  0  0
  7  8  1  0  0  0
 12 14  1  0  0  0
 14 15  2  0  0  0
 15 16  1  0  0  0
 16 17  2  0  0  0
 17 18  1  0  0  0
 18 19  2  0  0  0
  7  1  1  0  0  0
 19 14  1  0  0  0
 30 22  1  0  0  0
 29 25  1  0  0  0
  9 10  1  0  0  0
 26 31  1  0  0  0
M  END
>  <minimizedAffinity>
-0.20826

>  <minimizedRMSD>
1.86111

$$$$
CHEMBL1365143 4411575 MCULE-3402660761 MolPort-000-101-090 PubChem-647741 ZINC000004411575 ZINC04411575


 29 32  0  0  0  0  0  0  0  0999 V2000
   18.0848  -10.7121   10.7255 S   0  0  0  0  0  0  0  0  0  0  0  0
   17.1613   -9.8195    9.4803 C   0  0  0  0  0  0  0  0  0  0  0  0
   15.9134  -10.1751    9.0828 N   0  0  0  0  0  0  0  0  0  0  0  0
   15.5622   -9.3755    8.0765 N   0  0  0  0  0  0  0  0  0  0  0  0
   16.6127   -8.5589    7.9078 C   0  0  0  0  0  0  0  0  0  0  0  0
   16.9756   -7.4125    6.7497 S   0  0  0  0  0  0  0  0  0  0  0  0
   18.5539   -7.1922    7.3826 C   0  0  0  0  0  0  0  0  0  0  0  0
   18.7210   -8.0493    8.4887 C   0  0  0  0  0  0  0  0  0  0  0  0
   17.6077   -8.7913    8.7363 N   0  0  0  0  0  0  0  0  0  0  0  0
   19.9780   -8.1142    9.2553 C   0  0  0  0  0  0  0  0  0  0  0  0
   19.9790   -7.9670   10.6477 C   0  0  0  0  0  0  0  0  0  0  0  0
   21.1831   -7.9742   11.3596 C   0  0  0  0  0  0  0  0  0  0  0  0
   22.3963   -8.1129   10.6801 C   0  0  0  0  0  0  0  0  0  0  0  0
   22.4055   -8.2411    9.2884 C   0  0  0  0  0  0  0  0  0  0  0  0
   21.2014   -8.2347    8.5786 C   0  0  0  0  0  0  0  0  0  0  0  0
   17.2344   -9.8453   12.0790 C   0  0  0  0  0  0  0  0  0  0  0  0
   17.7090  -10.3649   13.3958 C   0  0  0  0  0  0  0  0  0  0  0  0
   18.5515  -11.3044   13.4146 O   0  0  0  0  0  0  0  0  0  0  0  0
   16.2730   -8.7205   17.0898 C   0  0  0  0  0  0  0  0  0  0  0  0
   16.9478   -9.9455   17.0729 C   0  0  0  0  0  0  0  0  0  0  0  0
   17.4132  -10.4803   15.8689 C   0  0  0  0  0  0  0  0  0  0  0  0
   17.2099   -9.7960   14.6624 C   0  0  0  0  0  0  0  0  0  0  0  0
   16.5261   -8.5716   14.6791 C   0  0  0  0  0  0  0  0  0  0  0  0
   16.0618   -8.0371   15.8833 C   0  0  0  0  0  0  0  0  0  0  0  0
   14.2751   -7.0431   19.9680 C   0  0  0  0  0  0  0  0  0  0  0  0
   14.5948   -7.4907   18.5874 C   0  0  0  0  0  0  0  0  0  0  0  0
   13.7922   -7.2297   17.6523 O   0  0  0  0  0  0  0  0  0  0  0  0
   15.8169   -8.2007   18.3452 N   0  0  0  0  0  0  0  0  0  0  0  0
   16.4037   -8.3462   19.1222 H   0  0  0  0  0  0  0  0  0  0  0  0
 25 26  1  0  0  0
 26 27  2  0  0  0
 26 28  1  0  0  0
 28 19  1  0  0  0
 19 20  2  0  0  0
 20 21  1  0  0  0
 21 22  2  0  0  0
 22 23  1  0  0  0
 22 17  1  0  0  0
 23 24  2  0  0  0
 24 19  1  0  0  0
 17 18  2  0  0  0
 17 16  1  0  0  0
 16  1  1  0  0  0
  1  2  1  0  0  0
  2  3  2  0  0  0
  3  4  1  0  0  0
  4  5  2  0  0  0
  5  6  1  0  0  0
  6  7  1  0  0  0
  7  8  2  0  0  0
  8  9  1  0  0  0
  8 10  1  0  0  0
  9  2  1  0  0  0
  9  5  1  0  0  0
 10 11  2  0  0  0
 11 12  1  0  0  0
 12 13  2  0  0  0
 13 14  1  0  0  0
 14 15  2  0  0  0
 15 10  1  0  0  0
 28 29  1  0  0  0
M  END
>  <minimizedAffinity>
4.96600

>  <minimizedRMSD>
1.86231

$$$$
CHEMBL3985350 PubChem-127053800


 38 42  0  0  0  0  0  0  0  0999 V2000
   17.2271  -10.6730   15.7406 C   0  0  0  0  0  0  0  0  0  0  0  0
   17.5311  -10.5237   17.1015 C   0  0  0  0  0  0  0  0  0  0  0  0
   16.7994   -9.6261   17.8786 C   0  0  0  0  0  0  0  0  0  0  0  0
   15.7642   -8.8815   17.3056 C   0  0  0  0  0  0  0  0  0  0  0  0
   15.4882   -9.0557   15.9449 C   0  0  0  0  0  0  0  0  0  0  0  0
   16.2152   -9.9338   15.2037 N   0  0  0  0  0  0  0  0  0  0  0  0
   14.9867   -7.9288   18.1157 C   0  0  0  0  0  0  0  0  0  0  0  0
   14.3119   -7.0275   17.5487 O   0  0  0  0  0  0  0  0  0  0  0  0
   14.9994   -8.0330   19.5463 N   0  0  0  0  0  0  0  0  0  0  0  0
   15.5002   -8.7842   19.9389 H   0  0  0  0  0  0  0  0  0  0  0  0
   14.3318   -7.1185   20.4700 C   0  0  0  0  0  0  0  0  0  0  0  0
   15.2681   -6.6179   21.5382 C   0  0  0  0  0  0  0  0  0  0  0  0
   16.6583   -6.7161   21.3704 C   0  0  0  0  0  0  0  0  0  0  0  0
   17.5275   -6.2524   22.3613 C   0  0  0  0  0  0  0  0  0  0  0  0
   17.0149   -5.6878   23.5304 C   0  0  0  0  0  0  0  0  0  0  0  0
   15.6327   -5.5922   23.7114 C   0  0  0  0  0  0  0  0  0  0  0  0
   14.7569   -6.0546   22.7235 C   0  0  0  0  0  0  0  0  0  0  0  0
   13.0278   -5.9097   23.0025 Cl  0  0  0  0  0  0  0  0  0  0  0  0
   13.5845   -6.0102   19.7347 C   0  0  0  0  0  0  0  0  0  0  0  0
   12.2288   -6.3260   19.6444 O   0  0  0  0  0  0  0  0  0  0  0  0
   12.1222   -7.1565   19.1548 H   0  0  0  0  0  0  0  0  0  0  0  0
   18.0150  -13.0135   15.2499 C   0  0  0  0  0  0  0  0  0  0  0  0
   17.9729  -11.5963   14.9179 N   0  0  0  0  0  0  0  0  0  0  0  0
   18.7160  -11.1807   13.7282 C   0  0  0  0  0  0  0  0  0  0  0  0
   19.2619   -9.7653   13.8684 C   0  0  0  0  0  0  0  0  0  0  0  0
   18.9695   -9.0656   12.5539 C   0  0  0  0  0  0  0  0  0  0  0  0
   18.0869   -9.9480   11.8126 N   0  0  0  0  0  0  0  0  0  0  0  0
   17.8457  -11.2090   12.4847 C   0  0  0  0  0  0  0  0  0  0  0  0
   17.5493   -9.6605   10.5099 C   0  0  0  0  0  0  0  0  0  0  0  0
   16.3555  -10.2083   10.1287 N   0  0  0  0  0  0  0  0  0  0  0  0
   15.8169   -9.9742    8.8919 C   0  0  0  0  0  0  0  0  0  0  0  0
   16.4631   -9.1725    7.9965 N   0  0  0  0  0  0  0  0  0  0  0  0
   17.6445   -8.6197    8.3612 C   0  0  0  0  0  0  0  0  0  0  0  0
   18.3947   -7.8116    7.6001 N   0  0  0  0  0  0  0  0  0  0  0  0
   19.4590   -7.5077    8.3837 C   0  0  0  0  0  0  0  0  0  0  0  0
   19.3792   -8.1273    9.6336 C   0  0  0  0  0  0  0  0  0  0  0  0
   18.2014   -8.8390    9.5822 C   0  0  0  0  0  0  0  0  0  0  0  0
   18.2144   -7.5077    6.6812 H   0  0  0  0  0  0  0  0  0  0  0  0
 22 23  1  0  0  0
 24 23  1  0  0  0
 24 25  1  0  0  0
 25 26  1  0  0  0
 26 27  1  0  0  0
 27 28  1  0  0  0
 27 29  1  0  0  0
 29 30  2  0  0  0
 30 31  1  0  0  0
 31 32  2  0  0  0
 32 33  1  0  0  0
 33 34  1  0  0  0
 34 35  1  0  0  0
 35 36  2  0  0  0
 36 37  1  0  0  0
 23  1  1  0  0  0
  1  2  2  0  0  0
  2  3  1  0  0  0
  3  4  2  0  0  0
  4  5  1  0  0  0
  5  6  2  0  0  0
  4  7  1  0  0  0
  7  8  2  0  0  0
  7  9  1  0  0  0
  9 11  1  0  0  0
 11 19  1  0  0  0
 19 20  1  0  0  0
 11 12  1  0  0  0
 12 13  2  0  0  0
 13 14  1  0  0  0
 14 15  2  0  0  0
 15 16  1  0  0  0
 16 17  2  0  0  0
 17 18  1  0  0  0
 28 24  1  0  0  0
 37 29  1  0  0  0
  6  1  1  0  0  0
 17 12  1  0  0  0
 37 33  2  0  0  0
 34 38  1  0  0  0
  9 10  1  0  0  0
 20 21  1  0  0  0
M  END
>  <minimizedAffinity>
-6.26172

>  <minimizedRMSD>
1.86232

$$$$
CHEMBL3917322 PubChem-71680140


 35 40  0  0  0  0  0  0  0  0999 V2000
   15.8583   -8.2781   12.4833 C   0  0  0  0  0  0  0  0  0  0  0  0
   17.2407   -8.6153   13.0459 C   0  0  0  0  0  0  0  0  0  0  0  0
   17.1018   -9.3576   14.2963 N   0  0  0  0  0  0  0  0  0  0  0  0
   16.2734  -10.5618   14.2947 C   0  0  0  0  0  0  0  0  0  0  0  0
   14.8904  -10.2352   13.7366 C   0  0  0  0  0  0  0  0  0  0  0  0
   15.0286   -9.4841   12.4891 N   0  0  0  0  0  0  0  0  0  0  0  0
   14.4518   -9.9895   11.2751 C   0  0  0  0  0  0  0  0  0  0  0  0
   13.7493  -11.0355   11.2961 O   0  0  0  0  0  0  0  0  0  0  0  0
   18.0419   -9.1355   15.3534 C   0  0  0  0  0  0  0  0  0  0  0  0
   17.7590   -8.7712   16.6716 C   0  0  0  0  0  0  0  0  0  0  0  0
   18.8530   -8.7349   17.4817 N   0  0  0  0  0  0  0  0  0  0  0  0
   20.0049   -9.0548   16.8461 C   0  0  0  0  0  0  0  0  0  0  0  0
   19.6960   -9.3987   15.2275 S   0  0  0  0  0  0  0  0  0  0  0  0
   16.4359   -8.3669   17.1769 C   0  0  0  0  0  0  0  0  0  0  0  0
   15.4084   -7.9951   16.3677 N   0  0  0  0  0  0  0  0  0  0  0  0
   14.4454   -7.6780   17.2429 C   0  0  0  0  0  0  0  0  0  0  0  0
   13.1566   -7.2310   16.9639 C   0  0  0  0  0  0  0  0  0  0  0  0
   12.3179   -6.9543   18.0597 C   0  0  0  0  0  0  0  0  0  0  0  0
   12.7842   -7.1281   19.3824 C   0  0  0  0  0  0  0  0  0  0  0  0
   14.0947   -7.5809   19.6249 C   0  0  0  0  0  0  0  0  0  0  0  0
   14.8946   -7.8461   18.5163 C   0  0  0  0  0  0  0  0  0  0  0  0
   16.1632   -8.2781   18.5064 N   0  0  0  0  0  0  0  0  0  0  0  0
   16.7505   -8.4805   19.2701 H   0  0  0  0  0  0  0  0  0  0  0  0
   15.7310   -5.8163   12.8733 C   0  0  0  0  0  0  0  0  0  0  0  0
   15.1899   -7.1709   13.2885 C   0  0  0  0  0  0  0  0  0  0  0  0
   14.6995   -9.3166    9.9617 C   0  0  0  0  0  0  0  0  0  0  0  0
   15.9785   -9.7411    9.4108 N   0  0  0  0  0  0  0  0  0  0  0  0
   16.3163  -10.9774    8.9643 C   0  0  0  0  0  0  0  0  0  0  0  0
   17.6092  -11.0406    8.5358 N   0  0  0  0  0  0  0  0  0  0  0  0
   18.0660   -9.7902    8.7342 C   0  0  0  0  0  0  0  0  0  0  0  0
   17.0875   -9.0126    9.2576 C   0  0  0  0  0  0  0  0  0  0  0  0
   17.2686   -7.7024    9.5579 N   0  0  0  0  0  0  0  0  0  0  0  0
   18.4964   -7.1460    9.3257 C   0  0  0  0  0  0  0  0  0  0  0  0
   19.5476   -7.9227    8.7832 C   0  0  0  0  0  0  0  0  0  0  0  0
   19.3334   -9.2802    8.4769 C   0  0  0  0  0  0  0  0  0  0  0  0
 24 25  1  0  0  0
  1 25  1  0  0  0
  1  2  1  0  0  0
  2  3  1  0  0  0
  3  4  1  0  0  0
  3  9  1  0  0  0
  4  5  1  0  0  0
  5  6  1  0  0  0
  6  7  1  0  0  0
  6  1  1  0  0  0
  7  8  2  0  0  0
  7 26  1  0  0  0
 26 27  1  0  0  0
 27 28  1  0  0  0
 28 29  2  0  0  0
 29 30  1  0  0  0
 30 31  2  0  0  0
 31 32  1  0  0  0
 31 27  1  0  0  0
 32 33  2  0  0  0
 33 34  1  0  0  0
 34 35  2  0  0  0
 35 30  1  0  0  0
  9 10  2  0  0  0
 10 11  1  0  0  0
 10 14  1  0  0  0
 11 12  2  0  0  0
 12 13  1  0  0  0
 13  9  1  0  0  0
 14 15  2  0  0  0
 15 16  1  0  0  0
 16 17  2  0  0  0
 17 18  1  0  0  0
 18 19  2  0  0  0
 19 20  1  0  0  0
 20 21  2  0  0  0
 21 22  1  0  0  0
 21 16  1  0  0  0
 22 14  1  0  0  0
 22 23  1  0  0  0
M  END
>  <minimizedAffinity>
10.85432

>  <minimizedRMSD>
1.86314

$$$$
CHEMBL1592520 8607409 ChemDiv-G357-2492 MCULE-1622500149 MolPort-007-847-828 PubChem-16027573 ZINC000008607409 ZINC08607409


 34 38  0  0  0  0  0  0  0  0999 V2000
   17.2743   -9.7979   14.4386 C   0  0  0  0  0  0  0  0  0  0  0  0
   18.1655  -10.6832   14.5633 O   0  0  0  0  0  0  0  0  0  0  0  0
   15.4597   -8.0626   17.9117 C   0  0  0  0  0  0  0  0  0  0  0  0
   15.1480   -7.5824   16.6313 C   0  0  0  0  0  0  0  0  0  0  0  0
   15.7405   -8.1495   15.4999 C   0  0  0  0  0  0  0  0  0  0  0  0
   16.6525   -9.2042   15.6331 C   0  0  0  0  0  0  0  0  0  0  0  0
   16.9640   -9.6841   16.9128 C   0  0  0  0  0  0  0  0  0  0  0  0
   16.3705   -9.1158   18.0435 C   0  0  0  0  0  0  0  0  0  0  0  0
   13.0322   -6.4197   18.1324 O   0  0  0  0  0  0  0  0  0  0  0  0
   13.6835   -6.7053   19.1741 C   0  0  0  0  0  0  0  0  0  0  0  0
   14.8727   -7.5064   19.0960 N   0  0  0  0  0  0  0  0  0  0  0  0
   15.3338   -7.6936   19.9455 H   0  0  0  0  0  0  0  0  0  0  0  0
   13.2199   -6.2125   20.4833 C   0  0  0  0  0  0  0  0  0  0  0  0
   13.8269   -6.6618   21.6651 C   0  0  0  0  0  0  0  0  0  0  0  0
   13.3879   -6.1950   22.9076 C   0  0  0  0  0  0  0  0  0  0  0  0
   12.3382   -5.2751   22.9774 C   0  0  0  0  0  0  0  0  0  0  0  0
   11.7276   -4.8220   21.8051 C   0  0  0  0  0  0  0  0  0  0  0  0
   12.1666   -5.2888   20.5626 C   0  0  0  0  0  0  0  0  0  0  0  0
   16.8737   -9.3765   13.1687 O   0  0  0  0  0  0  0  0  0  0  0  0
   16.4227  -10.2915   12.1808 C   0  0  0  0  0  0  0  0  0  0  0  0
   16.9317   -9.8749   10.8476 C   0  0  0  0  0  0  0  0  0  0  0  0
   16.2592  -10.2796    9.6869 C   0  0  0  0  0  0  0  0  0  0  0  0
   16.7384   -9.8535    8.4441 C   0  0  0  0  0  0  0  0  0  0  0  0
   16.1464  -10.2168    7.3931 O   0  0  0  0  0  0  0  0  0  0  0  0
   17.8434   -9.0496    8.3983 N   0  0  0  0  0  0  0  0  0  0  0  0
   18.4641   -8.6693    9.5425 C   0  0  0  0  0  0  0  0  0  0  0  0
   19.7943   -7.6780    9.2643 S   0  0  0  0  0  0  0  0  0  0  0  0
   19.5572   -7.7183    7.5940 C   0  0  0  0  0  0  0  0  0  0  0  0
   18.4650   -8.5336    7.2956 C   0  0  0  0  0  0  0  0  0  0  0  0
   17.9897   -8.7137    5.8783 C   0  0  0  0  0  0  0  0  0  0  0  0
   19.1020   -8.3944    4.8739 C   0  0  0  0  0  0  0  0  0  0  0  0
   19.7558   -7.0501    5.2038 C   0  0  0  0  0  0  0  0  0  0  0  0
   20.4566   -7.1088    6.5642 C   0  0  0  0  0  0  0  0  0  0  0  0
   18.0236   -9.0671   10.7610 N   0  0  0  0  0  0  0  0  0  0  0  0
  9 10  2  0  0  0
 10 11  1  0  0  0
 10 13  1  0  0  0
 11  3  1  0  0  0
  3  4  2  0  0  0
  4  5  1  0  0  0
  5  6  2  0  0  0
  6  7  1  0  0  0
  6  1  1  0  0  0
  7  8  2  0  0  0
  8  3  1  0  0  0
  1  2  2  0  0  0
  1 19  1  0  0  0
 19 20  1  0  0  0
 20 21  1  0  0  0
 21 22  2  0  0  0
 22 23  1  0  0  0
 23 24  2  0  0  0
 23 25  1  0  0  0
 25 26  1  0  0  0
 26 27  1  0  0  0
 26 34  2  0  0  0
 27 28  1  0  0  0
 28 29  2  0  0  0
 29 30  1  0  0  0
 29 25  1  0  0  0
 30 31  1  0  0  0
 31 32  1  0  0  0
 32 33  1  0  0  0
 33 28  1  0  0  0
 34 21  1  0  0  0
 13 14  2  0  0  0
 14 15  1  0  0  0
 15 16  2  0  0  0
 16 17  1  0  0  0
 17 18  2  0  0  0
 18 13  1  0  0  0
 11 12  1  0  0  0
M  END
>  <minimizedAffinity>
-6.72097

>  <minimizedRMSD>
1.86964

$$$$
CHEMBL3582386 PubChem-122179521


 31 34  0  0  0  0  0  0  0  0999 V2000
   16.7283  -10.5624   15.3863 C   0  0  0  0  0  0  0  0  0  0  0  0
   17.5020  -11.6583   15.7809 C   0  0  0  0  0  0  0  0  0  0  0  0
   18.3622  -12.2881   14.8814 C   0  0  0  0  0  0  0  0  0  0  0  0
   18.4599  -11.8291   13.5683 C   0  0  0  0  0  0  0  0  0  0  0  0
   19.3042  -12.4525   12.7082 F   0  0  0  0  0  0  0  0  0  0  0  0
   17.6856  -10.7384   13.1486 C   0  0  0  0  0  0  0  0  0  0  0  0
   16.8138  -10.1054   14.0512 C   0  0  0  0  0  0  0  0  0  0  0  0
   16.0477   -9.0793   13.6059 F   0  0  0  0  0  0  0  0  0  0  0  0
   15.8772   -9.9654   16.3761 N   0  0  0  0  0  0  0  0  0  0  0  0
   15.0292  -10.4300   16.5617 H   0  0  0  0  0  0  0  0  0  0  0  0
   15.4151   -7.3751   16.6676 O   0  0  0  0  0  0  0  0  0  0  0  0
   16.1766   -8.5162   17.2817 S   0  0  0  0  0  0  0  0  0  0  0  0
   15.7019   -8.7155   18.6929 O   0  0  0  0  0  0  0  0  0  0  0  0
   17.8943   -8.1623   17.3148 C   0  0  0  0  0  0  0  0  0  0  0  0
   18.6918   -8.4644   16.2074 C   0  0  0  0  0  0  0  0  0  0  0  0
   20.0549   -8.1674   16.2468 C   0  0  0  0  0  0  0  0  0  0  0  0
   20.6048   -7.5755   17.3852 C   0  0  0  0  0  0  0  0  0  0  0  0
   19.7763   -7.2896   18.4726 C   0  0  0  0  0  0  0  0  0  0  0  0
   18.4499   -7.5864   18.4159 N   0  0  0  0  0  0  0  0  0  0  0  0
   17.7817  -10.2699   11.7891 C   0  0  0  0  0  0  0  0  0  0  0  0
   17.8630   -9.8746   10.6530 C   0  0  0  0  0  0  0  0  0  0  0  0
   17.9605   -9.4019    9.3018 C   0  0  0  0  0  0  0  0  0  0  0  0
   17.0144   -9.8186    8.3354 C   0  0  0  0  0  0  0  0  0  0  0  0
   17.0970   -9.3746    7.0441 N   0  0  0  0  0  0  0  0  0  0  0  0
   18.1032   -8.5287    6.7125 C   0  0  0  0  0  0  0  0  0  0  0  0
   18.3387   -7.9968    5.5072 N   0  0  0  0  0  0  0  0  0  0  0  0
   19.4205   -7.2324    5.6395 N   0  0  0  0  0  0  0  0  0  0  0  0
   19.8757   -7.2733    6.9198 C   0  0  0  0  0  0  0  0  0  0  0  0
   19.0289   -8.1072    7.6115 C   0  0  0  0  0  0  0  0  0  0  0  0
   18.9977   -8.5230    8.9367 C   0  0  0  0  0  0  0  0  0  0  0  0
   17.8157   -8.1420    4.6858 H   0  0  0  0  0  0  0  0  0  0  0  0
 11 12  2  0  0  0
 12 13  2  0  0  0
 12  9  1  0  0  0
  9  1  1  0  0  0
  1  2  2  0  0  0
  2  3  1  0  0  0
  3  4  2  0  0  0
  4  5  1  0  0  0
  4  6  1  0  0  0
  6 20  1  0  0  0
 20 21  3  0  0  0
 21 22  1  0  0  0
 22 23  2  0  0  0
 23 24  1  0  0  0
 24 25  2  0  0  0
 25 26  1  0  0  0
 26 27  1  0  0  0
 27 28  2  0  0  0
 28 29  1  0  0  0
 29 30  2  0  0  0
  6  7  2  0  0  0
  7  8  1  0  0  0
 12 14  1  0  0  0
 14 15  2  0  0  0
 15 16  1  0  0  0
 16 17  2  0  0  0
 17 18  1  0  0  0
 18 19  2  0  0  0
  7  1  1  0  0  0
 19 14  1  0  0  0
 30 22  1  0  0  0
 29 25  1  0  0  0
  9 10  1  0  0  0
 26 31  1  0  0  0
M  END
>  <minimizedAffinity>
0.17258

>  <minimizedRMSD>
1.87531

$$$$
CHEMBL3780933


 32 34  0  0  0  0  0  0  0  0999 V2000
   17.8670  -10.6289   14.4852 C   0  0  0  0  0  0  0  0  0  0  0  0
   18.2444  -11.4854   15.5248 C   0  0  0  0  0  0  0  0  0  0  0  0
   17.7802  -11.2562   16.8235 C   0  0  0  0  0  0  0  0  0  0  0  0
   16.9435  -10.1668   17.0847 C   0  0  0  0  0  0  0  0  0  0  0  0
   16.5744   -9.3020   16.0480 C   0  0  0  0  0  0  0  0  0  0  0  0
   17.0373   -9.5341   14.7484 C   0  0  0  0  0  0  0  0  0  0  0  0
   18.3813  -10.8578   13.1088 C   0  0  0  0  0  0  0  0  0  0  0  0
   18.0795   -9.7350   12.2936 O   0  0  0  0  0  0  0  0  0  0  0  0
   16.3900   -9.4899    9.0686 C   0  0  0  0  0  0  0  0  0  0  0  0
   16.8658   -9.1281    7.8714 N   0  0  0  0  0  0  0  0  0  0  0  0
   18.1741   -8.8647    8.1440 C   0  0  0  0  0  0  0  0  0  0  0  0
   18.5156   -9.0493    9.4497 N   0  0  0  0  0  0  0  0  0  0  0  0
   17.3611   -9.4443   10.0017 C   0  0  0  0  0  0  0  0  0  0  0  0
   17.0828   -9.7794   11.3187 C   0  0  0  0  0  0  0  0  0  0  0  0
   15.8004  -10.1512   11.6187 N   0  0  0  0  0  0  0  0  0  0  0  0
   14.8258  -10.1912   10.6537 C   0  0  0  0  0  0  0  0  0  0  0  0
   15.1189   -9.8569    9.3601 N   0  0  0  0  0  0  0  0  0  0  0  0
   13.5029  -10.5811   11.0007 N   0  0  0  0  0  0  0  0  0  0  0  0
   16.3906   -9.0675    7.0113 H   0  0  0  0  0  0  0  0  0  0  0  0
   13.2888  -10.8222   11.9309 H   0  0  0  0  0  0  0  0  0  0  0  0
   12.8012  -10.6099   10.3108 H   0  0  0  0  0  0  0  0  0  0  0  0
   15.6712   -8.1479   16.3224 C   0  0  0  0  0  0  0  0  0  0  0  0
   15.5234   -7.9516   17.7580 N   0  0  0  0  0  0  0  0  0  0  0  0
   14.3541   -7.3722   18.3469 C   0  0  0  0  0  0  0  0  0  0  0  0
   13.4273   -6.9358   17.6113 O   0  0  0  0  0  0  0  0  0  0  0  0
   14.2362   -7.2803   19.7722 N   0  0  0  0  0  0  0  0  0  0  0  0
   16.2599   -8.2294   18.3493 H   0  0  0  0  0  0  0  0  0  0  0  0
   13.0839   -6.7072   20.3354 N   0  0  0  0  0  0  0  0  0  0  0  0
   12.4191   -7.3115   21.2025 O   0  0  0  0  0  0  0  0  0  0  0  0
   15.2758   -7.8374   20.6308 C   0  0  0  0  0  0  0  0  0  0  0  0
   15.7250   -6.7974   21.6391 C   0  0  0  0  0  0  0  0  0  0  0  0
   15.2903   -7.3353   23.2762 Cl  0  0  0  0  0  0  0  0  0  0  0  0
  9 10  1  0  0  0
 10 11  1  0  0  0
 11 12  2  0  0  0
 12 13  1  0  0  0
 13 14  1  0  0  0
 14 15  2  0  0  0
 15 16  1  0  0  0
 16 17  2  0  0  0
 16 18  1  0  0  0
 14  8  1  0  0  0
  8  7  1  0  0  0
  7  1  1  0  0  0
  1  2  2  0  0  0
  2  3  1  0  0  0
  3  4  2  0  0  0
  4  5  1  0  0  0
  5  6  2  0  0  0
  5 22  1  0  0  0
 22 23  1  0  0  0
 23 24  1  0  0  0
 24 25  2  0  0  0
 24 26  1  0  0  0
 26 30  1  0  0  0
 30 31  1  0  0  0
 31 32  1  0  0  0
 26 28  1  0  0  0
 28 29  2  0  0  0
 13  9  2  0  0  0
  6  1  1  0  0  0
 17  9  1  0  0  0
 10 19  1  0  0  0
 18 20  1  0  0  0
 18 21  1  0  0  0
 23 27  1  0  0  0
M  END
>  <minimizedAffinity>
-8.35737

>  <minimizedRMSD>
1.87565

$$$$
CHEMBL3323001 PubChem-160956323 PubChem-73671367


 34 38  0  0  0  0  0  0  0  0999 V2000
   18.3020   -9.9945   15.6446 C   0  0  0  0  0  0  0  0  0  0  0  0
   17.4682  -10.8769   14.8312 N   0  0  0  0  0  0  0  0  0  0  0  0
   16.2861  -10.1466   14.3498 C   0  0  0  0  0  0  0  0  0  0  0  0
   16.6449   -9.0508   13.3422 C   0  0  0  0  0  0  0  0  0  0  0  0
   17.4649   -9.6224   12.2814 N   0  0  0  0  0  0  0  0  0  0  0  0
   18.6514  -10.3604   12.6959 C   0  0  0  0  0  0  0  0  0  0  0  0
   18.2496  -11.4311   13.7142 C   0  0  0  0  0  0  0  0  0  0  0  0
   17.0236   -9.6480   10.9094 C   0  0  0  0  0  0  0  0  0  0  0  0
   15.8268  -10.3059   10.5910 C   0  0  0  0  0  0  0  0  0  0  0  0
   15.3679  -10.3356    9.2746 C   0  0  0  0  0  0  0  0  0  0  0  0
   16.0799   -9.7321    8.2886 N   0  0  0  0  0  0  0  0  0  0  0  0
   17.2507   -9.0929    8.5446 C   0  0  0  0  0  0  0  0  0  0  0  0
   17.7584   -9.0373    9.8663 C   0  0  0  0  0  0  0  0  0  0  0  0
   18.9898   -8.4040   10.0933 C   0  0  0  0  0  0  0  0  0  0  0  0
   19.6933   -7.8183    9.0377 C   0  0  0  0  0  0  0  0  0  0  0  0
   19.1764   -7.8636    7.7411 C   0  0  0  0  0  0  0  0  0  0  0  0
   17.9594   -8.5028    7.4943 C   0  0  0  0  0  0  0  0  0  0  0  0
   20.0595   -7.1269    6.4221 Cl  0  0  0  0  0  0  0  0  0  0  0  0
   17.6246   -9.6924   16.9744 C   0  0  0  0  0  0  0  0  0  0  0  0
   17.0835   -8.2725   16.9995 C   0  0  0  0  0  0  0  0  0  0  0  0
   15.5659   -8.2811   16.9294 C   0  0  0  0  0  0  0  0  0  0  0  0
   13.6756   -7.1967   18.2142 C   0  0  0  0  0  0  0  0  0  0  0  0
   12.9237   -7.2439   17.2033 O   0  0  0  0  0  0  0  0  0  0  0  0
   15.0078   -7.7138   18.1472 N   0  0  0  0  0  0  0  0  0  0  0  0
   15.5682   -7.6846   18.9561 H   0  0  0  0  0  0  0  0  0  0  0  0
   11.1003   -4.6010   22.8522 C   0  0  0  0  0  0  0  0  0  0  0  0
   12.2174   -5.0844   23.5600 C   0  0  0  0  0  0  0  0  0  0  0  0
   13.2005   -5.8177   22.8798 C   0  0  0  0  0  0  0  0  0  0  0  0
   13.0298   -6.0322   21.5523 N   0  0  0  0  0  0  0  0  0  0  0  0
   11.9741   -5.5817   20.8566 C   0  0  0  0  0  0  0  0  0  0  0  0
   10.9655   -4.8477   21.4763 C   0  0  0  0  0  0  0  0  0  0  0  0
   12.0186   -5.9152   19.5549 N   0  0  0  0  0  0  0  0  0  0  0  0
   13.1782   -6.6121   19.4645 C   0  0  0  0  0  0  0  0  0  0  0  0
   13.8197   -6.6946   20.6960 C   0  0  0  0  0  0  0  0  0  0  0  0
 26 27  1  0  0  0
 27 28  2  0  0  0
 28 29  1  0  0  0
 29 30  1  0  0  0
 30 31  1  0  0  0
 30 32  2  0  0  0
 32 33  1  0  0  0
 33 34  2  0  0  0
 33 22  1  0  0  0
 22 23  2  0  0  0
 22 24  1  0  0  0
 24 21  1  0  0  0
 21 20  1  0  0  0
 20 19  1  0  0  0
 19  1  1  0  0  0
  1  2  1  0  0  0
  2  3  1  0  0  0
  3  4  1  0  0  0
  4  5  1  0  0  0
  5  6  1  0  0  0
  6  7  1  0  0  0
  5  8  1  0  0  0
  8  9  2  0  0  0
  9 10  1  0  0  0
 10 11  2  0  0  0
 11 12  1  0  0  0
 12 13  2  0  0  0
 13 14  1  0  0  0
 14 15  2  0  0  0
 15 16  1  0  0  0
 16 17  2  0  0  0
 16 18  1  0  0  0
 31 26  2  0  0  0
  7  2  1  0  0  0
 13  8  1  0  0  0
 34 29  1  0  0  0
 17 12  1  0  0  0
 24 25  1  0  0  0
M  END
>  <minimizedAffinity>
-9.08901

>  <minimizedRMSD>
1.87606

$$$$
CHEMBL4782988 PubChem-162665208


 33 35  0  0  0  0  0  0  0  0999 V2000
   19.0646   -8.0894    6.5253 C   0  0  0  0  0  0  0  0  0  0  0  0
   19.4089   -7.4679    7.7562 C   0  0  0  0  0  0  0  0  0  0  0  0
   18.7684   -7.8223    8.9576 C   0  0  0  0  0  0  0  0  0  0  0  0
   17.7875   -8.8042    8.8832 C   0  0  0  0  0  0  0  0  0  0  0  0
   17.4435   -9.4121    7.7119 C   0  0  0  0  0  0  0  0  0  0  0  0
   18.0581   -9.0840    6.5077 C   0  0  0  0  0  0  0  0  0  0  0  0
   16.4727  -10.3207    7.9207 N   0  0  0  0  0  0  0  0  0  0  0  0
   16.1865  -10.3042    9.2207 N   0  0  0  0  0  0  0  0  0  0  0  0
   16.9780   -9.3859    9.8229 C   0  0  0  0  0  0  0  0  0  0  0  0
   16.0520  -10.8919    7.2382 H   0  0  0  0  0  0  0  0  0  0  0  0
   19.7536   -7.6993    5.2720 C   0  0  0  0  0  0  0  0  0  0  0  0
   20.6618   -6.6276    5.2597 C   0  0  0  0  0  0  0  0  0  0  0  0
   21.3162   -6.2527    4.0820 C   0  0  0  0  0  0  0  0  0  0  0  0
   21.0599   -6.9593    2.8969 C   0  0  0  0  0  0  0  0  0  0  0  0
   20.1597   -8.0266    2.8952 C   0  0  0  0  0  0  0  0  0  0  0  0
   19.5105   -8.3943    4.0761 C   0  0  0  0  0  0  0  0  0  0  0  0
   22.2114   -5.1802    4.1176 O   0  0  0  0  0  0  0  0  0  0  0  0
   22.7260   -4.5702    2.9418 C   0  0  0  0  0  0  0  0  0  0  0  0
   16.9682   -9.0778   11.2203 N   0  0  0  0  0  0  0  0  0  0  0  0
   15.9228   -9.4389   12.1282 C   0  0  0  0  0  0  0  0  0  0  0  0
   14.9115  -10.0781   11.7332 O   0  0  0  0  0  0  0  0  0  0  0  0
   17.7368   -8.5811   11.5835 H   0  0  0  0  0  0  0  0  0  0  0  0
   16.0487   -9.0796   13.5692 C   0  0  0  0  0  0  0  0  0  0  0  0
   16.1999  -10.3278   14.4293 C   0  0  0  0  0  0  0  0  0  0  0  0
   17.5301  -11.0266   14.1724 C   0  0  0  0  0  0  0  0  0  0  0  0
   18.6598  -10.0302   13.9462 C   0  0  0  0  0  0  0  0  0  0  0  0
   19.4810   -9.8419   15.2170 C   0  0  0  0  0  0  0  0  0  0  0  0
   18.9361   -8.7763   16.1194 C   0  0  0  0  0  0  0  0  0  0  0  0
   17.9125   -8.1115   15.8012 O   0  0  0  0  0  0  0  0  0  0  0  0
   19.6024   -8.5087   17.3505 N   0  0  0  0  0  0  0  0  0  0  0  0
   19.1486   -7.5509   18.1924 O   0  0  0  0  0  0  0  0  0  0  0  0
   20.4035   -9.0275   17.5919 H   0  0  0  0  0  0  0  0  0  0  0  0
   18.3585   -7.1351   17.8132 H   0  0  0  0  0  0  0  0  0  0  0  0
  1  2  2  0  0  0
  2  3  1  0  0  0
  3  4  2  0  0  0
  4  5  1  0  0  0
  5  6  2  0  0  0
  5  7  1  0  0  0
  7  8  1  0  0  0
  8  9  2  0  0  0
  9 19  1  0  0  0
 19 20  1  0  0  0
 20 21  2  0  0  0
 20 23  1  0  0  0
 23 24  1  0  0  0
 24 25  1  0  0  0
 25 26  1  0  0  0
 26 27  1  0  0  0
 27 28  1  0  0  0
 28 29  2  0  0  0
 28 30  1  0  0  0
 30 31  1  0  0  0
  1 11  1  0  0  0
 11 12  2  0  0  0
 12 13  1  0  0  0
 13 14  2  0  0  0
 14 15  1  0  0  0
 15 16  2  0  0  0
 13 17  1  0  0  0
 17 18  1  0  0  0
  6  1  1  0  0  0
 16 11  1  0  0  0
  9  4  1  0  0  0
  7 10  1  0  0  0
 19 22  1  0  0  0
 30 32  1  0  0  0
 31 33  1  0  0  0
M  END
>  <minimizedAffinity>
-7.95341

>  <minimizedRMSD>
1.87719

$$$$
CHEMBL3582382 PubChem-122179517


 31 34  0  0  0  0  0  0  0  0999 V2000
   16.6644  -10.5298   15.3926 C   0  0  0  0  0  0  0  0  0  0  0  0
   17.4570  -11.6048   15.8068 C   0  0  0  0  0  0  0  0  0  0  0  0
   18.3406  -12.2249   14.9233 C   0  0  0  0  0  0  0  0  0  0  0  0
   18.4433  -11.7769   13.6069 C   0  0  0  0  0  0  0  0  0  0  0  0
   19.3103  -12.3906   12.7626 F   0  0  0  0  0  0  0  0  0  0  0  0
   17.6514  -10.7068   13.1678 C   0  0  0  0  0  0  0  0  0  0  0  0
   16.7563  -10.0835   14.0542 C   0  0  0  0  0  0  0  0  0  0  0  0
   15.9774   -9.0752   13.5909 F   0  0  0  0  0  0  0  0  0  0  0  0
   15.7905   -9.9412   16.3677 N   0  0  0  0  0  0  0  0  0  0  0  0
   14.9402  -10.4096   16.5317 H   0  0  0  0  0  0  0  0  0  0  0  0
   15.3054   -7.3574   16.6694 O   0  0  0  0  0  0  0  0  0  0  0  0
   16.0644   -8.4971   17.2896 S   0  0  0  0  0  0  0  0  0  0  0  0
   15.5638   -8.7120   18.6895 O   0  0  0  0  0  0  0  0  0  0  0  0
   17.7807   -8.1352   17.3597 C   0  0  0  0  0  0  0  0  0  0  0  0
   18.6037   -8.4311   16.2673 C   0  0  0  0  0  0  0  0  0  0  0  0
   19.9697   -8.1378   16.3188 C   0  0  0  0  0  0  0  0  0  0  0  0
   20.5154   -7.5496   17.4638 C   0  0  0  0  0  0  0  0  0  0  0  0
   19.6956   -7.2558   18.5575 C   0  0  0  0  0  0  0  0  0  0  0  0
   18.3296   -7.5487   18.5059 C   0  0  0  0  0  0  0  0  0  0  0  0
   17.7541  -10.2486   11.8053 C   0  0  0  0  0  0  0  0  0  0  0  0
   17.8409   -9.8620   10.6667 C   0  0  0  0  0  0  0  0  0  0  0  0
   17.9449   -9.3992    9.3124 C   0  0  0  0  0  0  0  0  0  0  0  0
   17.0049   -9.8251    8.3442 C   0  0  0  0  0  0  0  0  0  0  0  0
   17.0934   -9.3905    7.0500 N   0  0  0  0  0  0  0  0  0  0  0  0
   18.0997   -8.5449    6.7175 C   0  0  0  0  0  0  0  0  0  0  0  0
   18.3403   -8.0213    5.5097 N   0  0  0  0  0  0  0  0  0  0  0  0
   19.4196   -7.2535    5.6423 N   0  0  0  0  0  0  0  0  0  0  0  0
   19.8682   -7.2841    6.9252 C   0  0  0  0  0  0  0  0  0  0  0  0
   19.0196   -8.1148    7.6184 C   0  0  0  0  0  0  0  0  0  0  0  0
   18.9821   -8.5209    8.9465 C   0  0  0  0  0  0  0  0  0  0  0  0
   17.8220   -8.1736    4.6866 H   0  0  0  0  0  0  0  0  0  0  0  0
 11 12  2  0  0  0
 12 13  2  0  0  0
 12  9  1  0  0  0
  9  1  1  0  0  0
  1  2  2  0  0  0
  2  3  1  0  0  0
  3  4  2  0  0  0
  4  5  1  0  0  0
  4  6  1  0  0  0
  6 20  1  0  0  0
 20 21  3  0  0  0
 21 22  1  0  0  0
 22 23  2  0  0  0
 23 24  1  0  0  0
 24 25  2  0  0  0
 25 26  1  0  0  0
 26 27  1  0  0  0
 27 28  2  0  0  0
 28 29  1  0  0  0
 29 30  2  0  0  0
  6  7  2  0  0  0
  7  8  1  0  0  0
 12 14  1  0  0  0
 14 15  2  0  0  0
 15 16  1  0  0  0
 16 17  2  0  0  0
 17 18  1  0  0  0
 18 19  2  0  0  0
  7  1  1  0  0  0
 19 14  1  0  0  0
 30 22  1  0  0  0
 29 25  1  0  0  0
  9 10  1  0  0  0
 26 31  1  0  0  0
M  END
>  <minimizedAffinity>
0.42724

>  <minimizedRMSD>
1.88070

$$$$
CHEMBL5266996


 30 33  0  0  0  0  0  0  0  0999 V2000
   15.8212   -8.3578   16.0521 C   0  0  0  0  0  0  0  0  0  0  0  0
   15.6767   -7.2428   15.4830 O   0  0  0  0  0  0  0  0  0  0  0  0
   16.4100   -9.4582   15.3429 N   0  0  0  0  0  0  0  0  0  0  0  0
   16.8121   -9.3042   13.9470 C   0  0  0  0  0  0  0  0  0  0  0  0
   18.1942   -9.9231   13.7350 C   0  0  0  0  0  0  0  0  0  0  0  0
   18.2419  -11.3562   14.2677 C   0  0  0  0  0  0  0  0  0  0  0  0
   17.8608  -11.3824   15.7449 C   0  0  0  0  0  0  0  0  0  0  0  0
   16.4672  -10.7925   15.9369 C   0  0  0  0  0  0  0  0  0  0  0  0
   18.5717   -9.8790   12.3257 N   0  0  0  0  0  0  0  0  0  0  0  0
   19.5321   -9.8867   12.1093 H   0  0  0  0  0  0  0  0  0  0  0  0
   17.6441   -9.8252   11.2342 C   0  0  0  0  0  0  0  0  0  0  0  0
   16.4273  -10.4447   11.3018 N   0  0  0  0  0  0  0  0  0  0  0  0
   15.5427  -10.3911   10.2570 C   0  0  0  0  0  0  0  0  0  0  0  0
   15.8603   -9.7113    9.1151 N   0  0  0  0  0  0  0  0  0  0  0  0
   17.0660   -9.0962    9.0456 C   0  0  0  0  0  0  0  0  0  0  0  0
   17.5294   -8.3926    8.0050 N   0  0  0  0  0  0  0  0  0  0  0  0
   18.7603   -7.9806    8.4029 C   0  0  0  0  0  0  0  0  0  0  0  0
   19.0707   -8.4247    9.6926 C   0  0  0  0  0  0  0  0  0  0  0  0
   17.9560   -9.1370   10.0681 C   0  0  0  0  0  0  0  0  0  0  0  0
   17.0801   -8.2146    7.1473 H   0  0  0  0  0  0  0  0  0  0  0  0
   15.3956   -8.4977   17.4795 C   0  0  0  0  0  0  0  0  0  0  0  0
   16.3792   -7.8851   18.3639 N   0  0  0  0  0  0  0  0  0  0  0  0
   17.3082   -7.8145   18.0456 H   0  0  0  0  0  0  0  0  0  0  0  0
   12.8360   -6.8237   22.0172 Cl  0  0  0  0  0  0  0  0  0  0  0  0
   14.4826   -6.8571   21.4258 C   0  0  0  0  0  0  0  0  0  0  0  0
   14.7555   -7.3537   20.1482 C   0  0  0  0  0  0  0  0  0  0  0  0
   16.0735   -7.3805   19.6674 C   0  0  0  0  0  0  0  0  0  0  0  0
   17.1124   -6.9110   20.4782 C   0  0  0  0  0  0  0  0  0  0  0  0
   16.8394   -6.4148   21.7568 C   0  0  0  0  0  0  0  0  0  0  0  0
   15.5246   -6.3874   22.2302 C   0  0  0  0  0  0  0  0  0  0  0  0
 24 25  1  0  0  0
 25 26  2  0  0  0
 26 27  1  0  0  0
 27 22  1  0  0  0
 22 21  1  0  0  0
 21  1  1  0  0  0
  1  2  2  0  0  0
  1  3  1  0  0  0
  3  4  1  0  0  0
  4  5  1  0  0  0
  5  9  1  0  0  0
  9 11  1  0  0  0
 11 12  2  0  0  0
 12 13  1  0  0  0
 13 14  2  0  0  0
 14 15  1  0  0  0
 15 16  1  0  0  0
 16 17  1  0  0  0
 17 18  2  0  0  0
 18 19  1  0  0  0
  5  6  1  0  0  0
  6  7  1  0  0  0
  7  8  1  0  0  0
 27 28  2  0  0  0
 28 29  1  0  0  0
 29 30  2  0  0  0
 30 25  1  0  0  0
  8  3  1  0  0  0
 19 11  1  0  0  0
 19 15  2  0  0  0
 22 23  1  0  0  0
  9 10  1  0  0  0
 16 20  1  0  0  0
M  END
>  <minimizedAffinity>
-6.54892

>  <minimizedRMSD>
1.88149

$$$$
CHEMBL4238467 PubChem-145985205


 37 40  0  0  0  0  0  0  0  0999 V2000
   17.4389  -11.0219   13.1733 C   0  0  0  0  0  0  0  0  0  0  0  0
   17.9234  -12.3356   13.1672 C   0  0  0  0  0  0  0  0  0  0  0  0
   18.5171  -12.8766   14.3121 C   0  0  0  0  0  0  0  0  0  0  0  0
   18.6277  -12.1056   15.4722 C   0  0  0  0  0  0  0  0  0  0  0  0
   18.1527  -10.7877   15.4935 C   0  0  0  0  0  0  0  0  0  0  0  0
   17.5521  -10.2553   14.3422 C   0  0  0  0  0  0  0  0  0  0  0  0
   16.8152  -10.5074   11.9889 N   0  0  0  0  0  0  0  0  0  0  0  0
   15.8585   -9.4401   11.9188 C   0  0  0  0  0  0  0  0  0  0  0  0
   15.5229   -8.7960   12.9480 O   0  0  0  0  0  0  0  0  0  0  0  0
   17.0694  -10.9297   11.1367 H   0  0  0  0  0  0  0  0  0  0  0  0
   15.2379   -9.0919   10.6087 C   0  0  0  0  0  0  0  0  0  0  0  0
   16.1404   -9.4182    9.5132 N   0  0  0  0  0  0  0  0  0  0  0  0
   16.0003  -10.4355    8.6296 C   0  0  0  0  0  0  0  0  0  0  0  0
   17.0212  -10.4816    7.7295 N   0  0  0  0  0  0  0  0  0  0  0  0
   17.8064   -9.4485    8.0893 C   0  0  0  0  0  0  0  0  0  0  0  0
   17.2796   -8.8048    9.1675 C   0  0  0  0  0  0  0  0  0  0  0  0
   17.9002   -7.7034    9.7572 C   0  0  0  0  0  0  0  0  0  0  0  0
   19.1100   -7.2652    9.1854 C   0  0  0  0  0  0  0  0  0  0  0  0
   19.6561   -7.9296    8.0636 C   0  0  0  0  0  0  0  0  0  0  0  0
   19.0010   -9.0419    7.4994 C   0  0  0  0  0  0  0  0  0  0  0  0
   18.2478  -10.0026   16.7717 C   0  0  0  0  0  0  0  0  0  0  0  0
   16.9355   -9.6829   17.3357 N   0  0  0  0  0  0  0  0  0  0  0  0
   16.1037   -8.5806   16.9574 C   0  0  0  0  0  0  0  0  0  0  0  0
   16.4728   -7.7761   16.0600 O   0  0  0  0  0  0  0  0  0  0  0  0
   16.5935  -10.2805   18.0394 H   0  0  0  0  0  0  0  0  0  0  0  0
   14.8753   -8.4088   17.5974 O   0  0  0  0  0  0  0  0  0  0  0  0
   13.9200   -7.4461   17.1693 C   0  0  0  0  0  0  0  0  0  0  0  0
   13.1704   -6.9109   18.3400 C   0  0  0  0  0  0  0  0  0  0  0  0
   11.9031   -6.3420   18.1622 C   0  0  0  0  0  0  0  0  0  0  0  0
   11.2173   -5.8105   19.2566 C   0  0  0  0  0  0  0  0  0  0  0  0
   11.7979   -5.8431   20.5295 C   0  0  0  0  0  0  0  0  0  0  0  0
   13.0650   -6.4075   20.7077 C   0  0  0  0  0  0  0  0  0  0  0  0
   13.7524   -6.9395   19.6130 C   0  0  0  0  0  0  0  0  0  0  0  0
   19.1588   -8.8112   16.7104 C   0  0  0  0  0  0  0  0  0  0  0  0
   19.8832   -8.5995   15.7017 O   0  0  0  0  0  0  0  0  0  0  0  0
   19.2300   -7.9487   17.7957 O   0  0  0  0  0  0  0  0  0  0  0  0
   18.6945   -8.0992   18.5497 H   0  0  0  0  0  0  0  0  0  0  0  0
  1  2  2  0  0  0
  2  3  1  0  0  0
  3  4  2  0  0  0
  4  5  1  0  0  0
  5  6  2  0  0  0
  5 21  1  0  0  0
 21 22  1  0  0  0
 22 23  1  0  0  0
 23 24  2  0  0  0
 23 26  1  0  0  0
 26 27  1  0  0  0
 27 28  1  0  0  0
 28 29  2  0  0  0
 29 30  1  0  0  0
 30 31  2  0  0  0
 31 32  1  0  0  0
 32 33  2  0  0  0
 21 34  1  0  0  0
 34 35  2  0  0  0
 34 36  1  0  0  0
  1  7  1  0  0  0
  7  8  1  0  0  0
  8  9  2  0  0  0
  8 11  1  0  0  0
 11 12  1  0  0  0
 12 13  1  0  0  0
 13 14  2  0  0  0
 14 15  1  0  0  0
 15 16  2  0  0  0
 16 17  1  0  0  0
 17 18  2  0  0  0
 18 19  1  0  0  0
 19 20  2  0  0  0
  6  1  1  0  0  0
 33 28  1  0  0  0
 16 12  1  0  0  0
 20 15  1  0  0  0
 22 25  1  0  0  0
 36 37  1  0  0  0
  7 10  1  0  0  0
M  END
>  <minimizedAffinity>
-4.39871

>  <minimizedRMSD>
1.88249

$$$$
CHEMBL2132765


 35 39  0  0  0  0  0  0  0  0999 V2000
   15.1922  -10.4256   12.1923 C   0  0  0  0  0  0  0  0  0  0  0  0
   13.9546  -10.2257   12.0463 O   0  0  0  0  0  0  0  0  0  0  0  0
   15.7675  -10.3956   13.5080 N   0  0  0  0  0  0  0  0  0  0  0  0
   17.2020  -10.6388   13.6871 C   0  0  0  0  0  0  0  0  0  0  0  0
   17.8068   -9.5739   14.5968 C   0  0  0  0  0  0  0  0  0  0  0  0
   16.9877   -9.4439   15.8769 C   0  0  0  0  0  0  0  0  0  0  0  0
   17.2267   -8.1707   16.6835 C   0  0  0  0  0  0  0  0  0  0  0  0
   17.8271   -9.5025   17.1311 C   0  0  0  0  0  0  0  0  0  0  0  0
   15.6635  -10.2051   15.9898 C   0  0  0  0  0  0  0  0  0  0  0  0
   14.9009  -10.1323   14.6663 C   0  0  0  0  0  0  0  0  0  0  0  0
   16.0448   -7.7623   17.5203 C   0  0  0  0  0  0  0  0  0  0  0  0
   14.9941   -7.3947   16.9315 O   0  0  0  0  0  0  0  0  0  0  0  0
   16.1193   -7.7641   18.9559 N   0  0  0  0  0  0  0  0  0  0  0  0
   16.9859   -8.0123   19.3518 H   0  0  0  0  0  0  0  0  0  0  0  0
   15.0641   -7.4423   19.8715 C   0  0  0  0  0  0  0  0  0  0  0  0
   15.3934   -6.8557   21.0982 C   0  0  0  0  0  0  0  0  0  0  0  0
   14.3936   -6.5319   22.0204 C   0  0  0  0  0  0  0  0  0  0  0  0
   14.7286   -5.9633   23.2042 F   0  0  0  0  0  0  0  0  0  0  0  0
   13.0529   -6.7958   21.7186 C   0  0  0  0  0  0  0  0  0  0  0  0
   12.0781   -6.4849   22.6075 F   0  0  0  0  0  0  0  0  0  0  0  0
   12.7162   -7.3833   20.4964 C   0  0  0  0  0  0  0  0  0  0  0  0
   13.7177   -7.7060   19.5764 C   0  0  0  0  0  0  0  0  0  0  0  0
   16.0592  -10.6943   10.9923 C   0  0  0  0  0  0  0  0  0  0  0  0
   15.2408  -10.2967    9.4110 S   0  0  0  0  0  0  0  0  0  0  0  0
   16.6750   -9.4276    8.7893 C   0  0  0  0  0  0  0  0  0  0  0  0
   16.9424   -9.3143    7.4624 N   0  0  0  0  0  0  0  0  0  0  0  0
   18.0840   -8.6124    7.4606 C   0  0  0  0  0  0  0  0  0  0  0  0
   18.4648   -8.3277    8.7364 C   0  0  0  0  0  0  0  0  0  0  0  0
   17.5827   -8.8350    9.6081 N   0  0  0  0  0  0  0  0  0  0  0  0
   19.6216   -7.6066    9.0206 C   0  0  0  0  0  0  0  0  0  0  0  0
   20.3979   -7.1740    7.9292 C   0  0  0  0  0  0  0  0  0  0  0  0
   20.0032   -7.4687    6.6045 C   0  0  0  0  0  0  0  0  0  0  0  0
   18.8265   -8.2005    6.3568 C   0  0  0  0  0  0  0  0  0  0  0  0
   20.8362   -7.0033    5.4655 C   0  0  0  0  0  0  0  0  0  0  0  0
   17.5905   -8.7899   10.5915 H   0  0  0  0  0  0  0  0  0  0  0  0
 24 25  1  0  0  0
 25 26  2  0  0  0
 26 27  1  0  0  0
 27 28  2  0  0  0
 28 29  1  0  0  0
 28 30  1  0  0  0
 30 31  2  0  0  0
 31 32  1  0  0  0
 32 33  2  0  0  0
 32 34  1  0  0  0
 24 23  1  0  0  0
 23  1  1  0  0  0
  1  2  2  0  0  0
  1  3  1  0  0  0
  3  4  1  0  0  0
  4  5  1  0  0  0
  5  6  1  0  0  0
  6  7  1  0  0  0
  7  8  1  0  0  0
  7 11  1  0  0  0
 11 12  2  0  0  0
 11 13  1  0  0  0
 13 15  1  0  0  0
 15 16  2  0  0  0
 16 17  1  0  0  0
 17 18  1  0  0  0
 17 19  2  0  0  0
 19 20  1  0  0  0
 19 21  1  0  0  0
 21 22  2  0  0  0
  6  9  1  0  0  0
  9 10  1  0  0  0
 29 25  1  0  0  0
 10  3  1  0  0  0
 33 27  1  0  0  0
  8  6  1  0  0  0
 22 15  1  0  0  0
 29 35  1  0  0  0
 13 14  1  0  0  0
M  END
>  <minimizedAffinity>
-3.32182

>  <minimizedRMSD>
1.88354

$$$$
CHEMBL4538883 MCULE-1710050658 MolPort-002-906-783 PubChem-2820666 ZINC000001038321 ZINC01038321


 33 36  0  0  0  0  0  0  0  0999 V2000
   16.8581   -9.6478   11.3887 C   0  0  0  0  0  0  0  0  0  0  0  0
   17.7443  -10.1676   12.2822 N   0  0  0  0  0  0  0  0  0  0  0  0
   17.3881  -10.4288   13.5669 C   0  0  0  0  0  0  0  0  0  0  0  0
   16.1201  -10.1802   13.9850 N   0  0  0  0  0  0  0  0  0  0  0  0
   15.1970   -9.6677   13.1322 C   0  0  0  0  0  0  0  0  0  0  0  0
   15.5467   -9.3908   11.8120 C   0  0  0  0  0  0  0  0  0  0  0  0
   20.3822   -7.2021    5.4303 C   0  0  0  0  0  0  0  0  0  0  0  0
   19.4733   -7.8424    6.4167 C   0  0  0  0  0  0  0  0  0  0  0  0
   19.6206   -7.7140    7.7549 N   0  0  0  0  0  0  0  0  0  0  0  0
   18.6409   -8.4126    8.2962 N   0  0  0  0  0  0  0  0  0  0  0  0
   17.8959   -8.9643    7.3342 C   0  0  0  0  0  0  0  0  0  0  0  0
   18.3759   -8.6379    6.0834 C   0  0  0  0  0  0  0  0  0  0  0  0
   16.8183   -9.7273    7.6236 N   0  0  0  0  0  0  0  0  0  0  0  0
   16.4949   -9.9363    8.9306 C   0  0  0  0  0  0  0  0  0  0  0  0
   17.2600   -9.3741    9.9804 C   0  0  0  0  0  0  0  0  0  0  0  0
   18.3793   -8.5747    9.6198 C   0  0  0  0  0  0  0  0  0  0  0  0
   19.2481   -7.8907   10.6274 C   0  0  0  0  0  0  0  0  0  0  0  0
   18.5897  -11.1035   14.7068 S   0  0  0  0  0  0  0  0  0  0  0  0
   19.0912   -9.4621   15.3150 C   0  0  0  0  0  0  0  0  0  0  0  0
   17.9041   -8.6812   15.7630 C   0  0  0  0  0  0  0  0  0  0  0  0
   17.5069   -7.7125   15.0633 O   0  0  0  0  0  0  0  0  0  0  0  0
   17.2430   -9.0367   16.9847 N   0  0  0  0  0  0  0  0  0  0  0  0
   17.6379   -9.7757   17.5017 H   0  0  0  0  0  0  0  0  0  0  0  0
   16.0659   -8.4267   17.5309 C   0  0  0  0  0  0  0  0  0  0  0  0
   14.9371   -8.1545   16.7442 C   0  0  0  0  0  0  0  0  0  0  0  0
   13.8027   -7.5721   17.3144 C   0  0  0  0  0  0  0  0  0  0  0  0
   13.7902   -7.2543   18.6745 C   0  0  0  0  0  0  0  0  0  0  0  0
   14.9167   -7.5050   19.4701 C   0  0  0  0  0  0  0  0  0  0  0  0
   16.0438   -8.1077   18.8927 C   0  0  0  0  0  0  0  0  0  0  0  0
   14.8846   -7.2142   20.9424 C   0  0  0  0  0  0  0  0  0  0  0  0
   13.9600   -6.2217   21.2185 F   0  0  0  0  0  0  0  0  0  0  0  0
   16.1285   -6.7913   21.3782 F   0  0  0  0  0  0  0  0  0  0  0  0
   14.5326   -8.3623   21.6271 F   0  0  0  0  0  0  0  0  0  0  0  0
  7  8  1  0  0  0
  8  9  2  0  0  0
  9 10  1  0  0  0
 10 11  1  0  0  0
 11 12  2  0  0  0
 11 13  1  0  0  0
 12  8  1  0  0  0
 13 14  2  0  0  0
 14 15  1  0  0  0
 15 16  2  0  0  0
 15  1  1  0  0  0
 16 17  1  0  0  0
 16 10  1  0  0  0
  1  2  2  0  0  0
  2  3  1  0  0  0
  3 18  1  0  0  0
  3  4  2  0  0  0
 18 19  1  0  0  0
 19 20  1  0  0  0
 20 21  2  0  0  0
 20 22  1  0  0  0
 22 24  1  0  0  0
 24 25  2  0  0  0
 25 26  1  0  0  0
 26 27  2  0  0  0
 27 28  1  0  0  0
 28 29  2  0  0  0
 28 30  1  0  0  0
 29 24  1  0  0  0
 30 31  1  0  0  0
 30 32  1  0  0  0
 30 33  1  0  0  0
  4  5  1  0  0  0
  5  6  2  0  0  0
  6  1  1  0  0  0
 22 23  1  0  0  0
M  END
>  <minimizedAffinity>
-7.31484

>  <minimizedRMSD>
1.88370

$$$$
CHEMBL2235546 PubChem-25108336


 29 32  0  0  0  0  0  0  0  0999 V2000
   17.6043  -10.8058   13.9260 C   0  0  0  0  0  0  0  0  0  0  0  0
   16.3409  -10.4902   13.5861 N   0  0  0  0  0  0  0  0  0  0  0  0
   16.4331   -9.6389   12.5762 N   0  0  0  0  0  0  0  0  0  0  0  0
   17.7486   -9.4700   12.3471 C   0  0  0  0  0  0  0  0  0  0  0  0
   18.4757  -10.1864   13.1687 O   0  0  0  0  0  0  0  0  0  0  0  0
   18.0355  -11.9317   15.2467 S   0  0  0  0  0  0  0  0  0  0  0  0
   17.1556  -10.9483   16.4948 C   0  0  0  0  0  0  0  0  0  0  0  0
   17.5266   -9.4842   16.3522 C   0  0  0  0  0  0  0  0  0  0  0  0
   15.7110   -8.0469   15.8314 O   0  0  0  0  0  0  0  0  0  0  0  0
   16.3693   -8.6316   16.7321 C   0  0  0  0  0  0  0  0  0  0  0  0
   16.0056   -8.5170   18.1140 N   0  0  0  0  0  0  0  0  0  0  0  0
   16.5593   -9.0138   18.7588 H   0  0  0  0  0  0  0  0  0  0  0  0
   14.9185   -7.7534   18.6544 C   0  0  0  0  0  0  0  0  0  0  0  0
   14.9452   -7.4110   20.0110 C   0  0  0  0  0  0  0  0  0  0  0  0
   13.9038   -6.6670   20.5740 C   0  0  0  0  0  0  0  0  0  0  0  0
   12.8274   -6.2604   19.7810 C   0  0  0  0  0  0  0  0  0  0  0  0
   11.8185   -5.5398   20.3261 F   0  0  0  0  0  0  0  0  0  0  0  0
   12.7924   -6.5975   18.4254 C   0  0  0  0  0  0  0  0  0  0  0  0
   13.8343   -7.3414   17.8639 C   0  0  0  0  0  0  0  0  0  0  0  0
   18.3043   -8.6039   11.2706 C   0  0  0  0  0  0  0  0  0  0  0  0
   17.7788   -9.0204    9.9797 N   0  0  0  0  0  0  0  0  0  0  0  0
   16.8494   -9.9541    9.8040 N   0  0  0  0  0  0  0  0  0  0  0  0
   16.6199  -10.1577    8.5065 N   0  0  0  0  0  0  0  0  0  0  0  0
   17.4481   -9.3208    7.8540 C   0  0  0  0  0  0  0  0  0  0  0  0
   17.6142   -9.1508    6.4833 C   0  0  0  0  0  0  0  0  0  0  0  0
   18.5752   -8.2072    6.0681 C   0  0  0  0  0  0  0  0  0  0  0  0
   19.3297   -7.4775    7.0185 C   0  0  0  0  0  0  0  0  0  0  0  0
   19.1341   -7.6788    8.3989 C   0  0  0  0  0  0  0  0  0  0  0  0
   18.1722   -8.6169    8.7651 C   0  0  0  0  0  0  0  0  0  0  0  0
  9 10  2  0  0  0
 10  8  1  0  0  0
 10 11  1  0  0  0
  8  7  1  0  0  0
  7  6  1  0  0  0
  6  1  1  0  0  0
  1  2  2  0  0  0
  2  3  1  0  0  0
  3  4  2  0  0  0
  4 20  1  0  0  0
  4  5  1  0  0  0
 20 21  1  0  0  0
 21 22  1  0  0  0
 22 23  2  0  0  0
 23 24  1  0  0  0
 24 25  2  0  0  0
 25 26  1  0  0  0
 26 27  2  0  0  0
 27 28  1  0  0  0
 28 29  2  0  0  0
 29 21  1  0  0  0
 29 24  1  0  0  0
  5  1  1  0  0  0
 11 13  1  0  0  0
 13 14  2  0  0  0
 14 15  1  0  0  0
 15 16  2  0  0  0
 16 17  1  0  0  0
 16 18  1  0  0  0
 18 19  2  0  0  0
 19 13  1  0  0  0
 11 12  1  0  0  0
M  END
>  <minimizedAffinity>
-8.27095

>  <minimizedRMSD>
1.88455

$$$$
CHEMBL4579710 PubChem-129052864


 32 36  0  0  0  0  0  0  0  0999 V2000
   15.6012   -8.2845   14.6540 C   0  0  0  0  0  0  0  0  0  0  0  0
   15.7072   -8.8562   13.2318 C   0  0  0  0  0  0  0  0  0  0  0  0
   17.0826   -9.2749   12.9440 N   0  0  0  0  0  0  0  0  0  0  0  0
   17.4165  -10.4542   13.7537 C   0  0  0  0  0  0  0  0  0  0  0  0
   17.1586  -10.1722   15.1998 C   0  0  0  0  0  0  0  0  0  0  0  0
   16.3140   -9.1701   15.6378 C   0  0  0  0  0  0  0  0  0  0  0  0
   16.2351   -9.0894   17.0434 C   0  0  0  0  0  0  0  0  0  0  0  0
   17.0112  -10.0503   17.6999 C   0  0  0  0  0  0  0  0  0  0  0  0
   17.7891  -10.9775   16.5225 S   0  0  0  0  0  0  0  0  0  0  0  0
   15.4190   -8.1107   17.7895 C   0  0  0  0  0  0  0  0  0  0  0  0
   14.7518   -7.2343   17.1759 O   0  0  0  0  0  0  0  0  0  0  0  0
   15.3902   -8.1568   19.2198 N   0  0  0  0  0  0  0  0  0  0  0  0
   15.9535   -8.8198   19.6807 H   0  0  0  0  0  0  0  0  0  0  0  0
   14.5641   -7.2663   20.0236 C   0  0  0  0  0  0  0  0  0  0  0  0
   13.1720   -7.2312   19.4916 C   0  0  0  0  0  0  0  0  0  0  0  0
   12.3978   -8.3952   19.4807 C   0  0  0  0  0  0  0  0  0  0  0  0
   11.1039   -8.3488   18.9585 C   0  0  0  0  0  0  0  0  0  0  0  0
   10.6013   -7.1489   18.4518 C   0  0  0  0  0  0  0  0  0  0  0  0
   11.4073   -6.0083   18.4747 C   0  0  0  0  0  0  0  0  0  0  0  0
   12.6657   -6.0727   18.9876 N   0  0  0  0  0  0  0  0  0  0  0  0
   17.1154   -9.6858   11.5492 C   0  0  0  0  0  0  0  0  0  0  0  0
   18.5503   -9.7258   11.0422 C   0  0  0  0  0  0  0  0  0  0  0  0
   18.6340   -9.2174    9.6421 C   0  0  0  0  0  0  0  0  0  0  0  0
   17.8831   -9.7233    8.6279 N   0  0  0  0  0  0  0  0  0  0  0  0
   18.2760   -8.9813    7.5833 C   0  0  0  0  0  0  0  0  0  0  0  0
   17.8291   -9.0627    6.2668 C   0  0  0  0  0  0  0  0  0  0  0  0
   18.3920   -8.1691    5.3365 C   0  0  0  0  0  0  0  0  0  0  0  0
   19.3710   -7.2338    5.7414 C   0  0  0  0  0  0  0  0  0  0  0  0
   19.7986   -7.1808    7.0813 C   0  0  0  0  0  0  0  0  0  0  0  0
   19.2194   -8.0799    7.9734 C   0  0  0  0  0  0  0  0  0  0  0  0
   19.4692   -8.2078    9.2838 N   0  0  0  0  0  0  0  0  0  0  0  0
   20.0985   -7.6991    9.8446 H   0  0  0  0  0  0  0  0  0  0  0  0
  1  2  1  0  0  0
  2  3  1  0  0  0
  3  4  1  0  0  0
  4  5  1  0  0  0
  5  6  2  0  0  0
  6  7  1  0  0  0
  7  8  2  0  0  0
  8  9  1  0  0  0
  7 10  1  0  0  0
 10 11  2  0  0  0
 10 12  1  0  0  0
 12 14  1  0  0  0
 14 15  1  0  0  0
 15 16  2  0  0  0
 16 17  1  0  0  0
 17 18  2  0  0  0
 18 19  1  0  0  0
 19 20  2  0  0  0
  3 21  1  0  0  0
 21 22  1  0  0  0
 22 23  1  0  0  0
 23 24  2  0  0  0
 24 25  1  0  0  0
 25 26  2  0  0  0
 26 27  1  0  0  0
 27 28  2  0  0  0
 28 29  1  0  0  0
 29 30  2  0  0  0
 30 31  1  0  0  0
  6  1  1  0  0  0
  9  5  1  0  0  0
 20 15  1  0  0  0
 31 23  1  0  0  0
 30 25  1  0  0  0
 12 13  1  0  0  0
 31 32  1  0  0  0
M  END
>  <minimizedAffinity>
-7.11772

>  <minimizedRMSD>
1.89398

$$$$
CHEMBL4103447 PubChem-137656614


 35 37  0  0  0  0  0  0  0  0999 V2000
   17.5250  -10.0499   12.8366 C   0  0  0  0  0  0  0  0  0  0  0  0
   17.7601   -9.2664   11.6876 O   0  0  0  0  0  0  0  0  0  0  0  0
   16.5768   -9.2696   10.9266 C   0  0  0  0  0  0  0  0  0  0  0  0
   15.7206  -10.4324   11.3581 C   0  0  0  0  0  0  0  0  0  0  0  0
   16.1293  -10.6401   12.7880 C   0  0  0  0  0  0  0  0  0  0  0  0
   15.3064   -9.9195   13.6585 O   0  0  0  0  0  0  0  0  0  0  0  0
   14.3651  -10.1162   11.2377 O   0  0  0  0  0  0  0  0  0  0  0  0
   15.3331   -8.9786   13.4240 H   0  0  0  0  0  0  0  0  0  0  0  0
   14.1716   -9.3196   11.7564 H   0  0  0  0  0  0  0  0  0  0  0  0
   16.8934   -9.3625    9.5069 N   0  0  0  0  0  0  0  0  0  0  0  0
   16.3199  -10.1963    8.6035 C   0  0  0  0  0  0  0  0  0  0  0  0
   16.8242  -10.0320    7.3469 N   0  0  0  0  0  0  0  0  0  0  0  0
   17.7370   -9.0554    7.5070 C   0  0  0  0  0  0  0  0  0  0  0  0
   17.7780   -8.6543    8.7950 C   0  0  0  0  0  0  0  0  0  0  0  0
   18.6077   -7.6760    9.2328 N   0  0  0  0  0  0  0  0  0  0  0  0
   19.4326   -7.0822    8.3174 C   0  0  0  0  0  0  0  0  0  0  0  0
   19.4103   -7.4732    7.0016 N   0  0  0  0  0  0  0  0  0  0  0  0
   18.5693   -8.4596    6.5704 C   0  0  0  0  0  0  0  0  0  0  0  0
   18.5535   -8.8554    5.2034 N   0  0  0  0  0  0  0  0  0  0  0  0
   19.1535   -8.4177    4.5572 H   0  0  0  0  0  0  0  0  0  0  0  0
   17.9424   -9.5669    4.9041 H   0  0  0  0  0  0  0  0  0  0  0  0
   18.5734  -11.1672   12.9101 C   0  0  0  0  0  0  0  0  0  0  0  0
   18.7852  -11.7003   14.2637 N   0  0  0  0  0  0  0  0  0  0  0  0
   18.3370  -13.0833   14.3259 C   0  0  0  0  0  0  0  0  0  0  0  0
   18.0182  -10.9321   15.2368 C   0  0  0  0  0  0  0  0  0  0  0  0
   18.2239   -8.6283   16.1525 C   0  0  0  0  0  0  0  0  0  0  0  0
   18.8024   -9.7342   15.6757 C   0  0  0  0  0  0  0  0  0  0  0  0
   16.7395   -8.4864   16.2905 C   0  0  0  0  0  0  0  0  0  0  0  0
   15.2404   -7.9239   18.2501 C   0  0  0  0  0  0  0  0  0  0  0  0
   14.5257   -7.1716   17.5349 O   0  0  0  0  0  0  0  0  0  0  0  0
   16.3535   -8.6217   17.6870 N   0  0  0  0  0  0  0  0  0  0  0  0
   16.8801   -9.2177   18.2672 H   0  0  0  0  0  0  0  0  0  0  0  0
   14.9377   -8.0688   19.7027 C   0  0  0  0  0  0  0  0  0  0  0  0
   14.9485   -6.7157   20.3957 C   0  0  0  0  0  0  0  0  0  0  0  0
   15.7964   -6.7672   21.6530 C   0  0  0  0  0  0  0  0  0  0  0  0
 29 30  2  0  0  0
 29 31  1  0  0  0
 31 28  1  0  0  0
 28 26  1  0  0  0
 26 27  2  0  0  0
 27 25  1  0  0  0
 25 23  1  0  0  0
 23 24  1  0  0  0
 23 22  1  0  0  0
  1 22  1  0  0  0
  1  2  1  0  0  0
  2  3  1  0  0  0
  3  4  1  0  0  0
  4  5  1  0  0  0
  5  6  1  0  0  0
  4  7  1  0  0  0
  3 10  1  0  0  0
 10 11  1  0  0  0
 11 12  2  0  0  0
 12 13  1  0  0  0
 13 14  2  0  0  0
 14 15  1  0  0  0
 15 16  2  0  0  0
 16 17  1  0  0  0
 17 18  2  0  0  0
 18 19  1  0  0  0
 29 33  1  0  0  0
 33 34  1  0  0  0
 34 35  1  0  0  0
  5  1  1  0  0  0
 14 10  1  0  0  0
 18 13  1  0  0  0
 31 32  1  0  0  0
  6  8  1  0  0  0
  7  9  1  0  0  0
 19 20  1  0  0  0
 19 21  1  0  0  0
M  END
>  <minimizedAffinity>
-6.40621

>  <minimizedRMSD>
1.89526

$$$$
CHEMBL3967097 PubChem-121292598 PubChem-71283528


 38 41  0  0  0  0  0  0  0  0999 V2000
   16.6113   -9.4695   16.0693 C   0  0  0  0  0  0  0  0  0  0  0  0
   16.7530   -9.4575   14.6749 C   0  0  0  0  0  0  0  0  0  0  0  0
   17.4716  -10.4612   14.0172 C   0  0  0  0  0  0  0  0  0  0  0  0
   18.0946  -11.4726   14.7751 C   0  0  0  0  0  0  0  0  0  0  0  0
   17.9564  -11.4864   16.1657 C   0  0  0  0  0  0  0  0  0  0  0  0
   17.2133  -10.4948   16.8093 C   0  0  0  0  0  0  0  0  0  0  0  0
   18.8828  -12.4072   14.1897 F   0  0  0  0  0  0  0  0  0  0  0  0
   15.7271   -8.4173   18.1748 N   0  0  0  0  0  0  0  0  0  0  0  0
   15.8388   -8.4153   16.7496 C   0  0  0  0  0  0  0  0  0  0  0  0
   15.2743   -7.5107   16.0750 O   0  0  0  0  0  0  0  0  0  0  0  0
   16.1769   -9.1276   18.6871 H   0  0  0  0  0  0  0  0  0  0  0  0
   14.9705   -7.4035   18.8920 C   0  0  0  0  0  0  0  0  0  0  0  0
   15.2763   -7.4842   20.3772 C   0  0  0  0  0  0  0  0  0  0  0  0
   14.0329   -7.4912   21.1480 N   0  0  0  0  0  0  0  0  0  0  0  0
   14.2210   -8.4529   22.2321 C   0  0  0  0  0  0  0  0  0  0  0  0
   14.9176   -5.4996   22.3815 C   0  0  0  0  0  0  0  0  0  0  0  0
   13.7222   -6.1421   21.6791 C   0  0  0  0  0  0  0  0  0  0  0  0
   12.5659   -6.2197   22.6657 C   0  0  0  0  0  0  0  0  0  0  0  0
   13.2735   -5.2237   20.5517 C   0  0  0  0  0  0  0  0  0  0  0  0
   17.6000  -10.3840   12.5918 N   0  0  0  0  0  0  0  0  0  0  0  0
   16.9619   -9.4219   11.7438 C   0  0  0  0  0  0  0  0  0  0  0  0
   16.4617   -8.3744   12.2352 O   0  0  0  0  0  0  0  0  0  0  0  0
   18.1782  -11.0516   12.1569 H   0  0  0  0  0  0  0  0  0  0  0  0
   16.9349   -9.6210   10.2838 C   0  0  0  0  0  0  0  0  0  0  0  0
   16.0678  -10.4619    9.5979 C   0  0  0  0  0  0  0  0  0  0  0  0
   16.3412  -10.3860    8.2712 N   0  0  0  0  0  0  0  0  0  0  0  0
   17.3593   -9.5079    8.1915 C   0  0  0  0  0  0  0  0  0  0  0  0
   17.7401   -9.0296    9.3846 N   0  0  0  0  0  0  0  0  0  0  0  0
   18.7478   -8.1345    9.5410 C   0  0  0  0  0  0  0  0  0  0  0  0
   19.4199   -7.6904    8.3944 C   0  0  0  0  0  0  0  0  0  0  0  0
   19.0449   -8.1728    7.1200 C   0  0  0  0  0  0  0  0  0  0  0  0
   17.9913   -9.1020    7.0193 C   0  0  0  0  0  0  0  0  0  0  0  0
   19.7674   -7.6918    5.9161 C   0  0  0  0  0  0  0  0  0  0  0  0
   20.9851   -7.0316    5.9413 C   0  0  0  0  0  0  0  0  0  0  0  0
   21.2663   -6.7808    4.6058 C   0  0  0  0  0  0  0  0  0  0  0  0
   20.2701   -7.2662    3.8391 N   0  0  0  0  0  0  0  0  0  0  0  0
   19.3692   -7.8142    4.6323 N   0  0  0  0  0  0  0  0  0  0  0  0
   18.1565   -8.4362    4.1258 C   0  0  0  0  0  0  0  0  0  0  0  0
 16 17  1  0  0  0
 17 18  1  0  0  0
 17 19  1  0  0  0
 17 14  1  0  0  0
 14 15  1  0  0  0
 14 13  1  0  0  0
 13 12  1  0  0  0
 12  8  1  0  0  0
  8  9  1  0  0  0
  9 10  2  0  0  0
  9  1  1  0  0  0
  1  2  2  0  0  0
  2  3  1  0  0  0
  3  4  2  0  0  0
  3 20  1  0  0  0
  4  5  1  0  0  0
  4  7  1  0  0  0
  5  6  2  0  0  0
  6  1  1  0  0  0
 20 21  1  0  0  0
 21 22  2  0  0  0
 21 24  1  0  0  0
 24 25  2  0  0  0
 25 26  1  0  0  0
 26 27  2  0  0  0
 27 28  1  0  0  0
 28 29  1  0  0  0
 28 24  1  0  0  0
 29 30  2  0  0  0
 30 31  1  0  0  0
 31 32  2  0  0  0
 31 33  1  0  0  0
 32 27  1  0  0  0
 33 34  2  0  0  0
 34 35  1  0  0  0
 35 36  2  0  0  0
 36 37  1  0  0  0
 37 38  1  0  0  0
 37 33  1  0  0  0
  8 11  1  0  0  0
 20 23  1  0  0  0
M  END
>  <minimizedAffinity>
-9.72169

>  <minimizedRMSD>
1.89535

$$$$
CHEMBL2235547 PubChem-25108448


 30 33  0  0  0  0  0  0  0  0999 V2000
   17.9478  -11.8689   15.3349 S   0  0  0  0  0  0  0  0  0  0  0  0
   17.5654  -10.7582   13.9866 C   0  0  0  0  0  0  0  0  0  0  0  0
   16.3163  -10.4077   13.6290 N   0  0  0  0  0  0  0  0  0  0  0  0
   16.4454   -9.5822   12.6019 N   0  0  0  0  0  0  0  0  0  0  0  0
   17.7675   -9.4631   12.3804 C   0  0  0  0  0  0  0  0  0  0  0  0
   18.4634  -10.1855   13.2235 O   0  0  0  0  0  0  0  0  0  0  0  0
   18.3608   -8.6401   11.2901 C   0  0  0  0  0  0  0  0  0  0  0  0
   17.7993   -9.0377   10.0085 N   0  0  0  0  0  0  0  0  0  0  0  0
   16.8518   -9.9555    9.8467 N   0  0  0  0  0  0  0  0  0  0  0  0
   16.5893  -10.1448    8.5533 N   0  0  0  0  0  0  0  0  0  0  0  0
   17.4153   -9.3153    7.8886 C   0  0  0  0  0  0  0  0  0  0  0  0
   17.5525   -9.1364    6.5158 C   0  0  0  0  0  0  0  0  0  0  0  0
   18.5183   -8.2042    6.0861 C   0  0  0  0  0  0  0  0  0  0  0  0
   19.3056   -7.4942    7.0246 C   0  0  0  0  0  0  0  0  0  0  0  0
   19.1388   -7.7040    8.4075 C   0  0  0  0  0  0  0  0  0  0  0  0
   18.1709   -8.6302    8.7884 C   0  0  0  0  0  0  0  0  0  0  0  0
   17.0929  -10.8287   16.5540 C   0  0  0  0  0  0  0  0  0  0  0  0
   17.4568   -9.3724   16.3340 C   0  0  0  0  0  0  0  0  0  0  0  0
   15.9628   -8.4852   18.1599 N   0  0  0  0  0  0  0  0  0  0  0  0
   16.3363   -8.5006   16.7760 C   0  0  0  0  0  0  0  0  0  0  0  0
   15.7164   -7.8117   15.9229 O   0  0  0  0  0  0  0  0  0  0  0  0
   16.4854   -9.0602   18.7645 H   0  0  0  0  0  0  0  0  0  0  0  0
   12.8748   -6.2182   19.9933 C   0  0  0  0  0  0  0  0  0  0  0  0
   12.7880   -6.5367   18.6288 C   0  0  0  0  0  0  0  0  0  0  0  0
   13.7979   -7.2820   18.0146 C   0  0  0  0  0  0  0  0  0  0  0  0
   14.9066   -7.7189   18.7547 C   0  0  0  0  0  0  0  0  0  0  0  0
   14.9900   -7.3997   20.1140 C   0  0  0  0  0  0  0  0  0  0  0  0
   13.9805   -6.6541   20.7298 C   0  0  0  0  0  0  0  0  0  0  0  0
   10.6507   -5.1359   20.0150 C   0  0  0  0  0  0  0  0  0  0  0  0
   11.8823   -5.4747   20.6378 O   0  0  0  0  0  0  0  0  0  0  0  0
 29 30  1  0  0  0
 30 23  1  0  0  0
 23 24  2  0  0  0
 24 25  1  0  0  0
 25 26  2  0  0  0
 26 19  1  0  0  0
 26 27  1  0  0  0
 19 20  1  0  0  0
 20 21  2  0  0  0
 20 18  1  0  0  0
 18 17  1  0  0  0
 17  1  1  0  0  0
  1  2  1  0  0  0
  2  3  2  0  0  0
  3  4  1  0  0  0
  4  5  2  0  0  0
  5  7  1  0  0  0
  5  6  1  0  0  0
  7  8  1  0  0  0
  8  9  1  0  0  0
  9 10  2  0  0  0
 10 11  1  0  0  0
 11 12  2  0  0  0
 12 13  1  0  0  0
 13 14  2  0  0  0
 14 15  1  0  0  0
 15 16  2  0  0  0
 16  8  1  0  0  0
 16 11  1  0  0  0
  6  2  1  0  0  0
 27 28  2  0  0  0
 28 23  1  0  0  0
 19 22  1  0  0  0
M  END
>  <minimizedAffinity>
-8.33015

>  <minimizedRMSD>
1.89597

$$$$
CHEMBL2135511 11970444 MCULE-4827415324 MolPort-004-992-719 PubChem-42322563 ZINC000011970444 ZINC11970444


 36 41  0  0  0  0  0  0  0  0999 V2000
   19.0771   -9.1446   16.7360 C   0  0  0  0  0  0  0  0  0  0  0  0
   18.6012   -9.4860   15.3636 C   0  0  0  0  0  0  0  0  0  0  0  0
   19.4962   -9.9873   14.4730 N   0  0  0  0  0  0  0  0  0  0  0  0
   19.1395  -10.3264   13.2084 C   0  0  0  0  0  0  0  0  0  0  0  0
   17.8221  -10.1708   12.7826 C   0  0  0  0  0  0  0  0  0  0  0  0
   17.4689  -10.5798   11.3830 C   0  0  0  0  0  0  0  0  0  0  0  0
   16.1544  -10.0715   11.0031 N   0  0  0  0  0  0  0  0  0  0  0  0
   15.0749  -10.2326   11.9677 C   0  0  0  0  0  0  0  0  0  0  0  0
   15.4179   -9.4922   13.2565 C   0  0  0  0  0  0  0  0  0  0  0  0
   16.8564   -9.6739   13.6843 C   0  0  0  0  0  0  0  0  0  0  0  0
   17.2557   -9.3034   14.9846 C   0  0  0  0  0  0  0  0  0  0  0  0
   15.8517   -9.7115    9.6435 C   0  0  0  0  0  0  0  0  0  0  0  0
   14.6596   -9.7742    9.2368 O   0  0  0  0  0  0  0  0  0  0  0  0
   16.8903   -9.2425    8.7043 C   0  0  0  0  0  0  0  0  0  0  0  0
   17.9411   -8.3806    9.0081 C   0  0  0  0  0  0  0  0  0  0  0  0
   18.6062   -8.2045    7.8586 N   0  0  0  0  0  0  0  0  0  0  0  0
   19.7100   -7.4558    7.6161 C   0  0  0  0  0  0  0  0  0  0  0  0
   20.2164   -7.4345    6.3084 C   0  0  0  0  0  0  0  0  0  0  0  0
   19.5704   -8.1798    5.3034 C   0  0  0  0  0  0  0  0  0  0  0  0
   18.4281   -8.9404    5.6016 C   0  0  0  0  0  0  0  0  0  0  0  0
   17.9740   -8.9223    6.9182 C   0  0  0  0  0  0  0  0  0  0  0  0
   16.9014   -9.5807    7.3905 N   0  0  0  0  0  0  0  0  0  0  0  0
   16.2561   -8.7303   15.9524 C   0  0  0  0  0  0  0  0  0  0  0  0
   16.7386   -7.4714   16.5066 N   0  0  0  0  0  0  0  0  0  0  0  0
   16.8824   -6.2751   15.7338 C   0  0  0  0  0  0  0  0  0  0  0  0
   16.5231   -6.2566   14.5250 O   0  0  0  0  0  0  0  0  0  0  0  0
   16.9777   -7.4425   17.4612 H   0  0  0  0  0  0  0  0  0  0  0  0
   17.4478   -5.0636   16.3518 C   0  0  0  0  0  0  0  0  0  0  0  0
   18.1421   -4.1215   15.5626 C   0  0  0  0  0  0  0  0  0  0  0  0
   18.6586   -2.9954   16.1974 C   0  0  0  0  0  0  0  0  0  0  0  0
   18.5123   -2.7888   17.5303 C   0  0  0  0  0  0  0  0  0  0  0  0
   19.1211   -1.6002   17.8808 O   0  0  0  0  0  0  0  0  0  0  0  0
   19.6853   -1.0234   16.6945 C   0  0  0  0  0  0  0  0  0  0  0  0
   19.3664   -1.9472   15.6443 O   0  0  0  0  0  0  0  0  0  0  0  0
   17.8367   -3.6891   18.3484 C   0  0  0  0  0  0  0  0  0  0  0  0
   17.3004   -4.8395   17.7426 C   0  0  0  0  0  0  0  0  0  0  0  0
  1  2  1  0  0  0
  2  3  2  0  0  0
  3  4  1  0  0  0
  4  5  2  0  0  0
  5  6  1  0  0  0
  6  7  1  0  0  0
  7  8  1  0  0  0
  7 12  1  0  0  0
  8  9  1  0  0  0
  9 10  1  0  0  0
 10 11  2  0  0  0
 10  5  1  0  0  0
 11 23  1  0  0  0
 11  2  1  0  0  0
 23 24  1  0  0  0
 24 25  1  0  0  0
 25 26  2  0  0  0
 25 28  1  0  0  0
 28 29  2  0  0  0
 29 30  1  0  0  0
 30 31  2  0  0  0
 31 32  1  0  0  0
 31 35  1  0  0  0
 32 33  1  0  0  0
 33 34  1  0  0  0
 34 30  1  0  0  0
 35 36  2  0  0  0
 36 28  1  0  0  0
 12 13  2  0  0  0
 12 14  1  0  0  0
 14 15  2  0  0  0
 15 16  1  0  0  0
 16 17  1  0  0  0
 17 18  2  0  0  0
 18 19  1  0  0  0
 19 20  2  0  0  0
 20 21  1  0  0  0
 21 22  2  0  0  0
 21 16  1  0  0  0
 22 14  1  0  0  0
 24 27  1  0  0  0
M  END
>  <minimizedAffinity>
37.06730

>  <minimizedRMSD>
1.89624

$$$$
CHEMBL3680495 PubChem-68078765


 40 43  0  0  0  0  0  0  0  0999 V2000
   17.0376  -10.2092   16.3950 C   0  0  0  0  0  0  0  0  0  0  0  0
   17.4949  -11.4878   16.7330 C   0  0  0  0  0  0  0  0  0  0  0  0
   18.2526  -12.2322   15.8240 C   0  0  0  0  0  0  0  0  0  0  0  0
   18.5600  -11.6995   14.5693 C   0  0  0  0  0  0  0  0  0  0  0  0
   18.1137  -10.4200   14.2251 C   0  0  0  0  0  0  0  0  0  0  0  0
   17.3496   -9.6804   15.1331 C   0  0  0  0  0  0  0  0  0  0  0  0
   15.5208   -8.2701   17.1233 C   0  0  0  0  0  0  0  0  0  0  0  0
   15.4973   -7.7397   15.9795 O   0  0  0  0  0  0  0  0  0  0  0  0
   16.2614   -9.4788   17.3542 N   0  0  0  0  0  0  0  0  0  0  0  0
   16.2330   -9.8447   18.2677 H   0  0  0  0  0  0  0  0  0  0  0  0
   14.6190   -7.0127   20.5672 C   0  0  0  0  0  0  0  0  0  0  0  0
   15.3344   -7.6039   19.5174 C   0  0  0  0  0  0  0  0  0  0  0  0
   14.7799   -7.6463   18.2334 C   0  0  0  0  0  0  0  0  0  0  0  0
   13.5133   -7.0892   18.0203 C   0  0  0  0  0  0  0  0  0  0  0  0
   12.8295   -6.5048   19.0880 C   0  0  0  0  0  0  0  0  0  0  0  0
   13.3913   -6.4789   20.3260 N   0  0  0  0  0  0  0  0  0  0  0  0
   15.1620   -6.9526   21.8905 N   0  0  0  0  0  0  0  0  0  0  0  0
   14.5856   -7.2243   22.6410 H   0  0  0  0  0  0  0  0  0  0  0  0
   16.5195   -6.5122   22.1917 C   0  0  0  0  0  0  0  0  0  0  0  0
   17.5170   -5.5673   24.2513 C   0  0  0  0  0  0  0  0  0  0  0  0
   16.8674   -6.7928   23.6450 C   0  0  0  0  0  0  0  0  0  0  0  0
   15.6129   -7.1323   24.4266 C   0  0  0  0  0  0  0  0  0  0  0  0
   18.4224   -9.8598   12.8825 C   0  0  0  0  0  0  0  0  0  0  0  0
   17.1955   -9.7255   12.1110 N   0  0  0  0  0  0  0  0  0  0  0  0
   16.3562   -9.6788   12.6235 H   0  0  0  0  0  0  0  0  0  0  0  0
   17.0796   -9.6537   10.6800 C   0  0  0  0  0  0  0  0  0  0  0  0
   16.0019  -10.2534   10.1111 N   0  0  0  0  0  0  0  0  0  0  0  0
   15.8012  -10.2451    8.7705 C   0  0  0  0  0  0  0  0  0  0  0  0
   16.6876   -9.6270    7.9532 N   0  0  0  0  0  0  0  0  0  0  0  0
   17.7910   -9.0031    8.4434 C   0  0  0  0  0  0  0  0  0  0  0  0
   18.7064   -8.3602    7.5716 C   0  0  0  0  0  0  0  0  0  0  0  0
   19.8293   -7.7253    8.1192 C   0  0  0  0  0  0  0  0  0  0  0  0
   20.0533   -7.7217    9.4938 C   0  0  0  0  0  0  0  0  0  0  0  0
   19.1542   -8.3549   10.3476 C   0  0  0  0  0  0  0  0  0  0  0  0
   18.0188   -8.9999    9.8439 C   0  0  0  0  0  0  0  0  0  0  0  0
   18.5337   -8.3240    6.0973 C   0  0  0  0  0  0  0  0  0  0  0  0
   19.4922   -7.6558    5.2807 N   0  0  0  0  0  0  0  0  0  0  0  0
   17.5487   -8.8781    5.5429 O   0  0  0  0  0  0  0  0  0  0  0  0
   20.2699   -7.2160    5.6942 H   0  0  0  0  0  0  0  0  0  0  0  0
   19.3764   -7.6340    4.3033 H   0  0  0  0  0  0  0  0  0  0  0  0
 20 21  1  0  0  0
 21 22  1  0  0  0
 21 19  1  0  0  0
 19 17  1  0  0  0
 17 11  1  0  0  0
 11 12  2  0  0  0
 12 13  1  0  0  0
 13  7  1  0  0  0
  7  8  2  0  0  0
  7  9  1  0  0  0
  9  1  1  0  0  0
  1  2  2  0  0  0
  2  3  1  0  0  0
  3  4  2  0  0  0
  4  5  1  0  0  0
  5 23  1  0  0  0
 23 24  1  0  0  0
 24 26  1  0  0  0
 26 27  2  0  0  0
 27 28  1  0  0  0
 28 29  2  0  0  0
 29 30  1  0  0  0
 30 31  2  0  0  0
 31 36  1  0  0  0
 36 37  1  0  0  0
 36 38  2  0  0  0
 31 32  1  0  0  0
 32 33  2  0  0  0
 33 34  1  0  0  0
 34 35  2  0  0  0
  5  6  2  0  0  0
 13 14  2  0  0  0
 14 15  1  0  0  0
 15 16  2  0  0  0
 16 11  1  0  0  0
  6  1  1  0  0  0
 35 26  1  0  0  0
 35 30  1  0  0  0
 17 18  1  0  0  0
  9 10  1  0  0  0
 24 25  1  0  0  0
 37 39  1  0  0  0
 37 40  1  0  0  0
M  END
>  <minimizedAffinity>
-9.35534

>  <minimizedRMSD>
1.89653

$$$$
CHEMBL3582390 PubChem-122179525


 30 33  0  0  0  0  0  0  0  0999 V2000
   16.6476  -10.5131   15.3398 C   0  0  0  0  0  0  0  0  0  0  0  0
   17.4287  -11.5955   15.7566 C   0  0  0  0  0  0  0  0  0  0  0  0
   18.3218  -12.2129   14.8811 C   0  0  0  0  0  0  0  0  0  0  0  0
   18.4461  -11.7548   13.5699 C   0  0  0  0  0  0  0  0  0  0  0  0
   19.3216  -12.3666   12.7330 F   0  0  0  0  0  0  0  0  0  0  0  0
   17.6666  -10.6766   13.1284 C   0  0  0  0  0  0  0  0  0  0  0  0
   16.7618  -10.0558   14.0068 C   0  0  0  0  0  0  0  0  0  0  0  0
   15.9965   -9.0384   13.5411 F   0  0  0  0  0  0  0  0  0  0  0  0
   15.7621   -9.9286   16.3070 N   0  0  0  0  0  0  0  0  0  0  0  0
   14.9043  -10.3902   16.4490 H   0  0  0  0  0  0  0  0  0  0  0  0
   15.2718   -7.3513   16.6544 O   0  0  0  0  0  0  0  0  0  0  0  0
   16.0335   -8.5003   17.2540 S   0  0  0  0  0  0  0  0  0  0  0  0
   15.5339   -8.7413   18.6501 O   0  0  0  0  0  0  0  0  0  0  0  0
   17.7487   -8.1356   17.3301 C   0  0  0  0  0  0  0  0  0  0  0  0
   18.5865   -8.4540   16.2586 C   0  0  0  0  0  0  0  0  0  0  0  0
   19.9482   -8.1559   16.3280 C   0  0  0  0  0  0  0  0  0  0  0  0
   20.4539   -7.5417   17.4761 C   0  0  0  0  0  0  0  0  0  0  0  0
   19.6237   -7.2414   18.5114 N   0  0  0  0  0  0  0  0  0  0  0  0
   18.2938   -7.5237   18.4623 C   0  0  0  0  0  0  0  0  0  0  0  0
   17.7919  -10.2076   11.7714 C   0  0  0  0  0  0  0  0  0  0  0  0
   17.8980   -9.8124   10.6374 C   0  0  0  0  0  0  0  0  0  0  0  0
   18.0253   -9.3401    9.2886 C   0  0  0  0  0  0  0  0  0  0  0  0
   17.1531   -9.8010    8.2829 C   0  0  0  0  0  0  0  0  0  0  0  0
   17.2764   -9.3502    6.9998 N   0  0  0  0  0  0  0  0  0  0  0  0
   18.2531   -8.4533    6.7178 C   0  0  0  0  0  0  0  0  0  0  0  0
   18.5455   -7.8789    5.5021 C   0  0  0  0  0  0  0  0  0  0  0  0
   19.6316   -7.0521    5.8193 C   0  0  0  0  0  0  0  0  0  0  0  0
   19.9375   -7.1515    7.1371 N   0  0  0  0  0  0  0  0  0  0  0  0
   19.0855   -8.0086    7.6595 N   0  0  0  0  0  0  0  0  0  0  0  0
   19.0199   -8.4128    8.9502 C   0  0  0  0  0  0  0  0  0  0  0  0
 11 12  2  0  0  0
 12 13  2  0  0  0
 12  9  1  0  0  0
  9  1  1  0  0  0
  1  2  2  0  0  0
  2  3  1  0  0  0
  3  4  2  0  0  0
  4  5  1  0  0  0
  4  6  1  0  0  0
  6 20  1  0  0  0
 20 21  3  0  0  0
 21 22  1  0  0  0
 22 23  1  0  0  0
 23 24  2  0  0  0
 24 25  1  0  0  0
 25 26  2  0  0  0
 26 27  1  0  0  0
 27 28  2  0  0  0
 28 29  1  0  0  0
 29 30  1  0  0  0
  6  7  2  0  0  0
  7  8  1  0  0  0
 12 14  1  0  0  0
 14 15  2  0  0  0
 15 16  1  0  0  0
 16 17  2  0  0  0
 17 18  1  0  0  0
 18 19  2  0  0  0
  7  1  1  0  0  0
 19 14  1  0  0  0
 30 22  2  0  0  0
 29 25  1  0  0  0
  9 10  1  0  0  0
M  END
>  <minimizedAffinity>
0.38810

>  <minimizedRMSD>
1.90111

$$$$
CHEMBL3920398 PubChem-89743527


 32 35  0  0  0  0  0  0  0  0999 V2000
   17.9613  -12.7366   15.6908 C   0  0  0  0  0  0  0  0  0  0  0  0
   17.8518  -11.3674   15.2125 N   0  0  0  0  0  0  0  0  0  0  0  0
   17.0010  -10.4351   15.9154 C   0  0  0  0  0  0  0  0  0  0  0  0
   15.9918   -9.7252   15.2466 C   0  0  0  0  0  0  0  0  0  0  0  0
   15.1858   -8.8334   15.9539 C   0  0  0  0  0  0  0  0  0  0  0  0
   15.3867   -8.6521   17.3227 C   0  0  0  0  0  0  0  0  0  0  0  0
   16.3977   -9.3712   17.9622 C   0  0  0  0  0  0  0  0  0  0  0  0
   17.1730  -10.2355   17.2541 N   0  0  0  0  0  0  0  0  0  0  0  0
   14.3834   -7.5383   18.2366 S   0  0  0  0  0  0  0  0  0  0  0  0
   15.2572   -6.7216   19.1459 O   0  0  0  0  0  0  0  0  0  0  0  0
   13.6568   -6.6145   17.2981 O   0  0  0  0  0  0  0  0  0  0  0  0
   13.2313   -8.4185   19.1837 N   0  0  0  0  0  0  0  0  0  0  0  0
   13.5417   -8.4637   20.1543 H   0  0  0  0  0  0  0  0  0  0  0  0
   11.9622   -7.7154   19.1026 C   0  0  0  0  0  0  0  0  0  0  0  0
   10.9131   -8.6345   18.5154 C   0  0  0  0  0  0  0  0  0  0  0  0
   10.4489   -8.1003   17.3148 O   0  0  0  0  0  0  0  0  0  0  0  0
   10.0599   -7.2269   17.4785 H   0  0  0  0  0  0  0  0  0  0  0  0
   18.6280  -11.0289   14.0178 C   0  0  0  0  0  0  0  0  0  0  0  0
   19.1798   -9.6100   14.0817 C   0  0  0  0  0  0  0  0  0  0  0  0
   18.9256   -8.9956   12.7176 C   0  0  0  0  0  0  0  0  0  0  0  0
   18.0571   -9.9201   12.0108 N   0  0  0  0  0  0  0  0  0  0  0  0
   17.7956  -11.1371   12.7531 C   0  0  0  0  0  0  0  0  0  0  0  0
   17.5012   -9.6867   10.7046 C   0  0  0  0  0  0  0  0  0  0  0  0
   16.2992  -10.2440   10.3654 N   0  0  0  0  0  0  0  0  0  0  0  0
   15.7345  -10.0462    9.1341 C   0  0  0  0  0  0  0  0  0  0  0  0
   16.3646   -9.2767    8.1996 N   0  0  0  0  0  0  0  0  0  0  0  0
   17.5551   -8.7171    8.5211 C   0  0  0  0  0  0  0  0  0  0  0  0
   18.2912   -7.9367    7.7195 N   0  0  0  0  0  0  0  0  0  0  0  0
   19.3766   -7.6174    8.4671 C   0  0  0  0  0  0  0  0  0  0  0  0
   19.3213   -8.1963    9.7375 C   0  0  0  0  0  0  0  0  0  0  0  0
   18.1361   -8.8981    9.7369 C   0  0  0  0  0  0  0  0  0  0  0  0
   18.0901   -7.6582    6.7969 H   0  0  0  0  0  0  0  0  0  0  0  0
  1  2  1  0  0  0
 18  2  1  0  0  0
 18 19  1  0  0  0
 19 20  1  0  0  0
 20 21  1  0  0  0
 21 22  1  0  0  0
 21 23  1  0  0  0
 23 24  2  0  0  0
 24 25  1  0  0  0
 25 26  2  0  0  0
 26 27  1  0  0  0
 27 28  1  0  0  0
 28 29  1  0  0  0
 29 30  2  0  0  0
 30 31  1  0  0  0
  2  3  1  0  0  0
  3  4  2  0  0  0
  4  5  1  0  0  0
  5  6  2  0  0  0
  6  7  1  0  0  0
  7  8  2  0  0  0
  6  9  1  0  0  0
  9 10  2  0  0  0
  9 11  2  0  0  0
  9 12  1  0  0  0
 12 14  1  0  0  0
 14 15  1  0  0  0
 15 16  1  0  0  0
 22 18  1  0  0  0
 31 23  1  0  0  0
  8  3  1  0  0  0
 31 27  2  0  0  0
 28 32  1  0  0  0
 12 13  1  0  0  0
 16 17  1  0  0  0
M  END
>  <minimizedAffinity>
-3.66512

>  <minimizedRMSD>
1.90561

$$$$
CHEMBL3582382 PubChem-122179517


 31 34  0  0  0  0  0  0  0  0999 V2000
   16.3837  -10.1511   16.1160 C   0  0  0  0  0  0  0  0  0  0  0  0
   17.3117  -11.0582   16.6374 C   0  0  0  0  0  0  0  0  0  0  0  0
   18.2910  -11.6278   15.8239 C   0  0  0  0  0  0  0  0  0  0  0  0
   18.3568  -11.2959   14.4711 C   0  0  0  0  0  0  0  0  0  0  0  0
   19.3154  -11.8610   13.6947 F   0  0  0  0  0  0  0  0  0  0  0  0
   17.4420  -10.3821   13.9291 C   0  0  0  0  0  0  0  0  0  0  0  0
   16.4563   -9.8035   14.7475 C   0  0  0  0  0  0  0  0  0  0  0  0
   15.6078   -8.8973   14.2033 F   0  0  0  0  0  0  0  0  0  0  0  0
   15.4057   -9.6167   17.0208 N   0  0  0  0  0  0  0  0  0  0  0  0
   14.7367  -10.2516   17.3650 H   0  0  0  0  0  0  0  0  0  0  0  0
   15.5775   -7.0395   16.4445 O   0  0  0  0  0  0  0  0  0  0  0  0
   15.2690   -7.9790   17.5767 S   0  0  0  0  0  0  0  0  0  0  0  0
   16.2642   -7.7567   18.6797 O   0  0  0  0  0  0  0  0  0  0  0  0
   13.6591   -7.6818   18.2101 C   0  0  0  0  0  0  0  0  0  0  0  0
   12.6153   -7.3355   17.3441 C   0  0  0  0  0  0  0  0  0  0  0  0
   11.3339   -7.0981   17.8506 C   0  0  0  0  0  0  0  0  0  0  0  0
   11.0943   -7.2054   19.2239 C   0  0  0  0  0  0  0  0  0  0  0  0
   12.1361   -7.5494   20.0909 C   0  0  0  0  0  0  0  0  0  0  0  0
   13.4175   -7.7857   19.5846 C   0  0  0  0  0  0  0  0  0  0  0  0
   17.5170  -10.0330   12.5329 C   0  0  0  0  0  0  0  0  0  0  0  0
   17.5786   -9.7391   11.3652 C   0  0  0  0  0  0  0  0  0  0  0  0
   17.6513   -9.3874    9.9759 C   0  0  0  0  0  0  0  0  0  0  0  0
   16.7316   -9.9435    9.0553 C   0  0  0  0  0  0  0  0  0  0  0  0
   16.7895   -9.6142    7.7286 N   0  0  0  0  0  0  0  0  0  0  0  0
   17.7454   -8.7451    7.3174 C   0  0  0  0  0  0  0  0  0  0  0  0
   17.9494   -8.3099    6.0684 N   0  0  0  0  0  0  0  0  0  0  0  0
   18.9844   -7.4749    6.1266 N   0  0  0  0  0  0  0  0  0  0  0  0
   19.4410   -7.3748    7.4029 C   0  0  0  0  0  0  0  0  0  0  0  0
   18.6445   -8.1916    8.1705 C   0  0  0  0  0  0  0  0  0  0  0  0
   18.6361   -8.4867    9.5283 C   0  0  0  0  0  0  0  0  0  0  0  0
   17.4359   -8.5580    5.2660 H   0  0  0  0  0  0  0  0  0  0  0  0
 11 12  2  0  0  0
 12 13  2  0  0  0
 12  9  1  0  0  0
  9  1  1  0  0  0
  1  2  2  0  0  0
  2  3  1  0  0  0
  3  4  2  0  0  0
  4  5  1  0  0  0
  4  6  1  0  0  0
  6 20  1  0  0  0
 20 21  3  0  0  0
 21 22  1  0  0  0
 22 23  2  0  0  0
 23 24  1  0  0  0
 24 25  2  0  0  0
 25 26  1  0  0  0
 26 27  1  0  0  0
 27 28  2  0  0  0
 28 29  1  0  0  0
 29 30  2  0  0  0
  6  7  2  0  0  0
  7  8  1  0  0  0
 12 14  1  0  0  0
 14 15  2  0  0  0
 15 16  1  0  0  0
 16 17  2  0  0  0
 17 18  1  0  0  0
 18 19  2  0  0  0
  7  1  1  0  0  0
 19 14  1  0  0  0
 30 22  1  0  0  0
 29 25  1  0  0  0
  9 10  1  0  0  0
 26 31  1  0  0  0
M  END
>  <minimizedAffinity>
-8.68147

>  <minimizedRMSD>
1.90641

$$$$
CHEMBL4217364 MCULE-2116013403 PubChem-136299192


 35 38  0  0  0  0  0  0  0  0999 V2000
   16.7211   -9.6381   11.1952 C   0  0  0  0  0  0  0  0  0  0  0  0
   15.3638   -9.9387   11.4683 C   0  0  0  0  0  0  0  0  0  0  0  0
   14.9690  -10.2051   12.7908 C   0  0  0  0  0  0  0  0  0  0  0  0
   15.8951  -10.1745   13.8330 C   0  0  0  0  0  0  0  0  0  0  0  0
   17.2319   -9.8782   13.5686 C   0  0  0  0  0  0  0  0  0  0  0  0
   17.6373   -9.6142   12.2588 C   0  0  0  0  0  0  0  0  0  0  0  0
   19.9611   -7.7351    7.9766 C   0  0  0  0  0  0  0  0  0  0  0  0
   19.9413   -7.7376    6.6200 N   0  0  0  0  0  0  0  0  0  0  0  0
   18.8363   -8.3681    6.2291 N   0  0  0  0  0  0  0  0  0  0  0  0
   18.1560   -8.7700    7.3191 C   0  0  0  0  0  0  0  0  0  0  0  0
   18.8366   -8.3905    8.4253 C   0  0  0  0  0  0  0  0  0  0  0  0
   18.4037   -8.6563    9.6796 N   0  0  0  0  0  0  0  0  0  0  0  0
   17.2223   -9.3369    9.8299 C   0  0  0  0  0  0  0  0  0  0  0  0
   16.5174   -9.7305    8.7158 N   0  0  0  0  0  0  0  0  0  0  0  0
   16.9582   -9.4624    7.4514 C   0  0  0  0  0  0  0  0  0  0  0  0
   16.2935   -9.8350    6.4494 O   0  0  0  0  0  0  0  0  0  0  0  0
   18.4685   -8.5693    4.8379 C   0  0  0  0  0  0  0  0  0  0  0  0
   15.6710  -10.2194    8.8335 H   0  0  0  0  0  0  0  0  0  0  0  0
   21.0493   -7.1381    8.8031 C   0  0  0  0  0  0  0  0  0  0  0  0
   22.8137   -8.4309    9.9597 C   0  0  0  0  0  0  0  0  0  0  0  0
   21.3549   -8.0278    9.9927 C   0  0  0  0  0  0  0  0  0  0  0  0
   18.2269   -9.8317   14.6894 C   0  0  0  0  0  0  0  0  0  0  0  0
   17.7898   -9.0164   15.9193 C   0  0  0  0  0  0  0  0  0  0  0  0
   16.7467   -7.9603   15.5906 C   0  0  0  0  0  0  0  0  0  0  0  0
   15.7396   -8.6929   16.4621 C   0  0  0  0  0  0  0  0  0  0  0  0
   16.7829   -9.7476   16.7935 C   0  0  0  0  0  0  0  0  0  0  0  0
   15.3752   -7.8863   17.6707 C   0  0  0  0  0  0  0  0  0  0  0  0
   14.3263   -7.1900   17.6496 O   0  0  0  0  0  0  0  0  0  0  0  0
   16.2000   -7.8993   18.8377 N   0  0  0  0  0  0  0  0  0  0  0  0
   15.8706   -7.1703   19.9293 O   0  0  0  0  0  0  0  0  0  0  0  0
   17.0188   -8.4459   18.8477 H   0  0  0  0  0  0  0  0  0  0  0  0
   15.0437   -6.6919   19.7611 H   0  0  0  0  0  0  0  0  0  0  0  0
   14.4211   -9.9678   10.4334 O   0  0  0  0  0  0  0  0  0  0  0  0
   13.1156  -10.5073   10.5888 C   0  0  0  0  0  0  0  0  0  0  0  0
   12.0942   -9.3972   10.4619 C   0  0  0  0  0  0  0  0  0  0  0  0
 20 21  1  0  0  0
 21 19  1  0  0  0
 19  7  1  0  0  0
  7  8  2  0  0  0
  8  9  1  0  0  0
  9 10  1  0  0  0
 10 11  2  0  0  0
 11 12  1  0  0  0
 12 13  2  0  0  0
 13 14  1  0  0  0
 14 15  1  0  0  0
 15 16  2  0  0  0
 13  1  1  0  0  0
  1  2  2  0  0  0
  2  3  1  0  0  0
  3  4  2  0  0  0
  4  5  1  0  0  0
  5  6  2  0  0  0
  5 22  1  0  0  0
 22 23  1  0  0  0
 23 24  1  0  0  0
 24 25  1  0  0  0
 25 26  1  0  0  0
 25 27  1  0  0  0
 27 28  2  0  0  0
 27 29  1  0  0  0
 29 30  1  0  0  0
  2 33  1  0  0  0
 33 34  1  0  0  0
 34 35  1  0  0  0
  9 17  1  0  0  0
 11  7  1  0  0  0
 15 10  1  0  0  0
  6  1  1  0  0  0
 26 23  1  0  0  0
 14 18  1  0  0  0
 29 31  1  0  0  0
 30 32  1  0  0  0
M  END
>  <minimizedAffinity>
2.83742

>  <minimizedRMSD>
1.90848

$$$$
CHEMBL2386046 PubChem-71698758


 35 38  0  0  0  0  0  0  0  0999 V2000
   18.5289  -10.2248   13.1019 C   0  0  0  0  0  0  0  0  0  0  0  0
   18.6270  -11.8102   12.6985 S   0  0  0  0  0  0  0  0  0  0  0  0
   18.7258   -9.8628   14.4741 N   0  0  0  0  0  0  0  0  0  0  0  0
   19.6280  -10.0039   14.8419 H   0  0  0  0  0  0  0  0  0  0  0  0
   15.8272   -8.3184   17.1687 C   0  0  0  0  0  0  0  0  0  0  0  0
   16.7256   -9.3168   17.5693 C   0  0  0  0  0  0  0  0  0  0  0  0
   17.6768   -9.8129   16.6733 C   0  0  0  0  0  0  0  0  0  0  0  0
   17.7468   -9.3167   15.3679 C   0  0  0  0  0  0  0  0  0  0  0  0
   16.8435   -8.3229   14.9636 C   0  0  0  0  0  0  0  0  0  0  0  0
   15.8921   -7.8257   15.8580 C   0  0  0  0  0  0  0  0  0  0  0  0
   14.8251   -7.7952   18.1138 C   0  0  0  0  0  0  0  0  0  0  0  0
   13.8064   -7.1887   17.6823 O   0  0  0  0  0  0  0  0  0  0  0  0
   15.0063   -7.9744   19.5209 N   0  0  0  0  0  0  0  0  0  0  0  0
   15.8064   -8.4497   19.8420 H   0  0  0  0  0  0  0  0  0  0  0  0
   14.0459   -7.4766   20.4918 C   0  0  0  0  0  0  0  0  0  0  0  0
   14.6842   -7.4043   21.8327 C   0  0  0  0  0  0  0  0  0  0  0  0
   15.3252   -6.3755   22.1699 O   0  0  0  0  0  0  0  0  0  0  0  0
   14.6066   -8.4873   22.6978 O   0  0  0  0  0  0  0  0  0  0  0  0
   14.1294   -9.2537   22.4473 H   0  0  0  0  0  0  0  0  0  0  0  0
   18.4704   -9.2165   12.0826 N   0  0  0  0  0  0  0  0  0  0  0  0
   19.0524   -8.4301   12.1925 H   0  0  0  0  0  0  0  0  0  0  0  0
   17.6334   -9.2580   10.9146 C   0  0  0  0  0  0  0  0  0  0  0  0
   16.2910   -9.6871   10.9848 C   0  0  0  0  0  0  0  0  0  0  0  0
   15.5077   -9.7015    9.8060 C   0  0  0  0  0  0  0  0  0  0  0  0
   16.0383   -9.2882    8.6265 N   0  0  0  0  0  0  0  0  0  0  0  0
   17.3175   -8.8430    8.5358 C   0  0  0  0  0  0  0  0  0  0  0  0
   18.1420   -8.8080    9.6842 C   0  0  0  0  0  0  0  0  0  0  0  0
   19.4600   -8.3419    9.5693 C   0  0  0  0  0  0  0  0  0  0  0  0
   19.9515   -7.9138    8.3329 C   0  0  0  0  0  0  0  0  0  0  0  0
   19.1317   -7.9504    7.2018 C   0  0  0  0  0  0  0  0  0  0  0  0
   17.8174   -8.4145    7.3027 C   0  0  0  0  0  0  0  0  0  0  0  0
   14.1757  -10.1230    9.8547 C   0  0  0  0  0  0  0  0  0  0  0  0
   13.6086  -10.5181   11.0687 C   0  0  0  0  0  0  0  0  0  0  0  0
   14.3693  -10.4882   12.2400 C   0  0  0  0  0  0  0  0  0  0  0  0
   15.7022  -10.0712   12.1993 C   0  0  0  0  0  0  0  0  0  0  0  0
  5  6  2  0  0  0
  6  7  1  0  0  0
  7  8  2  0  0  0
  8  9  1  0  0  0
  9 10  2  0  0  0
  8  3  1  0  0  0
  3  1  1  0  0  0
  1  2  2  0  0  0
  1 20  1  0  0  0
 20 22  1  0  0  0
 22 23  2  0  0  0
 23 24  1  0  0  0
 24 25  2  0  0  0
 25 26  1  0  0  0
 26 27  2  0  0  0
 27 28  1  0  0  0
 28 29  2  0  0  0
 29 30  1  0  0  0
 30 31  2  0  0  0
 24 32  1  0  0  0
 32 33  2  0  0  0
 33 34  1  0  0  0
 34 35  2  0  0  0
  5 11  1  0  0  0
 11 12  2  0  0  0
 11 13  1  0  0  0
 13 15  1  0  0  0
 15 16  1  0  0  0
 16 17  2  0  0  0
 16 18  1  0  0  0
 10  5  1  0  0  0
 27 22  1  0  0  0
 35 23  1  0  0  0
 31 26  1  0  0  0
  3  4  1  0  0  0
 20 21  1  0  0  0
 13 14  1  0  0  0
 18 19  1  0  0  0
M  END
>  <minimizedAffinity>
-5.24121

>  <minimizedRMSD>
1.90951

$$$$
CHEMBL3582394


 34 38  0  0  0  0  0  0  0  0999 V2000
   16.2478   -8.6890   17.2764 C   0  0  0  0  0  0  0  0  0  0  0  0
   16.8700   -9.7471   17.9466 C   0  0  0  0  0  0  0  0  0  0  0  0
   17.4484  -10.8014   17.2398 C   0  0  0  0  0  0  0  0  0  0  0  0
   17.4126  -10.8121   15.8461 C   0  0  0  0  0  0  0  0  0  0  0  0
   17.9801  -11.8462   15.1756 F   0  0  0  0  0  0  0  0  0  0  0  0
   16.7944   -9.7616   15.1534 C   0  0  0  0  0  0  0  0  0  0  0  0
   16.2106   -8.6974   15.8630 C   0  0  0  0  0  0  0  0  0  0  0  0
   15.6213   -7.6950   15.1652 F   0  0  0  0  0  0  0  0  0  0  0  0
   15.6785   -7.6451   18.0807 N   0  0  0  0  0  0  0  0  0  0  0  0
   16.2969   -6.9418   18.3841 H   0  0  0  0  0  0  0  0  0  0  0  0
   13.2979   -8.7811   18.3725 O   0  0  0  0  0  0  0  0  0  0  0  0
   14.0246   -7.4819   18.5789 S   0  0  0  0  0  0  0  0  0  0  0  0
   13.3686   -6.3827   17.7909 O   0  0  0  0  0  0  0  0  0  0  0  0
   13.9759   -7.0683   20.2823 C   0  0  0  0  0  0  0  0  0  0  0  0
   15.0048   -7.4649   21.1401 C   0  0  0  0  0  0  0  0  0  0  0  0
   14.9486   -7.1321   22.4946 C   0  0  0  0  0  0  0  0  0  0  0  0
   13.8560   -6.4049   22.9729 C   0  0  0  0  0  0  0  0  0  0  0  0
   12.8619   -6.0289   22.1236 N   0  0  0  0  0  0  0  0  0  0  0  0
   12.8990   -6.3436   20.8006 C   0  0  0  0  0  0  0  0  0  0  0  0
   16.7597   -9.7743   13.7125 C   0  0  0  0  0  0  0  0  0  0  0  0
   16.7306   -9.7833   12.5073 C   0  0  0  0  0  0  0  0  0  0  0  0
   16.6962   -9.7926   11.0729 C   0  0  0  0  0  0  0  0  0  0  0  0
   15.7394  -10.5832   10.3923 C   0  0  0  0  0  0  0  0  0  0  0  0
   15.6960  -10.6020    9.0249 N   0  0  0  0  0  0  0  0  0  0  0  0
   16.5861   -9.8455    8.3364 C   0  0  0  0  0  0  0  0  0  0  0  0
   16.6967   -9.7550    7.0010 N   0  0  0  0  0  0  0  0  0  0  0  0
   17.7038   -8.9191    6.7546 N   0  0  0  0  0  0  0  0  0  0  0  0
   18.2160   -8.4794    7.9318 C   0  0  0  0  0  0  0  0  0  0  0  0
   17.5179   -9.0725    8.9570 C   0  0  0  0  0  0  0  0  0  0  0  0
   17.6144   -9.0152   10.3426 C   0  0  0  0  0  0  0  0  0  0  0  0
   16.1407  -10.2175    6.3331 H   0  0  0  0  0  0  0  0  0  0  0  0
   19.3979   -7.5705    8.0586 C   0  0  0  0  0  0  0  0  0  0  0  0
   20.1071   -7.4505    6.7217 C   0  0  0  0  0  0  0  0  0  0  0  0
   19.1957   -6.3400    7.1924 C   0  0  0  0  0  0  0  0  0  0  0  0
 11 12  2  0  0  0
 12 13  2  0  0  0
 12  9  1  0  0  0
  9  1  1  0  0  0
  1  2  2  0  0  0
  2  3  1  0  0  0
  3  4  2  0  0  0
  4  5  1  0  0  0
  4  6  1  0  0  0
  6 20  1  0  0  0
 20 21  3  0  0  0
 21 22  1  0  0  0
 22 23  2  0  0  0
 23 24  1  0  0  0
 24 25  2  0  0  0
 25 26  1  0  0  0
 26 27  1  0  0  0
 27 28  2  0  0  0
 28 32  1  0  0  0
 32 33  1  0  0  0
 33 34  1  0  0  0
 28 29  1  0  0  0
 29 30  2  0  0  0
  6  7  2  0  0  0
  7  8  1  0  0  0
 12 14  1  0  0  0
 14 15  2  0  0  0
 15 16  1  0  0  0
 16 17  2  0  0  0
 17 18  1  0  0  0
 18 19  2  0  0  0
  7  1  1  0  0  0
 19 14  1  0  0  0
 30 22  1  0  0  0
 29 25  1  0  0  0
 34 32  1  0  0  0
  9 10  1  0  0  0
 26 31  1  0  0  0
M  END
>  <minimizedAffinity>
-6.58848

>  <minimizedRMSD>
1.91005

$$$$
CHEMBL2171174 PubChem-53377508


 33 35  0  0  0  0  0  0  0  0999 V2000
   17.2883   -9.2286   11.3438 C   0  0  0  0  0  0  0  0  0  0  0  0
   18.3539   -9.9637   11.8932 O   0  0  0  0  0  0  0  0  0  0  0  0
   17.8770  -10.4652   13.1136 C   0  0  0  0  0  0  0  0  0  0  0  0
   16.3987  -10.7211   12.9700 C   0  0  0  0  0  0  0  0  0  0  0  0
   15.7476  -10.4741   14.1818 O   0  0  0  0  0  0  0  0  0  0  0  0
   15.9760   -9.7613   11.8845 C   0  0  0  0  0  0  0  0  0  0  0  0
   15.2236   -8.6978   12.3908 O   0  0  0  0  0  0  0  0  0  0  0  0
   15.9284   -9.5646   14.4665 H   0  0  0  0  0  0  0  0  0  0  0  0
   15.7407   -8.2271   13.0631 H   0  0  0  0  0  0  0  0  0  0  0  0
   18.4641   -8.4077    6.7154 C   0  0  0  0  0  0  0  0  0  0  0  0
   19.4648   -7.5229    7.0130 N   0  0  0  0  0  0  0  0  0  0  0  0
   19.7773   -7.2096    8.3122 C   0  0  0  0  0  0  0  0  0  0  0  0
   19.0909   -7.7797    9.3488 N   0  0  0  0  0  0  0  0  0  0  0  0
   18.1038   -8.6570    9.0455 C   0  0  0  0  0  0  0  0  0  0  0  0
   17.7761   -8.9798    7.7761 C   0  0  0  0  0  0  0  0  0  0  0  0
   16.7548   -9.8570    7.7623 N   0  0  0  0  0  0  0  0  0  0  0  0
   16.4867  -10.0435    9.0862 C   0  0  0  0  0  0  0  0  0  0  0  0
   17.3104   -9.3210    9.8898 N   0  0  0  0  0  0  0  0  0  0  0  0
   18.9285   -8.2567    4.2431 C   0  0  0  0  0  0  0  0  0  0  0  0
   18.1348   -8.7311    5.3638 N   0  0  0  0  0  0  0  0  0  0  0  0
   17.3459   -9.2926    5.1861 H   0  0  0  0  0  0  0  0  0  0  0  0
   18.5926  -11.7587   13.4626 C   0  0  0  0  0  0  0  0  0  0  0  0
   18.1852  -12.2760   15.1601 S   0  0  0  0  0  0  0  0  0  0  0  0
   18.3671  -10.5970   15.8321 C   0  0  0  0  0  0  0  0  0  0  0  0
   17.2040  -10.2790   16.7550 C   0  0  0  0  0  0  0  0  0  0  0  0
   17.0270   -8.7754   16.8835 C   0  0  0  0  0  0  0  0  0  0  0  0
   16.2751   -8.4778   18.0893 N   0  0  0  0  0  0  0  0  0  0  0  0
   15.3548   -8.9139   18.0324 H   0  0  0  0  0  0  0  0  0  0  0  0
   16.1676   -7.4678   18.1824 H   0  0  0  0  0  0  0  0  0  0  0  0
   16.3087   -8.2237   15.6955 C   0  0  0  0  0  0  0  0  0  0  0  0
   16.9624   -7.6870   14.7641 O   0  0  0  0  0  0  0  0  0  0  0  0
   14.9234   -8.3003   15.6117 O   0  0  0  0  0  0  0  0  0  0  0  0
   14.4335   -8.6993   16.3036 H   0  0  0  0  0  0  0  0  0  0  0  0
 19 20  1  0  0  0
 20 10  1  0  0  0
 10 11  2  0  0  0
 11 12  1  0  0  0
 12 13  2  0  0  0
 13 14  1  0  0  0
 14 15  2  0  0  0
 15 16  1  0  0  0
 15 10  1  0  0  0
 16 17  2  0  0  0
 17 18  1  0  0  0
 18 14  1  0  0  0
  1 18  1  0  0  0
  1  2  1  0  0  0
  2  3  1  0  0  0
  3 22  1  0  0  0
  3  4  1  0  0  0
 22 23  1  0  0  0
 23 24  1  0  0  0
 24 25  1  0  0  0
 26 25  1  0  0  0
 26 27  1  0  0  0
 26 30  1  0  0  0
 30 31  2  0  0  0
 30 32  1  0  0  0
  4  5  1  0  0  0
  4  6  1  0  0  0
  6  7  1  0  0  0
  6  1  1  0  0  0
 20 21  1  0  0  0
 27 28  1  0  0  0
 27 29  1  0  0  0
 32 33  1  0  0  0
  5  8  1  0  0  0
  7  9  1  0  0  0
M  END
>  <minimizedAffinity>
-4.88081

>  <minimizedRMSD>
1.91088

$$$$
CHEMBL4931508 67783972 MCULE-5722648729 MolPort-019-888-554 PubChem-56746204 ZINC000067783972


 27 30  0  0  0  0  0  0  0  0999 V2000
   18.4554  -11.8415   13.0636 C   0  0  0  0  0  0  0  0  0  0  0  0
   17.8397  -11.2662   14.2562 N   0  0  0  0  0  0  0  0  0  0  0  0
   18.9217  -10.8580   15.1488 C   0  0  0  0  0  0  0  0  0  0  0  0
   18.6046  -11.2708   16.5824 C   0  0  0  0  0  0  0  0  0  0  0  0
   17.1028  -11.3006   16.8569 C   0  0  0  0  0  0  0  0  0  0  0  0
   16.4786  -10.0311   16.5088 N   0  0  0  0  0  0  0  0  0  0  0  0
   16.3707   -9.4697   15.1896 C   0  0  0  0  0  0  0  0  0  0  0  0
   15.7354   -8.3875   15.0661 O   0  0  0  0  0  0  0  0  0  0  0  0
   16.9509  -10.1205   13.9326 C   0  0  0  0  0  0  0  0  0  0  0  0
   15.7422  -10.6553   13.1309 C   0  0  0  0  0  0  0  0  0  0  0  0
   15.2760   -9.6740   12.0630 C   0  0  0  0  0  0  0  0  0  0  0  0
   16.3700   -9.4389   11.1233 N   0  0  0  0  0  0  0  0  0  0  0  0
   17.7179   -9.1800   11.6404 C   0  0  0  0  0  0  0  0  0  0  0  0
   17.7250   -9.0077   13.1632 C   0  0  0  0  0  0  0  0  0  0  0  0
   16.1374   -9.6407    9.7162 C   0  0  0  0  0  0  0  0  0  0  0  0
   15.0821  -10.2211    9.3411 O   0  0  0  0  0  0  0  0  0  0  0  0
   16.0935   -9.5072   17.2480 H   0  0  0  0  0  0  0  0  0  0  0  0
   17.0869   -9.1801    8.6817 C   0  0  0  0  0  0  0  0  0  0  0  0
   16.9910   -9.5773    7.3840 N   0  0  0  0  0  0  0  0  0  0  0  0
   18.0041   -8.9227    6.8005 C   0  0  0  0  0  0  0  0  0  0  0  0
   18.3813   -8.9592    5.4604 C   0  0  0  0  0  0  0  0  0  0  0  0
   19.4872   -8.1766    5.0788 C   0  0  0  0  0  0  0  0  0  0  0  0
   20.1736   -7.3912    6.0322 C   0  0  0  0  0  0  0  0  0  0  0  0
   19.7623   -7.3791    7.3781 C   0  0  0  0  0  0  0  0  0  0  0  0
   18.6651   -8.1665    7.7182 C   0  0  0  0  0  0  0  0  0  0  0  0
   18.1011   -8.3070    8.9253 N   0  0  0  0  0  0  0  0  0  0  0  0
   18.3570   -7.8837    9.7766 H   0  0  0  0  0  0  0  0  0  0  0  0
  1  2  1  0  0  0
  2  3  1  0  0  0
  3  4  1  0  0  0
  4  5  1  0  0  0
  5  6  1  0  0  0
  6  7  1  0  0  0
  7  8  2  0  0  0
  7  9  1  0  0  0
  9 10  1  0  0  0
  9  2  1  0  0  0
 10 11  1  0  0  0
 11 12  1  0  0  0
 12 13  1  0  0  0
 12 15  1  0  0  0
 13 14  1  0  0  0
 14  9  1  0  0  0
 15 16  2  0  0  0
 15 18  1  0  0  0
 18 19  2  0  0  0
 19 20  1  0  0  0
 20 21  2  0  0  0
 21 22  1  0  0  0
 22 23  2  0  0  0
 23 24  1  0  0  0
 24 25  2  0  0  0
 25 26  1  0  0  0
 25 20  1  0  0  0
 26 18  1  0  0  0
  6 17  1  0  0  0
 26 27  1  0  0  0
M  END
>  <minimizedAffinity>
-5.13740

>  <minimizedRMSD>
1.91247

$$$$
CHEMBL1438820 ChemDiv-G357-1772 MCULE-7042706576 MolPort-007-847-652 PubChem-16027383 ZINC000008606902


 34 37  0  0  0  0  0  0  0  0999 V2000
   17.6028  -10.5323   14.5923 C   0  0  0  0  0  0  0  0  0  0  0  0
   17.0652   -9.2439   14.4753 C   0  0  0  0  0  0  0  0  0  0  0  0
   16.6305   -8.5548   15.6109 C   0  0  0  0  0  0  0  0  0  0  0  0
   16.7286   -9.1454   16.8793 C   0  0  0  0  0  0  0  0  0  0  0  0
   17.2662  -10.4311   16.9953 C   0  0  0  0  0  0  0  0  0  0  0  0
   17.7010  -11.1218   15.8603 C   0  0  0  0  0  0  0  0  0  0  0  0
   16.2877   -8.4732   18.0663 N   0  0  0  0  0  0  0  0  0  0  0  0
   15.2056   -7.5395   18.1738 C   0  0  0  0  0  0  0  0  0  0  0  0
   14.5231   -7.2097   17.1679 O   0  0  0  0  0  0  0  0  0  0  0  0
   16.7802   -8.6739   18.8948 H   0  0  0  0  0  0  0  0  0  0  0  0
   14.8525   -6.9813   19.5091 C   0  0  0  0  0  0  0  0  0  0  0  0
   13.5188   -6.4842   19.4933 O   0  0  0  0  0  0  0  0  0  0  0  0
   12.3927   -7.2312   19.1121 C   0  0  0  0  0  0  0  0  0  0  0  0
   11.6991   -6.8092   17.9708 C   0  0  0  0  0  0  0  0  0  0  0  0
   10.5775   -7.5066   17.5158 C   0  0  0  0  0  0  0  0  0  0  0  0
   10.1301   -8.6343   18.2046 C   0  0  0  0  0  0  0  0  0  0  0  0
   10.7972   -9.0565   19.3565 C   0  0  0  0  0  0  0  0  0  0  0  0
   11.9215   -8.3654   19.8221 C   0  0  0  0  0  0  0  0  0  0  0  0
   12.5366   -8.8333   21.0968 C   0  0  0  0  0  0  0  0  0  0  0  0
   18.0559  -11.2544   13.3928 C   0  0  0  0  0  0  0  0  0  0  0  0
   18.3139  -12.4883   13.4567 O   0  0  0  0  0  0  0  0  0  0  0  0
   18.1964  -10.5672   12.1853 O   0  0  0  0  0  0  0  0  0  0  0  0
   17.1023   -9.9127   11.5602 C   0  0  0  0  0  0  0  0  0  0  0  0
   18.8118   -8.2675    8.7097 C   0  0  0  0  0  0  0  0  0  0  0  0
   20.0225   -7.1990    8.2780 S   0  0  0  0  0  0  0  0  0  0  0  0
   19.7073   -7.3308    6.6201 C   0  0  0  0  0  0  0  0  0  0  0  0
   18.6437   -8.2244    6.4668 C   0  0  0  0  0  0  0  0  0  0  0  0
   18.1172   -8.5631    5.1125 C   0  0  0  0  0  0  0  0  0  0  0  0
   18.1455   -8.7415    7.6334 N   0  0  0  0  0  0  0  0  0  0  0  0
   17.1131   -9.6246    7.7947 C   0  0  0  0  0  0  0  0  0  0  0  0
   16.7610  -10.0308    9.0864 C   0  0  0  0  0  0  0  0  0  0  0  0
   17.4821   -9.5245   10.1761 C   0  0  0  0  0  0  0  0  0  0  0  0
   18.4965   -8.6398    9.9744 N   0  0  0  0  0  0  0  0  0  0  0  0
   16.4698  -10.0714    6.8073 O   0  0  0  0  0  0  0  0  0  0  0  0
 24 25  1  0  0  0
 25 26  1  0  0  0
 26 27  2  0  0  0
 27 28  1  0  0  0
 27 29  1  0  0  0
 29 30  1  0  0  0
 30 31  1  0  0  0
 31 32  2  0  0  0
 32 23  1  0  0  0
 23 22  1  0  0  0
 22 20  1  0  0  0
 20 21  2  0  0  0
 20  1  1  0  0  0
  1  2  2  0  0  0
  2  3  1  0  0  0
  3  4  2  0  0  0
  4  5  1  0  0  0
  5  6  2  0  0  0
  4  7  1  0  0  0
  7  8  1  0  0  0
  8 11  1  0  0  0
 11 12  1  0  0  0
 12 13  1  0  0  0
 13 14  2  0  0  0
 14 15  1  0  0  0
 15 16  2  0  0  0
 16 17  1  0  0  0
 17 18  2  0  0  0
 18 19  1  0  0  0
  8  9  2  0  0  0
 32 33  1  0  0  0
 30 34  2  0  0  0
 29 24  1  0  0  0
  6  1  1  0  0  0
 18 13  1  0  0  0
 33 24  2  0  0  0
  7 10  1  0  0  0
M  END
>  <minimizedAffinity>
-7.05594

>  <minimizedRMSD>
1.91547

$$$$
CHEMBL270556 PubChem-24823094


 30 33  0  0  0  0  0  0  0  0999 V2000
   18.8547  -10.4878   13.7582 C   0  0  0  0  0  0  0  0  0  0  0  0
   19.1794  -10.4560   15.1123 C   0  0  0  0  0  0  0  0  0  0  0  0
   18.3363   -9.8130   16.0188 C   0  0  0  0  0  0  0  0  0  0  0  0
   17.1517   -9.1880   15.5978 C   0  0  0  0  0  0  0  0  0  0  0  0
   16.8197   -9.2200   14.2162 C   0  0  0  0  0  0  0  0  0  0  0  0
   17.6861   -9.8771   13.3047 C   0  0  0  0  0  0  0  0  0  0  0  0
   17.3785   -9.9175   11.9432 C   0  0  0  0  0  0  0  0  0  0  0  0
   16.2155   -9.3022   11.4569 C   0  0  0  0  0  0  0  0  0  0  0  0
   15.3532   -8.6646   12.3512 C   0  0  0  0  0  0  0  0  0  0  0  0
   15.6527   -8.6217   13.7148 C   0  0  0  0  0  0  0  0  0  0  0  0
   16.3144   -8.5268   16.6341 C   0  0  0  0  0  0  0  0  0  0  0  0
   15.4316   -7.6841   16.3238 O   0  0  0  0  0  0  0  0  0  0  0  0
   16.5029   -8.8420   18.0115 N   0  0  0  0  0  0  0  0  0  0  0  0
   17.1873   -9.4979   18.2772 H   0  0  0  0  0  0  0  0  0  0  0  0
   15.9487   -8.4037   18.6971 H   0  0  0  0  0  0  0  0  0  0  0  0
   15.8800   -9.3316   10.0968 O   0  0  0  0  0  0  0  0  0  0  0  0
   16.7046   -9.8433    9.0848 C   0  0  0  0  0  0  0  0  0  0  0  0
   16.6998  -11.1833    8.8561 N   0  0  0  0  0  0  0  0  0  0  0  0
   17.4753  -11.7421    7.8903 C   0  0  0  0  0  0  0  0  0  0  0  0
   18.2732  -10.9613    7.1170 N   0  0  0  0  0  0  0  0  0  0  0  0
   18.3036   -9.6152    7.2864 C   0  0  0  0  0  0  0  0  0  0  0  0
   17.5060   -9.0127    8.2788 C   0  0  0  0  0  0  0  0  0  0  0  0
   17.5101   -7.6196    8.4114 C   0  0  0  0  0  0  0  0  0  0  0  0
   18.3222   -6.8228    7.5891 C   0  0  0  0  0  0  0  0  0  0  0  0
   19.1298   -7.4289    6.6137 C   0  0  0  0  0  0  0  0  0  0  0  0
   19.1116   -8.8259    6.4659 C   0  0  0  0  0  0  0  0  0  0  0  0
   19.9380   -6.6257    5.8017 O   0  0  0  0  0  0  0  0  0  0  0  0
   21.0996   -7.1165    5.1466 C   0  0  0  0  0  0  0  0  0  0  0  0
   18.3435   -5.4306    7.7263 O   0  0  0  0  0  0  0  0  0  0  0  0
   18.0513   -4.7747    8.9530 C   0  0  0  0  0  0  0  0  0  0  0  0
  1  2  2  0  0  0
  2  3  1  0  0  0
  3  4  2  0  0  0
  4  5  1  0  0  0
  5  6  2  0  0  0
  6  7  1  0  0  0
  7  8  2  0  0  0
  8  9  1  0  0  0
  9 10  2  0  0  0
  8 16  1  0  0  0
 16 17  1  0  0  0
 17 18  2  0  0  0
 18 19  1  0  0  0
 19 20  2  0  0  0
 20 21  1  0  0  0
 21 22  2  0  0  0
 22 23  1  0  0  0
 23 24  2  0  0  0
 24 25  1  0  0  0
 25 26  2  0  0  0
 25 27  1  0  0  0
 27 28  1  0  0  0
 24 29  1  0  0  0
 29 30  1  0  0  0
  4 11  1  0  0  0
 11 12  2  0  0  0
 11 13  1  0  0  0
  6  1  1  0  0  0
 22 17  1  0  0  0
 10  5  1  0  0  0
 26 21  1  0  0  0
 13 14  1  0  0  0
 13 15  1  0  0  0
M  END
>  <minimizedAffinity>
1.84768

>  <minimizedRMSD>
1.91611

$$$$
CHEMBL1822068 PubChem-44223471


 32 34  0  0  0  0  0  0  0  0999 V2000
   16.3207   -8.7560   17.2362 C   0  0  0  0  0  0  0  0  0  0  0  0
   17.0030   -9.9007   17.6488 C   0  0  0  0  0  0  0  0  0  0  0  0
   17.4936  -10.8127   16.7194 C   0  0  0  0  0  0  0  0  0  0  0  0
   17.3043  -10.6044   15.3540 C   0  0  0  0  0  0  0  0  0  0  0  0
   18.0281  -11.7747   14.2582 Cl  0  0  0  0  0  0  0  0  0  0  0  0
   16.6054   -9.4601   14.9046 C   0  0  0  0  0  0  0  0  0  0  0  0
   16.1184   -8.5344   15.8553 C   0  0  0  0  0  0  0  0  0  0  0  0
   15.4160   -7.4582   15.4234 F   0  0  0  0  0  0  0  0  0  0  0  0
   16.3717   -9.2145   13.4617 C   0  0  0  0  0  0  0  0  0  0  0  0
   15.4592   -8.4202   13.1061 O   0  0  0  0  0  0  0  0  0  0  0  0
   17.1567   -9.9056   12.4789 N   0  0  0  0  0  0  0  0  0  0  0  0
   17.8283  -10.5400   12.8191 H   0  0  0  0  0  0  0  0  0  0  0  0
   17.0669   -9.7703   11.0543 C   0  0  0  0  0  0  0  0  0  0  0  0
   15.9911  -10.3963   10.3782 C   0  0  0  0  0  0  0  0  0  0  0  0
   15.8615  -10.3003    9.0194 N   0  0  0  0  0  0  0  0  0  0  0  0
   16.7863   -9.5920    8.3272 C   0  0  0  0  0  0  0  0  0  0  0  0
   16.8162   -9.3941    6.9975 N   0  0  0  0  0  0  0  0  0  0  0  0
   17.8888   -8.6467    6.7426 N   0  0  0  0  0  0  0  0  0  0  0  0
   18.5214   -8.3829    7.9128 C   0  0  0  0  0  0  0  0  0  0  0  0
   17.8336   -8.9773    8.9372 C   0  0  0  0  0  0  0  0  0  0  0  0
   18.0193   -9.0384   10.3114 C   0  0  0  0  0  0  0  0  0  0  0  0
   16.1693   -9.7360    6.3388 H   0  0  0  0  0  0  0  0  0  0  0  0
   19.6851   -7.6265    8.0414 O   0  0  0  0  0  0  0  0  0  0  0  0
   20.4580   -7.2600    6.9100 C   0  0  0  0  0  0  0  0  0  0  0  0
   15.8523   -7.8669   18.2613 N   0  0  0  0  0  0  0  0  0  0  0  0
   16.5408   -7.3448   18.7332 H   0  0  0  0  0  0  0  0  0  0  0  0
   14.2128   -7.6065   18.7641 S   0  0  0  0  0  0  0  0  0  0  0  0
   13.3048   -8.5806   18.0679 O   0  0  0  0  0  0  0  0  0  0  0  0
   13.7944   -6.1971   18.4501 O   0  0  0  0  0  0  0  0  0  0  0  0
   14.0877   -7.8708   20.5238 C   0  0  0  0  0  0  0  0  0  0  0  0
   13.8814   -5.8684   21.9960 C   0  0  0  0  0  0  0  0  0  0  0  0
   13.1249   -6.8817   21.1590 C   0  0  0  0  0  0  0  0  0  0  0  0
 31 32  1  0  0  0
 32 30  1  0  0  0
 30 27  1  0  0  0
 27 28  2  0  0  0
 27 29  2  0  0  0
 27 25  1  0  0  0
 25  1  1  0  0  0
  1  2  2  0  0  0
  2  3  1  0  0  0
  3  4  2  0  0  0
  4  5  1  0  0  0
  4  6  1  0  0  0
  6  9  1  0  0  0
  6  7  2  0  0  0
  9 10  2  0  0  0
  9 11  1  0  0  0
 11 13  1  0  0  0
 13 14  2  0  0  0
 14 15  1  0  0  0
 15 16  2  0  0  0
 16 17  1  0  0  0
 17 18  1  0  0  0
 18 19  2  0  0  0
 19 23  1  0  0  0
 19 20  1  0  0  0
 23 24  1  0  0  0
 20 21  2  0  0  0
 20 16  1  0  0  0
 21 13  1  0  0  0
  7  8  1  0  0  0
  7  1  1  0  0  0
 25 26  1  0  0  0
 11 12  1  0  0  0
 17 22  1  0  0  0
M  END
>  <minimizedAffinity>
-6.82407

>  <minimizedRMSD>
1.91754

$$$$
CHEMBL3323001 PubChem-160956323 PubChem-73671367


 34 38  0  0  0  0  0  0  0  0999 V2000
   17.2663  -11.3805   15.5769 C   0  0  0  0  0  0  0  0  0  0  0  0
   18.5145  -11.0869   14.8868 N   0  0  0  0  0  0  0  0  0  0  0  0
   18.5643  -11.9354   13.6810 C   0  0  0  0  0  0  0  0  0  0  0  0
   18.9804  -11.1765   12.4230 C   0  0  0  0  0  0  0  0  0  0  0  0
   18.0765  -10.0453   12.2366 N   0  0  0  0  0  0  0  0  0  0  0  0
   17.7316   -9.2256   13.3995 C   0  0  0  0  0  0  0  0  0  0  0  0
   18.5577   -9.6371   14.6243 C   0  0  0  0  0  0  0  0  0  0  0  0
   17.3508   -9.8796   11.0034 C   0  0  0  0  0  0  0  0  0  0  0  0
   16.0600  -10.4158   10.8924 C   0  0  0  0  0  0  0  0  0  0  0  0
   15.3416  -10.2800    9.7047 C   0  0  0  0  0  0  0  0  0  0  0  0
   15.8850   -9.6225    8.6483 N   0  0  0  0  0  0  0  0  0  0  0  0
   17.1269   -9.0760    8.7117 C   0  0  0  0  0  0  0  0  0  0  0  0
   17.8943   -9.1867    9.8973 C   0  0  0  0  0  0  0  0  0  0  0  0
   19.1583   -8.5795    9.9476 C   0  0  0  0  0  0  0  0  0  0  0  0
   19.6616   -7.8949    8.8385 C   0  0  0  0  0  0  0  0  0  0  0  0
   18.9047   -7.8049    7.6680 C   0  0  0  0  0  0  0  0  0  0  0  0
   17.6384   -8.3911    7.6059 C   0  0  0  0  0  0  0  0  0  0  0  0
   19.5397   -6.9483    6.2804 Cl  0  0  0  0  0  0  0  0  0  0  0  0
   17.3091  -10.8385   16.9991 C   0  0  0  0  0  0  0  0  0  0  0  0
   17.4014   -9.3209   17.0049 C   0  0  0  0  0  0  0  0  0  0  0  0
   16.0124   -8.7045   17.0102 C   0  0  0  0  0  0  0  0  0  0  0  0
   14.5184   -7.4461   18.6189 C   0  0  0  0  0  0  0  0  0  0  0  0
   13.7089   -7.1654   17.6935 O   0  0  0  0  0  0  0  0  0  0  0  0
   15.6844   -8.2276   18.3450 N   0  0  0  0  0  0  0  0  0  0  0  0
   16.2888   -8.4519   19.0891 H   0  0  0  0  0  0  0  0  0  0  0  0
   14.1711   -5.7911   24.2775 C   0  0  0  0  0  0  0  0  0  0  0  0
   12.8913   -5.3297   23.9144 C   0  0  0  0  0  0  0  0  0  0  0  0
   12.4499   -5.4888   22.5927 C   0  0  0  0  0  0  0  0  0  0  0  0
   13.2866   -6.0881   21.7102 N   0  0  0  0  0  0  0  0  0  0  0  0
   14.5101   -6.5357   22.0328 C   0  0  0  0  0  0  0  0  0  0  0  0
   15.0039   -6.4064   23.3288 C   0  0  0  0  0  0  0  0  0  0  0  0
   15.1583   -7.0939   20.9956 N   0  0  0  0  0  0  0  0  0  0  0  0
   14.2638   -6.9729   19.9840 C   0  0  0  0  0  0  0  0  0  0  0  0
   13.0949   -6.3501   20.4100 C   0  0  0  0  0  0  0  0  0  0  0  0
 26 27  1  0  0  0
 27 28  2  0  0  0
 28 29  1  0  0  0
 29 30  1  0  0  0
 30 31  1  0  0  0
 30 32  2  0  0  0
 32 33  1  0  0  0
 33 34  2  0  0  0
 33 22  1  0  0  0
 22 23  2  0  0  0
 22 24  1  0  0  0
 24 21  1  0  0  0
 21 20  1  0  0  0
 20 19  1  0  0  0
 19  1  1  0  0  0
  1  2  1  0  0  0
  2  3  1  0  0  0
  3  4  1  0  0  0
  4  5  1  0  0  0
  5  6  1  0  0  0
  6  7  1  0  0  0
  5  8  1  0  0  0
  8  9  2  0  0  0
  9 10  1  0  0  0
 10 11  2  0  0  0
 11 12  1  0  0  0
 12 13  2  0  0  0
 13 14  1  0  0  0
 14 15  2  0  0  0
 15 16  1  0  0  0
 16 17  2  0  0  0
 16 18  1  0  0  0
 31 26  2  0  0  0
  7  2  1  0  0  0
 13  8  1  0  0  0
 34 29  1  0  0  0
 17 12  1  0  0  0
 24 25  1  0  0  0
M  END
>  <minimizedAffinity>
-9.17785

>  <minimizedRMSD>
1.92204

$$$$
CHEMBL1271529 PubChem-52946970


 32 35  0  0  0  0  0  0  0  0999 V2000
   17.9761   -8.8631   10.4648 C   0  0  0  0  0  0  0  0  0  0  0  0
   17.8041   -9.0659    9.0307 N   0  0  0  0  0  0  0  0  0  0  0  0
   16.9812   -9.9397    8.3963 C   0  0  0  0  0  0  0  0  0  0  0  0
   17.0774   -9.8858    7.0416 N   0  0  0  0  0  0  0  0  0  0  0  0
   18.0163   -8.9406    6.8455 C   0  0  0  0  0  0  0  0  0  0  0  0
   18.5167   -8.4821    5.6297 C   0  0  0  0  0  0  0  0  0  0  0  0
   19.5058   -7.4812    5.6721 C   0  0  0  0  0  0  0  0  0  0  0  0
   19.9622   -6.9723    6.9091 C   0  0  0  0  0  0  0  0  0  0  0  0
   19.4356   -7.4567    8.1207 C   0  0  0  0  0  0  0  0  0  0  0  0
   18.4577   -8.4470    8.0393 C   0  0  0  0  0  0  0  0  0  0  0  0
   16.0308  -10.8545    9.0992 C   0  0  0  0  0  0  0  0  0  0  0  0
   15.1931  -10.1016   10.0190 N   0  0  0  0  0  0  0  0  0  0  0  0
   13.8029  -10.5059    9.7822 C   0  0  0  0  0  0  0  0  0  0  0  0
   12.8836  -10.0086   10.9107 C   0  0  0  0  0  0  0  0  0  0  0  0
   13.5894   -9.1983   11.8205 O   0  0  0  0  0  0  0  0  0  0  0  0
   14.5697  -10.0154   12.4143 C   0  0  0  0  0  0  0  0  0  0  0  0
   15.5918  -10.4982   11.3717 C   0  0  0  0  0  0  0  0  0  0  0  0
   18.7981   -9.9662   11.0539 C   0  0  0  0  0  0  0  0  0  0  0  0
   19.7119  -10.4885   10.3596 O   0  0  0  0  0  0  0  0  0  0  0  0
   17.8390  -10.0006   14.7180 C   0  0  0  0  0  0  0  0  0  0  0  0
   18.0809   -9.5594   13.4122 C   0  0  0  0  0  0  0  0  0  0  0  0
   18.5494  -10.4402   12.4282 C   0  0  0  0  0  0  0  0  0  0  0  0
   18.7799  -11.7795   12.7659 C   0  0  0  0  0  0  0  0  0  0  0  0
   18.5379  -12.2316   14.0646 C   0  0  0  0  0  0  0  0  0  0  0  0
   18.0662  -11.3525   15.0437 C   0  0  0  0  0  0  0  0  0  0  0  0
   17.7731  -11.9895   16.6550 Cl  0  0  0  0  0  0  0  0  0  0  0  0
   18.4654   -8.5986   17.1237 N   0  0  0  0  0  0  0  0  0  0  0  0
   17.2588   -8.8416   15.9114 S   0  0  0  0  0  0  0  0  0  0  0  0
   16.9702   -7.5252   15.2457 O   0  0  0  0  0  0  0  0  0  0  0  0
   15.9976   -9.3569   16.5448 O   0  0  0  0  0  0  0  0  0  0  0  0
   18.1253   -7.9272   17.8122 H   0  0  0  0  0  0  0  0  0  0  0  0
   19.3158   -8.2395   16.6899 H   0  0  0  0  0  0  0  0  0  0  0  0
 27 28  1  0  0  0
 28 29  2  0  0  0
 28 30  2  0  0  0
 28 20  1  0  0  0
 20 21  2  0  0  0
 21 22  1  0  0  0
 22 18  1  0  0  0
 22 23  2  0  0  0
 18 19  2  0  0  0
 18  1  1  0  0  0
  1  2  1  0  0  0
  2  3  1  0  0  0
  3 11  1  0  0  0
  3  4  2  0  0  0
 11 12  1  0  0  0
 12 13  1  0  0  0
 13 14  1  0  0  0
 14 15  1  0  0  0
 15 16  1  0  0  0
 16 17  1  0  0  0
 17 12  1  0  0  0
  4  5  1  0  0  0
  5  6  2  0  0  0
  6  7  1  0  0  0
  7  8  2  0  0  0
  8  9  1  0  0  0
  9 10  2  0  0  0
 10  2  1  0  0  0
 10  5  1  0  0  0
 23 24  1  0  0  0
 24 25  2  0  0  0
 25 26  1  0  0  0
 25 20  1  0  0  0
 27 31  1  0  0  0
 27 32  1  0  0  0
M  END
>  <minimizedAffinity>
-0.04675

>  <minimizedRMSD>
1.92258

$$$$
CHEMBL4072637 PubChem-137639139


 30 33  0  0  0  0  0  0  0  0999 V2000
   17.4610   -9.6116   14.7361 C   0  0  0  0  0  0  0  0  0  0  0  0
   18.8219   -9.9440   14.8503 C   0  0  0  0  0  0  0  0  0  0  0  0
   19.5194  -10.2782   13.7341 N   0  0  0  0  0  0  0  0  0  0  0  0
   18.9459  -10.2763   12.5028 C   0  0  0  0  0  0  0  0  0  0  0  0
   17.5967   -9.8925   12.3755 C   0  0  0  0  0  0  0  0  0  0  0  0
   16.8967   -9.5836   13.4997 N   0  0  0  0  0  0  0  0  0  0  0  0
   19.7539  -10.7419   11.3390 C   0  0  0  0  0  0  0  0  0  0  0  0
   19.4983   -9.8838   16.1026 N   0  0  0  0  0  0  0  0  0  0  0  0
   19.0029   -9.6426   16.9185 H   0  0  0  0  0  0  0  0  0  0  0  0
   20.4611  -10.0832   16.1522 H   0  0  0  0  0  0  0  0  0  0  0  0
   16.8986   -9.8460   11.0762 C   0  0  0  0  0  0  0  0  0  0  0  0
   15.6220  -10.3340   10.8326 C   0  0  0  0  0  0  0  0  0  0  0  0
   15.2841  -10.0542    9.5487 N   0  0  0  0  0  0  0  0  0  0  0  0
   16.3514   -9.3936    9.0601 C   0  0  0  0  0  0  0  0  0  0  0  0
   17.3378   -9.2447    9.9578 N   0  0  0  0  0  0  0  0  0  0  0  0
   18.4770   -8.5485    9.7084 C   0  0  0  0  0  0  0  0  0  0  0  0
   18.6443   -7.9909    8.4332 C   0  0  0  0  0  0  0  0  0  0  0  0
   17.6325   -8.1539    7.4685 C   0  0  0  0  0  0  0  0  0  0  0  0
   16.4592   -8.8602    7.7778 C   0  0  0  0  0  0  0  0  0  0  0  0
   16.6335   -9.2428   15.8998 C   0  0  0  0  0  0  0  0  0  0  0  0
   16.5699   -9.9154   17.0658 N   0  0  0  0  0  0  0  0  0  0  0  0
   15.6736   -9.3265   17.8339 N   0  0  0  0  0  0  0  0  0  0  0  0
   15.2065   -8.2889   17.1111 C   0  0  0  0  0  0  0  0  0  0  0  0
   15.7703   -8.2073   15.8848 N   0  0  0  0  0  0  0  0  0  0  0  0
   17.2264  -11.1653   17.4125 C   0  0  0  0  0  0  0  0  0  0  0  0
   14.1788   -7.3617   17.5945 C   0  0  0  0  0  0  0  0  0  0  0  0
   13.3125   -6.9136   16.7956 O   0  0  0  0  0  0  0  0  0  0  0  0
   14.1641   -6.9704   18.9684 N   0  0  0  0  0  0  0  0  0  0  0  0
   13.1676   -6.0547   19.4975 C   0  0  0  0  0  0  0  0  0  0  0  0
   14.8499   -7.3321   19.5751 H   0  0  0  0  0  0  0  0  0  0  0  0
  1  2  2  0  0  0
  2  3  1  0  0  0
  3  4  2  0  0  0
  4  5  1  0  0  0
  5  6  2  0  0  0
  5 11  1  0  0  0
 11 12  2  0  0  0
 12 13  1  0  0  0
 13 14  2  0  0  0
 14 15  1  0  0  0
 15 16  1  0  0  0
 16 17  2  0  0  0
 17 18  1  0  0  0
 18 19  2  0  0  0
  4  7  1  0  0  0
  2  8  1  0  0  0
  1 20  1  0  0  0
 20 21  1  0  0  0
 21 22  1  0  0  0
 22 23  2  0  0  0
 23 24  1  0  0  0
 23 26  1  0  0  0
 26 27  2  0  0  0
 26 28  1  0  0  0
 28 29  1  0  0  0
 21 25  1  0  0  0
  6  1  1  0  0  0
 15 11  1  0  0  0
 24 20  2  0  0  0
 19 14  1  0  0  0
  8  9  1  0  0  0
  8 10  1  0  0  0
 28 30  1  0  0  0
M  END
>  <minimizedAffinity>
-1.90879

>  <minimizedRMSD>
1.92306

$$$$
CHEMBL3798662 PubChem-127047123


 38 43  0  0  0  0  0  0  0  0999 V2000
   16.3908   -9.5939   12.8019 N   0  0  0  0  0  0  0  0  0  0  0  0
   15.4755   -9.1837   13.8638 C   0  0  0  0  0  0  0  0  0  0  0  0
   15.6240  -10.1259   15.0538 C   0  0  0  0  0  0  0  0  0  0  0  0
   17.0664  -10.1554   15.6176 C   0  0  0  0  0  0  0  0  0  0  0  0
   18.1170   -9.6846   14.5700 C   0  0  0  0  0  0  0  0  0  0  0  0
   17.7453  -10.0440   13.1304 C   0  0  0  0  0  0  0  0  0  0  0  0
   14.6132  -10.3249   11.3267 N   0  0  0  0  0  0  0  0  0  0  0  0
   14.0898  -10.5746   10.0868 C   0  0  0  0  0  0  0  0  0  0  0  0
   14.8166  -10.3126    8.9617 N   0  0  0  0  0  0  0  0  0  0  0  0
   16.0626   -9.7990    9.0976 C   0  0  0  0  0  0  0  0  0  0  0  0
   16.6048   -9.5345   10.3283 C   0  0  0  0  0  0  0  0  0  0  0  0
   15.8706   -9.8140   11.4861 C   0  0  0  0  0  0  0  0  0  0  0  0
   17.8295   -8.9546   10.0819 C   0  0  0  0  0  0  0  0  0  0  0  0
   17.9673   -8.9512    8.7026 C   0  0  0  0  0  0  0  0  0  0  0  0
   16.8734   -9.4480    8.0796 N   0  0  0  0  0  0  0  0  0  0  0  0
   19.1313   -8.3219    8.0011 C   0  0  0  0  0  0  0  0  0  0  0  0
   20.3122   -8.1484    8.9663 C   0  0  0  0  0  0  0  0  0  0  0  0
   19.8545   -7.5197   10.2894 C   0  0  0  0  0  0  0  0  0  0  0  0
   18.8706   -8.4374   11.0270 C   0  0  0  0  0  0  0  0  0  0  0  0
   16.7089   -9.5330    7.1126 H   0  0  0  0  0  0  0  0  0  0  0  0
   17.0798   -9.1664   16.7660 C   0  0  0  0  0  0  0  0  0  0  0  0
   18.1393   -8.5297   17.0208 O   0  0  0  0  0  0  0  0  0  0  0  0
   15.8862   -8.9216   17.5279 N   0  0  0  0  0  0  0  0  0  0  0  0
   15.0816   -9.4205   17.2578 H   0  0  0  0  0  0  0  0  0  0  0  0
   15.7430   -8.0277   18.6398 C   0  0  0  0  0  0  0  0  0  0  0  0
   14.5448   -7.3441   18.8936 C   0  0  0  0  0  0  0  0  0  0  0  0
   14.4309   -6.4723   19.9877 C   0  0  0  0  0  0  0  0  0  0  0  0
   15.5380   -6.2901   20.8305 C   0  0  0  0  0  0  0  0  0  0  0  0
   16.7346   -6.9670   20.5828 C   0  0  0  0  0  0  0  0  0  0  0  0
   16.8350   -7.8321   19.4906 C   0  0  0  0  0  0  0  0  0  0  0  0
   13.1986   -5.7767   20.2399 N   0  0  0  0  0  0  0  0  0  0  0  0
   12.5219   -5.7659   21.4025 C   0  0  0  0  0  0  0  0  0  0  0  0
   11.3879   -4.9906   21.2611 C   0  0  0  0  0  0  0  0  0  0  0  0
   11.3880   -4.5189   19.9586 C   0  0  0  0  0  0  0  0  0  0  0  0
   12.5221   -5.0238   19.3537 C   0  0  0  0  0  0  0  0  0  0  0  0
   17.3676  -11.5267   16.1118 N   0  0  0  0  0  0  0  0  0  0  0  0
   18.1741  -12.2768   15.1531 C   0  0  0  0  0  0  0  0  0  0  0  0
   18.1361  -11.4959   17.3548 C   0  0  0  0  0  0  0  0  0  0  0  0
  7  8  2  0  0  0
  8  9  1  0  0  0
  9 10  2  0  0  0
 10 11  1  0  0  0
 11 12  2  0  0  0
 12  1  1  0  0  0
  1  2  1  0  0  0
  2  3  1  0  0  0
  3  4  1  0  0  0
  4  5  1  0  0  0
  5  6  1  0  0  0
  4 36  1  0  0  0
 36 37  1  0  0  0
 36 38  1  0  0  0
  4 21  1  0  0  0
 21 22  2  0  0  0
 21 23  1  0  0  0
 23 25  1  0  0  0
 25 26  2  0  0  0
 26 27  1  0  0  0
 27 28  2  0  0  0
 28 29  1  0  0  0
 29 30  2  0  0  0
 27 31  1  0  0  0
 31 32  1  0  0  0
 32 33  2  0  0  0
 33 34  1  0  0  0
 34 35  2  0  0  0
 11 13  1  0  0  0
 13 14  2  0  0  0
 14 15  1  0  0  0
 14 16  1  0  0  0
 16 17  1  0  0  0
 17 18  1  0  0  0
 18 19  1  0  0  0
 12  7  1  0  0  0
  6  1  1  0  0  0
 30 25  1  0  0  0
 35 31  1  0  0  0
 19 13  1  0  0  0
 15 10  1  0  0  0
 23 24  1  0  0  0
 15 20  1  0  0  0
M  END
>  <minimizedAffinity>
-1.49617

>  <minimizedRMSD>
1.92491

$$$$
CHEMBL5274214 PubChem-69676479


 32 35  0  0  0  0  0  0  0  0999 V2000
   18.8340  -10.8173   15.6924 C   0  0  0  0  0  0  0  0  0  0  0  0
   17.5122  -11.4256   16.1667 C   0  0  0  0  0  0  0  0  0  0  0  0
   16.2594  -10.7513   15.5907 C   0  0  0  0  0  0  0  0  0  0  0  0
   16.4965   -9.3509   15.2211 N   0  0  0  0  0  0  0  0  0  0  0  0
   17.2996   -9.0058   14.0391 C   0  0  0  0  0  0  0  0  0  0  0  0
   17.8993  -10.2416   13.3624 C   0  0  0  0  0  0  0  0  0  0  0  0
   19.0307  -10.8817   14.1751 C   0  0  0  0  0  0  0  0  0  0  0  0
   15.8785   -8.2975   15.9776 C   0  0  0  0  0  0  0  0  0  0  0  0
   16.0341   -7.0946   15.6354 O   0  0  0  0  0  0  0  0  0  0  0  0
   18.3924   -9.8863   12.0430 N   0  0  0  0  0  0  0  0  0  0  0  0
   19.3506   -9.6924   11.9272 H   0  0  0  0  0  0  0  0  0  0  0  0
   17.5276   -9.8101   10.9088 C   0  0  0  0  0  0  0  0  0  0  0  0
   16.3164  -10.4459   10.8933 N   0  0  0  0  0  0  0  0  0  0  0  0
   15.4865  -10.3713    9.8033 C   0  0  0  0  0  0  0  0  0  0  0  0
   15.8539   -9.6537    8.6983 N   0  0  0  0  0  0  0  0  0  0  0  0
   17.0537   -9.0256    8.7177 C   0  0  0  0  0  0  0  0  0  0  0  0
   17.8874   -9.0858    9.7816 C   0  0  0  0  0  0  0  0  0  0  0  0
   18.9928   -8.3388    9.4439 C   0  0  0  0  0  0  0  0  0  0  0  0
   18.7686   -7.8647    8.1897 N   0  0  0  0  0  0  0  0  0  0  0  0
   17.5862   -8.2808    7.7413 N   0  0  0  0  0  0  0  0  0  0  0  0
   17.1835   -8.0805    6.8655 H   0  0  0  0  0  0  0  0  0  0  0  0
   15.0804   -8.5964   17.2031 C   0  0  0  0  0  0  0  0  0  0  0  0
   15.5656   -7.7860   18.3098 N   0  0  0  0  0  0  0  0  0  0  0  0
   16.5079   -7.5011   18.3064 H   0  0  0  0  0  0  0  0  0  0  0  0
   14.7351   -7.3854   19.4013 C   0  0  0  0  0  0  0  0  0  0  0  0
   15.1764   -7.6023   20.7107 C   0  0  0  0  0  0  0  0  0  0  0  0
   14.3801   -7.2210   21.7947 C   0  0  0  0  0  0  0  0  0  0  0  0
   13.1374   -6.6208   21.5730 C   0  0  0  0  0  0  0  0  0  0  0  0
   12.6908   -6.4018   20.2669 C   0  0  0  0  0  0  0  0  0  0  0  0
   13.4867   -6.7829   19.1829 C   0  0  0  0  0  0  0  0  0  0  0  0
   11.1350   -5.6509   19.9885 Cl  0  0  0  0  0  0  0  0  0  0  0  0
   14.9392   -7.4958   23.4300 Cl  0  0  0  0  0  0  0  0  0  0  0  0
  1  2  1  0  0  0
  2  3  1  0  0  0
  3  4  1  0  0  0
  4  5  1  0  0  0
  5  6  1  0  0  0
  6  7  1  0  0  0
  6 10  1  0  0  0
 10 12  1  0  0  0
 12 13  2  0  0  0
 13 14  1  0  0  0
 14 15  2  0  0  0
 15 16  1  0  0  0
 16 17  2  0  0  0
 17 18  1  0  0  0
 18 19  2  0  0  0
 19 20  1  0  0  0
  4  8  1  0  0  0
  8  9  2  0  0  0
  8 22  1  0  0  0
 22 23  1  0  0  0
 23 25  1  0  0  0
 25 26  2  0  0  0
 26 27  1  0  0  0
 27 28  2  0  0  0
 28 29  1  0  0  0
 29 30  2  0  0  0
 29 31  1  0  0  0
 27 32  1  0  0  0
  7  1  1  0  0  0
 17 12  1  0  0  0
 20 16  1  0  0  0
 30 25  1  0  0  0
 10 11  1  0  0  0
 20 21  1  0  0  0
 23 24  1  0  0  0
M  END
>  <minimizedAffinity>
-8.82439

>  <minimizedRMSD>
1.92768

$$$$
CHEMBL5278218


 30 32  0  0  0  0  0  0  0  0999 V2000
   16.1386   -9.4775   11.5653 C   0  0  0  0  0  0  0  0  0  0  0  0
   14.8189   -9.9734   11.7083 C   0  0  0  0  0  0  0  0  0  0  0  0
   14.3097  -10.2163   12.9957 C   0  0  0  0  0  0  0  0  0  0  0  0
   15.0870   -9.9785   14.1285 C   0  0  0  0  0  0  0  0  0  0  0  0
   16.3862   -9.4907   13.9918 C   0  0  0  0  0  0  0  0  0  0  0  0
   16.9035   -9.2441   12.7193 C   0  0  0  0  0  0  0  0  0  0  0  0
   16.7567   -9.1964   10.2443 C   0  0  0  0  0  0  0  0  0  0  0  0
   18.0455   -8.7293   10.1840 N   0  0  0  0  0  0  0  0  0  0  0  0
   18.5663   -8.4889    8.9607 C   0  0  0  0  0  0  0  0  0  0  0  0
   17.8640   -8.6937    7.8324 C   0  0  0  0  0  0  0  0  0  0  0  0
   16.5952   -9.1529    7.8728 N   0  0  0  0  0  0  0  0  0  0  0  0
   16.0554   -9.3991    9.0749 N   0  0  0  0  0  0  0  0  0  0  0  0
   18.6121   -8.3789    6.7655 N   0  0  0  0  0  0  0  0  0  0  0  0
   19.8036   -7.9684    7.1952 N   0  0  0  0  0  0  0  0  0  0  0  0
   19.7974   -8.0285    8.5537 C   0  0  0  0  0  0  0  0  0  0  0  0
   20.9446   -7.6532    9.4230 C   0  0  0  0  0  0  0  0  0  0  0  0
   18.2231   -8.4597    5.3689 C   0  0  0  0  0  0  0  0  0  0  0  0
   17.3818   -9.2007   15.4084 S   0  0  0  0  0  0  0  0  0  0  0  0
   16.5384   -9.2732   16.6515 O   0  0  0  0  0  0  0  0  0  0  0  0
   17.9879   -7.8293   15.3118 O   0  0  0  0  0  0  0  0  0  0  0  0
   18.6455  -10.3831   15.4991 N   0  0  0  0  0  0  0  0  0  0  0  0
   19.1877  -10.2456   16.3521 H   0  0  0  0  0  0  0  0  0  0  0  0
   18.0280  -11.7005   15.5134 C   0  0  0  0  0  0  0  0  0  0  0  0
   18.5458  -12.5126   14.3437 C   0  0  0  0  0  0  0  0  0  0  0  0
   18.3696  -12.4146   16.8073 C   0  0  0  0  0  0  0  0  0  0  0  0
   18.1830  -11.5535   17.8888 O   0  0  0  0  0  0  0  0  0  0  0  0
   18.7614  -10.7811   17.7907 H   0  0  0  0  0  0  0  0  0  0  0  0
   14.0239  -10.2152   10.5791 O   0  0  0  0  0  0  0  0  0  0  0  0
   12.6051  -10.3239   10.6240 C   0  0  0  0  0  0  0  0  0  0  0  0
   12.1924  -11.3448   11.6675 C   0  0  0  0  0  0  0  0  0  0  0  0
  1  2  2  0  0  0
  2  3  1  0  0  0
  3  4  2  0  0  0
  4  5  1  0  0  0
  5  6  2  0  0  0
  5 18  1  0  0  0
 18 19  2  0  0  0
 18 20  2  0  0  0
 18 21  1  0  0  0
 21 23  1  0  0  0
 23 25  1  0  0  0
 25 26  1  0  0  0
 23 24  1  0  0  0
  2 28  1  0  0  0
 28 29  1  0  0  0
 29 30  1  0  0  0
  1  7  1  0  0  0
  7  8  2  0  0  0
  8  9  1  0  0  0
  9 10  2  0  0  0
 10 11  1  0  0  0
 11 12  2  0  0  0
 10 13  1  0  0  0
 13 14  1  0  0  0
 14 15  2  0  0  0
 15 16  1  0  0  0
 13 17  1  0  0  0
  6  1  1  0  0  0
 12  7  1  0  0  0
 15  9  1  0  0  0
 21 22  1  0  0  0
 26 27  1  0  0  0
M  END
>  <minimizedAffinity>
0.58516

>  <minimizedRMSD>
1.92845

$$$$
CHEMBL5291096


 34 39  0  0  0  0  0  0  0  0999 V2000
   17.5532  -10.3866   14.8442 C   0  0  0  0  0  0  0  0  0  0  0  0
   16.6270   -9.9578   13.6963 C   0  0  0  0  0  0  0  0  0  0  0  0
   17.3752   -9.7495   12.4528 N   0  0  0  0  0  0  0  0  0  0  0  0
   18.5791   -8.9068   12.4572 C   0  0  0  0  0  0  0  0  0  0  0  0
   19.0381   -8.5606   13.8725 C   0  0  0  0  0  0  0  0  0  0  0  0
   18.9878   -9.8141   14.7329 C   0  0  0  0  0  0  0  0  0  0  0  0
   19.6825   -9.5936   16.0674 C   0  0  0  0  0  0  0  0  0  0  0  0
   16.8378  -10.2520   11.2120 C   0  0  0  0  0  0  0  0  0  0  0  0
   17.0062   -9.5981   10.0276 N   0  0  0  0  0  0  0  0  0  0  0  0
   16.5234  -10.0577    8.8698 C   0  0  0  0  0  0  0  0  0  0  0  0
   15.8261  -11.2169    8.7996 N   0  0  0  0  0  0  0  0  0  0  0  0
   15.6176  -11.9270    9.9456 C   0  0  0  0  0  0  0  0  0  0  0  0
   16.1216  -11.4632   11.1751 C   0  0  0  0  0  0  0  0  0  0  0  0
   14.8576  -13.2029    9.8957 C   0  0  0  0  0  0  0  0  0  0  0  0
   16.8313   -9.2687    7.8264 N   0  0  0  0  0  0  0  0  0  0  0  0
   17.5439   -8.2955    8.4509 C   0  0  0  0  0  0  0  0  0  0  0  0
   17.6634   -8.4808    9.7868 N   0  0  0  0  0  0  0  0  0  0  0  0
   18.2665   -6.9052    7.5891 S   0  0  0  0  0  0  0  0  0  0  0  0
   19.9501   -7.3230    8.1313 C   0  0  0  0  0  0  0  0  0  0  0  0
   19.8966   -8.1109    9.4253 C   0  0  0  0  0  0  0  0  0  0  0  0
   21.2042   -8.8525    9.6055 C   0  0  0  0  0  0  0  0  0  0  0  0
   20.9473   -7.5752   10.3753 C   0  0  0  0  0  0  0  0  0  0  0  0
   16.9178  -10.1495   16.1442 N   0  0  0  0  0  0  0  0  0  0  0  0
   17.2994  -11.0598   17.2133 C   0  0  0  0  0  0  0  0  0  0  0  0
   15.9332   -9.1073   16.3471 C   0  0  0  0  0  0  0  0  0  0  0  0
   15.6366   -8.5706   17.6088 C   0  0  0  0  0  0  0  0  0  0  0  0
   14.7052   -7.5863   17.7280 C   0  0  0  0  0  0  0  0  0  0  0  0
   14.5527   -7.1825   18.9959 N   0  0  0  0  0  0  0  0  0  0  0  0
   15.4265   -7.9448   19.6981 C   0  0  0  0  0  0  0  0  0  0  0  0
   16.1274   -8.8254   18.8710 C   0  0  0  0  0  0  0  0  0  0  0  0
   14.0381   -7.0901   16.6595 N   0  0  0  0  0  0  0  0  0  0  0  0
   14.3168   -7.6005   15.4259 C   0  0  0  0  0  0  0  0  0  0  0  0
   15.2503   -8.5904   15.2801 N   0  0  0  0  0  0  0  0  0  0  0  0
   13.9441   -6.4894   19.3399 H   0  0  0  0  0  0  0  0  0  0  0  0
 25 26  1  0  0  0
 26 27  2  0  0  0
 27 28  1  0  0  0
 28 29  1  0  0  0
 29 30  2  0  0  0
 27 31  1  0  0  0
 31 32  2  0  0  0
 32 33  1  0  0  0
 25 23  1  0  0  0
  1 23  1  0  0  0
  1  2  1  0  0  0
  2  3  1  0  0  0
  3  8  1  0  0  0
  8  9  1  0  0  0
  9 10  1  0  0  0
 10 11  1  0  0  0
 11 12  2  0  0  0
 12 13  1  0  0  0
 12 14  1  0  0  0
 10 15  2  0  0  0
 15 16  1  0  0  0
 16 17  2  0  0  0
 16 18  1  0  0  0
 18 19  1  0  0  0
 19 20  1  0  0  0
 20 21  1  0  0  0
 21 22  1  0  0  0
  3  4  1  0  0  0
  4  5  1  0  0  0
  5  6  1  0  0  0
  6  7  1  0  0  0
 23 24  1  0  0  0
 33 25  2  0  0  0
  6  1  1  0  0  0
 30 26  1  0  0  0
 13  8  2  0  0  0
 22 20  1  0  0  0
 17  9  1  0  0  0
 28 34  1  0  0  0
M  END
>  <minimizedAffinity>
14.90865

>  <minimizedRMSD>
1.93130

$$$$
CHEMBL572139 PubChem-509553 ZINC000003629239


 29 31  0  0  0  0  0  0  0  0999 V2000
   17.2892  -10.4588   12.6110 N   0  0  0  0  0  0  0  0  0  0  0  0
   17.0537  -11.3239   13.0179 H   0  0  0  0  0  0  0  0  0  0  0  0
   20.6522   -7.9033    9.4735 N   0  0  0  0  0  0  0  0  0  0  0  0
   19.3120   -8.3608    9.3428 C   0  0  0  0  0  0  0  0  0  0  0  0
   18.6135   -8.1437    8.1533 C   0  0  0  0  0  0  0  0  0  0  0  0
   17.2969   -8.5913    8.0242 C   0  0  0  0  0  0  0  0  0  0  0  0
   16.6750   -9.2583    9.0839 C   0  0  0  0  0  0  0  0  0  0  0  0
   15.3945   -9.6840    8.9486 N   0  0  0  0  0  0  0  0  0  0  0  0
   14.7651  -10.3295    9.9613 C   0  0  0  0  0  0  0  0  0  0  0  0
   15.4136  -10.5609   11.1311 N   0  0  0  0  0  0  0  0  0  0  0  0
   16.6984  -10.1648   11.3343 C   0  0  0  0  0  0  0  0  0  0  0  0
   17.3748   -9.4859   10.2921 C   0  0  0  0  0  0  0  0  0  0  0  0
   18.6955   -9.0273   10.4048 C   0  0  0  0  0  0  0  0  0  0  0  0
   21.0871   -7.4336    8.7256 H   0  0  0  0  0  0  0  0  0  0  0  0
   21.1450   -8.0564   10.3119 H   0  0  0  0  0  0  0  0  0  0  0  0
   18.1998   -9.6092   13.3645 C   0  0  0  0  0  0  0  0  0  0  0  0
   18.1820  -10.0057   14.8356 C   0  0  0  0  0  0  0  0  0  0  0  0
   17.1127   -9.3260   15.6448 C   0  0  0  0  0  0  0  0  0  0  0  0
   17.0060   -9.6449   17.0028 C   0  0  0  0  0  0  0  0  0  0  0  0
   16.0312   -9.0358   17.7984 C   0  0  0  0  0  0  0  0  0  0  0  0
   15.1532   -8.1011   17.2404 C   0  0  0  0  0  0  0  0  0  0  0  0
   15.2583   -7.7719   15.8853 C   0  0  0  0  0  0  0  0  0  0  0  0
   16.2330   -8.3810   15.0904 C   0  0  0  0  0  0  0  0  0  0  0  0
   13.9372   -7.3294   18.2412 S   0  0  0  0  0  0  0  0  0  0  0  0
   12.9778   -8.5331   19.0262 N   0  0  0  0  0  0  0  0  0  0  0  0
   13.0418   -6.4791   17.3845 O   0  0  0  0  0  0  0  0  0  0  0  0
   14.6075   -6.4701   19.2751 O   0  0  0  0  0  0  0  0  0  0  0  0
   12.5228   -9.1165   18.3240 H   0  0  0  0  0  0  0  0  0  0  0  0
   12.2690   -8.0801   19.6030 H   0  0  0  0  0  0  0  0  0  0  0  0
  3  4  1  0  0  0
  4  5  2  0  0  0
  5  6  1  0  0  0
  6  7  2  0  0  0
  7  8  1  0  0  0
  8  9  2  0  0  0
  9 10  1  0  0  0
 10 11  2  0  0  0
 11  1  1  0  0  0
 11 12  1  0  0  0
  1 16  1  0  0  0
 16 17  1  0  0  0
 17 18  1  0  0  0
 18 19  2  0  0  0
 19 20  1  0  0  0
 20 21  2  0  0  0
 21 24  1  0  0  0
 21 22  1  0  0  0
 24 25  1  0  0  0
 24 26  2  0  0  0
 24 27  2  0  0  0
 22 23  2  0  0  0
 23 18  1  0  0  0
 12 13  2  0  0  0
 12  7  1  0  0  0
 13  4  1  0  0  0
  3 14  1  0  0  0
  3 15  1  0  0  0
  1  2  1  0  0  0
 25 28  1  0  0  0
 25 29  1  0  0  0
M  END
>  <minimizedAffinity>
-4.20584

>  <minimizedRMSD>
1.93202

$$$$
CHEMBL3799358 PubChem-127045878


 38 43  0  0  0  0  0  0  0  0999 V2000
   15.7075   -9.4659   13.0697 N   0  0  0  0  0  0  0  0  0  0  0  0
   15.5188   -8.0834   13.5023 C   0  0  0  0  0  0  0  0  0  0  0  0
   16.4361   -7.7817   14.6884 C   0  0  0  0  0  0  0  0  0  0  0  0
   16.3713   -8.8243   15.8386 C   0  0  0  0  0  0  0  0  0  0  0  0
   15.4351   -9.9965   15.4649 C   0  0  0  0  0  0  0  0  0  0  0  0
   15.7217  -10.5384   14.0646 C   0  0  0  0  0  0  0  0  0  0  0  0
   14.3183  -10.3814   11.3069 N   0  0  0  0  0  0  0  0  0  0  0  0
   14.0620  -10.6919    9.9979 C   0  0  0  0  0  0  0  0  0  0  0  0
   14.9914  -10.4403    9.0301 N   0  0  0  0  0  0  0  0  0  0  0  0
   16.1715   -9.8827    9.3920 C   0  0  0  0  0  0  0  0  0  0  0  0
   16.4532   -9.5691   10.6975 C   0  0  0  0  0  0  0  0  0  0  0  0
   15.4978   -9.8093   11.6934 C   0  0  0  0  0  0  0  0  0  0  0  0
   17.7519   -9.1076   10.6986 C   0  0  0  0  0  0  0  0  0  0  0  0
   18.1557   -9.1295    9.3721 C   0  0  0  0  0  0  0  0  0  0  0  0
   17.1979   -9.6278    8.5556 N   0  0  0  0  0  0  0  0  0  0  0  0
   19.5479   -8.7881    8.9367 C   0  0  0  0  0  0  0  0  0  0  0  0
   20.2714   -7.9825   10.0250 C   0  0  0  0  0  0  0  0  0  0  0  0
   20.0926   -8.6325   11.4043 C   0  0  0  0  0  0  0  0  0  0  0  0
   18.6177   -8.6373   11.8269 C   0  0  0  0  0  0  0  0  0  0  0  0
   17.2406   -9.7702    7.5824 H   0  0  0  0  0  0  0  0  0  0  0  0
   15.7613   -8.1298   17.0493 C   0  0  0  0  0  0  0  0  0  0  0  0
   14.8549   -7.2712   16.8629 O   0  0  0  0  0  0  0  0  0  0  0  0
   16.1945   -8.4398   18.3840 N   0  0  0  0  0  0  0  0  0  0  0  0
   16.8752   -9.1458   18.4706 H   0  0  0  0  0  0  0  0  0  0  0  0
   15.7448   -7.8343   19.6029 C   0  0  0  0  0  0  0  0  0  0  0  0
   16.6874   -7.2209   20.4335 C   0  0  0  0  0  0  0  0  0  0  0  0
   16.2977   -6.6039   21.6327 C   0  0  0  0  0  0  0  0  0  0  0  0
   14.9411   -6.6074   21.9929 C   0  0  0  0  0  0  0  0  0  0  0  0
   13.9930   -7.2181   21.1688 C   0  0  0  0  0  0  0  0  0  0  0  0
   14.3932   -7.8289   19.9776 C   0  0  0  0  0  0  0  0  0  0  0  0
   17.2750   -5.9758   22.4775 N   0  0  0  0  0  0  0  0  0  0  0  0
   18.5885   -5.8404   22.2201 C   0  0  0  0  0  0  0  0  0  0  0  0
   19.2209   -5.1994   23.2211 N   0  0  0  0  0  0  0  0  0  0  0  0
   18.2656   -4.9252   24.1332 C   0  0  0  0  0  0  0  0  0  0  0  0
   17.0540   -5.4056   23.6752 C   0  0  0  0  0  0  0  0  0  0  0  0
   17.7428   -9.3560   16.0726 N   0  0  0  0  0  0  0  0  0  0  0  0
   18.6339   -8.3616   16.6650 C   0  0  0  0  0  0  0  0  0  0  0  0
   17.7477  -10.5284   16.9459 C   0  0  0  0  0  0  0  0  0  0  0  0
  7  8  2  0  0  0
  8  9  1  0  0  0
  9 10  2  0  0  0
 10 11  1  0  0  0
 11 12  2  0  0  0
 12  1  1  0  0  0
  1  2  1  0  0  0
  2  3  1  0  0  0
  3  4  1  0  0  0
  4  5  1  0  0  0
  5  6  1  0  0  0
  4 36  1  0  0  0
 36 37  1  0  0  0
 36 38  1  0  0  0
  4 21  1  0  0  0
 21 22  2  0  0  0
 21 23  1  0  0  0
 23 25  1  0  0  0
 25 26  2  0  0  0
 26 27  1  0  0  0
 27 28  2  0  0  0
 28 29  1  0  0  0
 29 30  2  0  0  0
 27 31  1  0  0  0
 31 32  1  0  0  0
 32 33  2  0  0  0
 33 34  1  0  0  0
 34 35  2  0  0  0
 11 13  1  0  0  0
 13 14  2  0  0  0
 14 15  1  0  0  0
 14 16  1  0  0  0
 16 17  1  0  0  0
 17 18  1  0  0  0
 18 19  1  0  0  0
 12  7  1  0  0  0
  6  1  1  0  0  0
 30 25  1  0  0  0
 35 31  1  0  0  0
 19 13  1  0  0  0
 15 10  1  0  0  0
 23 24  1  0  0  0
 15 20  1  0  0  0
M  END
>  <minimizedAffinity>
0.30673

>  <minimizedRMSD>
1.93262

$$$$
CHEMBL33815 PubChem-44281312


 41 43  0  0  0  0  0  0  0  0999 V2000
   16.6144   -9.6234   13.9417 C   0  0  0  0  0  0  0  0  0  0  0  0
   16.5163  -10.2415   15.1917 C   0  0  0  0  0  0  0  0  0  0  0  0
   16.0626   -9.5169   16.2976 C   0  0  0  0  0  0  0  0  0  0  0  0
   15.6990   -8.1684   16.1619 C   0  0  0  0  0  0  0  0  0  0  0  0
   15.7943   -7.5558   14.9030 C   0  0  0  0  0  0  0  0  0  0  0  0
   16.2509   -8.2800   13.7972 C   0  0  0  0  0  0  0  0  0  0  0  0
   15.2216   -7.4083   17.3308 C   0  0  0  0  0  0  0  0  0  0  0  0
   14.8405   -6.2128   17.1915 O   0  0  0  0  0  0  0  0  0  0  0  0
   15.1880   -8.0364   18.6200 N   0  0  0  0  0  0  0  0  0  0  0  0
   14.7163   -7.4285   19.8310 C   0  0  0  0  0  0  0  0  0  0  0  0
   14.2920   -6.2433   19.8365 O   0  0  0  0  0  0  0  0  0  0  0  0
   15.5163   -8.9627   18.6788 H   0  0  0  0  0  0  0  0  0  0  0  0
   14.7292   -8.2032   21.1092 C   0  0  0  0  0  0  0  0  0  0  0  0
   15.5023   -9.4275   20.9650 N   0  0  0  0  0  0  0  0  0  0  0  0
   15.0622  -10.0274   20.2673 H   0  0  0  0  0  0  0  0  0  0  0  0
   15.5364   -9.9155   21.8601 H   0  0  0  0  0  0  0  0  0  0  0  0
   13.3205   -8.4864   21.6356 C   0  0  0  0  0  0  0  0  0  0  0  0
   12.2296   -7.7007   20.9063 C   0  0  0  0  0  0  0  0  0  0  0  0
   11.7618   -8.3665   19.6480 C   0  0  0  0  0  0  0  0  0  0  0  0
   11.2232   -9.5055   19.6701 O   0  0  0  0  0  0  0  0  0  0  0  0
   11.9230   -7.7117   18.4347 O   0  0  0  0  0  0  0  0  0  0  0  0
   12.3225   -6.8645   18.4089 H   0  0  0  0  0  0  0  0  0  0  0  0
   17.0930  -10.4062   12.7653 C   0  0  0  0  0  0  0  0  0  0  0  0
   14.7574  -10.4750   11.8663 C   0  0  0  0  0  0  0  0  0  0  0  0
   16.1798  -10.2527   11.6367 N   0  0  0  0  0  0  0  0  0  0  0  0
   16.6666   -9.8543   10.3411 C   0  0  0  0  0  0  0  0  0  0  0  0
   15.9809  -10.2188    9.1708 C   0  0  0  0  0  0  0  0  0  0  0  0
   16.4498   -9.8484    7.9483 N   0  0  0  0  0  0  0  0  0  0  0  0
   17.5890   -9.1187    7.8139 C   0  0  0  0  0  0  0  0  0  0  0  0
   18.0342   -8.7695    6.5791 N   0  0  0  0  0  0  0  0  0  0  0  0
   19.1676   -8.0348    6.4301 C   0  0  0  0  0  0  0  0  0  0  0  0
   19.6235   -7.6917    5.1270 N   0  0  0  0  0  0  0  0  0  0  0  0
   19.8776   -7.6434    7.5217 N   0  0  0  0  0  0  0  0  0  0  0  0
   19.4751   -7.9695    8.7784 C   0  0  0  0  0  0  0  0  0  0  0  0
   20.2450   -7.5379    9.8970 N   0  0  0  0  0  0  0  0  0  0  0  0
   18.3086   -8.7233    8.9554 C   0  0  0  0  0  0  0  0  0  0  0  0
   17.8413   -9.0972   10.2180 C   0  0  0  0  0  0  0  0  0  0  0  0
   19.1105   -7.9744    4.3357 H   0  0  0  0  0  0  0  0  0  0  0  0
   20.4521   -7.1716    5.0164 H   0  0  0  0  0  0  0  0  0  0  0  0
   21.0630   -7.0083    9.7566 H   0  0  0  0  0  0  0  0  0  0  0  0
   19.9589   -7.7691   10.8102 H   0  0  0  0  0  0  0  0  0  0  0  0
 24 25  1  0  0  0
 25 23  1  0  0  0
 25 26  1  0  0  0
 23  1  1  0  0  0
  1  2  2  0  0  0
  2  3  1  0  0  0
  3  4  2  0  0  0
  4  7  1  0  0  0
  4  5  1  0  0  0
  7  8  2  0  0  0
  7  9  1  0  0  0
  9 10  1  0  0  0
 10 11  2  0  0  0
 13 10  1  0  0  0
 13 14  1  0  0  0
 13 17  1  0  0  0
 17 18  1  0  0  0
 18 19  1  0  0  0
 19 20  2  0  0  0
 19 21  1  0  0  0
  5  6  2  0  0  0
  6  1  1  0  0  0
 26 27  2  0  0  0
 27 28  1  0  0  0
 28 29  2  0  0  0
 29 30  1  0  0  0
 30 31  2  0  0  0
 31 32  1  0  0  0
 31 33  1  0  0  0
 33 34  2  0  0  0
 34 35  1  0  0  0
 34 36  1  0  0  0
 36 37  2  0  0  0
 36 29  1  0  0  0
 37 26  1  0  0  0
  9 12  1  0  0  0
 14 15  1  0  0  0
 14 16  1  0  0  0
 21 22  1  0  0  0
 32 38  1  0  0  0
 32 39  1  0  0  0
 35 40  1  0  0  0
 35 41  1  0  0  0
M  END
>  <minimizedAffinity>
-1.87309

>  <minimizedRMSD>
1.93263

$$$$
CHEMBL4529396 PubChem-137049212


 35 40  0  0  0  0  0  0  0  0999 V2000
   17.2553  -10.9985   13.7979 C   0  0  0  0  0  0  0  0  0  0  0  0
   17.8372  -12.0734   14.1072 O   0  0  0  0  0  0  0  0  0  0  0  0
   16.6845  -10.8532   12.4892 N   0  0  0  0  0  0  0  0  0  0  0  0
   15.4269  -10.1254   12.3176 C   0  0  0  0  0  0  0  0  0  0  0  0
   15.4624   -9.3291   11.0160 C   0  0  0  0  0  0  0  0  0  0  0  0
   15.8696  -10.1813    9.8040 C   0  0  0  0  0  0  0  0  0  0  0  0
   16.3205  -11.6062   10.1553 C   0  0  0  0  0  0  0  0  0  0  0  0
   17.2369  -11.6363   11.3802 C   0  0  0  0  0  0  0  0  0  0  0  0
   16.8923   -9.4677    8.9804 C   0  0  0  0  0  0  0  0  0  0  0  0
   16.9386   -9.5653    7.6294 N   0  0  0  0  0  0  0  0  0  0  0  0
   17.9490   -8.8145    7.1231 C   0  0  0  0  0  0  0  0  0  0  0  0
   18.7000   -8.1225    8.0603 C   0  0  0  0  0  0  0  0  0  0  0  0
   18.1003   -8.4425    9.5927 S   0  0  0  0  0  0  0  0  0  0  0  0
   19.7694   -7.3080    7.6994 C   0  0  0  0  0  0  0  0  0  0  0  0
   20.0788   -7.1999    6.3345 C   0  0  0  0  0  0  0  0  0  0  0  0
   19.3234   -7.8981    5.3719 C   0  0  0  0  0  0  0  0  0  0  0  0
   18.2482   -8.7134    5.7645 C   0  0  0  0  0  0  0  0  0  0  0  0
   19.6353   -7.7826    4.0590 F   0  0  0  0  0  0  0  0  0  0  0  0
   14.9930  -10.5856   16.0005 C   0  0  0  0  0  0  0  0  0  0  0  0
   16.2090   -9.7436   15.7882 C   0  0  0  0  0  0  0  0  0  0  0  0
   17.1640   -9.9249   14.8054 C   0  0  0  0  0  0  0  0  0  0  0  0
   18.0015   -8.8266   14.8911 C   0  0  0  0  0  0  0  0  0  0  0  0
   17.5658   -8.0416   15.8988 N   0  0  0  0  0  0  0  0  0  0  0  0
   16.4876   -8.5924   16.4364 N   0  0  0  0  0  0  0  0  0  0  0  0
   15.7659   -7.9887   17.5226 C   0  0  0  0  0  0  0  0  0  0  0  0
   14.5353   -7.4300   17.3231 N   0  0  0  0  0  0  0  0  0  0  0  0
   13.8989   -6.8862   18.3571 N   0  0  0  0  0  0  0  0  0  0  0  0
   12.6978   -6.2961   18.3573 C   0  0  0  0  0  0  0  0  0  0  0  0
   12.4388   -5.8781   19.6612 C   0  0  0  0  0  0  0  0  0  0  0  0
   13.5298   -6.2362   20.4597 C   0  0  0  0  0  0  0  0  0  0  0  0
   14.4011   -6.8578   19.5912 C   0  0  0  0  0  0  0  0  0  0  0  0
   15.6492   -7.4189   19.8306 C   0  0  0  0  0  0  0  0  0  0  0  0
   16.1620   -7.4156   20.9807 O   0  0  0  0  0  0  0  0  0  0  0  0
   16.3105   -7.9785   18.7791 N   0  0  0  0  0  0  0  0  0  0  0  0
   17.1960   -8.3831   18.9252 H   0  0  0  0  0  0  0  0  0  0  0  0
 19 20  1  0  0  0
 20 21  2  0  0  0
 21 22  1  0  0  0
 22 23  2  0  0  0
 23 24  1  0  0  0
 24 25  1  0  0  0
 25 26  2  0  0  0
 26 27  1  0  0  0
 27 28  1  0  0  0
 28 29  2  0  0  0
 29 30  1  0  0  0
 30 31  2  0  0  0
 31 32  1  0  0  0
 32 33  2  0  0  0
 32 34  1  0  0  0
 21  1  1  0  0  0
  1  2  2  0  0  0
  1  3  1  0  0  0
  3  4  1  0  0  0
  4  5  1  0  0  0
  5  6  1  0  0  0
  6  7  1  0  0  0
  7  8  1  0  0  0
  6  9  1  0  0  0
  9 10  2  0  0  0
 10 11  1  0  0  0
 11 12  2  0  0  0
 12 13  1  0  0  0
 12 14  1  0  0  0
 14 15  2  0  0  0
 15 16  1  0  0  0
 16 17  2  0  0  0
 16 18  1  0  0  0
 24 20  1  0  0  0
 34 25  1  0  0  0
 31 27  1  0  0  0
  8  3  1  0  0  0
 13  9  1  0  0  0
 17 11  1  0  0  0
 34 35  1  0  0  0
M  END
>  <minimizedAffinity>
-1.87901

>  <minimizedRMSD>
1.94013

$$$$
CHEMBL3680429 PubChem-91808734


 37 40  0  0  0  0  0  0  0  0999 V2000
   15.5235   -8.3407   16.6789 N   0  0  0  0  0  0  0  0  0  0  0  0
   16.5345   -8.8044   16.0079 C   0  0  0  0  0  0  0  0  0  0  0  0
   16.3325   -9.1992   14.5766 C   0  0  0  0  0  0  0  0  0  0  0  0
   17.3322  -10.2858   14.1791 C   0  0  0  0  0  0  0  0  0  0  0  0
   18.7734   -9.8631   14.4877 C   0  0  0  0  0  0  0  0  0  0  0  0
   18.9216   -9.3582   15.8976 C   0  0  0  0  0  0  0  0  0  0  0  0
   17.8909   -8.8730   16.5938 C   0  0  0  0  0  0  0  0  0  0  0  0
   15.5940   -7.8976   18.0679 C   0  0  0  0  0  0  0  0  0  0  0  0
   15.9694   -8.9613   18.8924 O   0  0  0  0  0  0  0  0  0  0  0  0
   15.3093   -9.6691   18.8275 H   0  0  0  0  0  0  0  0  0  0  0  0
   10.6310   -7.5745   17.4984 C   0  0  0  0  0  0  0  0  0  0  0  0
   11.8639   -7.1835   18.2372 C   0  0  0  0  0  0  0  0  0  0  0  0
   11.8004   -6.3056   19.3326 C   0  0  0  0  0  0  0  0  0  0  0  0
   12.9852   -5.9594   20.0037 C   0  0  0  0  0  0  0  0  0  0  0  0
   14.2130   -6.4810   19.5891 C   0  0  0  0  0  0  0  0  0  0  0  0
   14.2721   -7.3550   18.5008 C   0  0  0  0  0  0  0  0  0  0  0  0
   13.0948   -7.7032   17.8257 C   0  0  0  0  0  0  0  0  0  0  0  0
   10.5629   -5.7909   19.7369 O   0  0  0  0  0  0  0  0  0  0  0  0
   10.4323   -4.8210   20.7674 C   0  0  0  0  0  0  0  0  0  0  0  0
   17.1743  -10.6685   12.7132 C   0  0  0  0  0  0  0  0  0  0  0  0
   17.0699   -9.4829   11.8728 N   0  0  0  0  0  0  0  0  0  0  0  0
   17.0592   -8.5964   12.3010 H   0  0  0  0  0  0  0  0  0  0  0  0
   16.9825   -9.5620   10.4471 C   0  0  0  0  0  0  0  0  0  0  0  0
   15.9781  -10.2695    9.8632 N   0  0  0  0  0  0  0  0  0  0  0  0
   15.8728  -10.3604    8.5130 C   0  0  0  0  0  0  0  0  0  0  0  0
   16.7782   -9.7398    7.7142 N   0  0  0  0  0  0  0  0  0  0  0  0
   17.8062   -9.0163    8.2355 C   0  0  0  0  0  0  0  0  0  0  0  0
   17.9286   -8.9127    9.6409 C   0  0  0  0  0  0  0  0  0  0  0  0
   18.9770   -8.1739   10.2004 C   0  0  0  0  0  0  0  0  0  0  0  0
   19.9034   -7.5386    9.3759 C   0  0  0  0  0  0  0  0  0  0  0  0
   19.7883   -7.6370    7.9888 C   0  0  0  0  0  0  0  0  0  0  0  0
   18.7484   -8.3703    7.3967 C   0  0  0  0  0  0  0  0  0  0  0  0
   18.6887   -8.4318    5.9147 C   0  0  0  0  0  0  0  0  0  0  0  0
   17.6529   -8.8318    5.3206 O   0  0  0  0  0  0  0  0  0  0  0  0
   19.8149   -8.0348    5.1367 N   0  0  0  0  0  0  0  0  0  0  0  0
   20.6342   -7.7190    5.5820 H   0  0  0  0  0  0  0  0  0  0  0  0
   19.7736   -8.0763    4.1539 H   0  0  0  0  0  0  0  0  0  0  0  0
 11 12  1  0  0  0
 12 13  2  0  0  0
 13 14  1  0  0  0
 14 15  2  0  0  0
 15 16  1  0  0  0
 16 17  2  0  0  0
 16  8  1  0  0  0
  8  1  1  0  0  0
  1  2  2  0  0  0
  2  3  1  0  0  0
  3  4  1  0  0  0
  4  5  1  0  0  0
  5  6  1  0  0  0
  6  7  2  0  0  0
  4 20  1  0  0  0
 20 21  1  0  0  0
 21 23  1  0  0  0
 23 24  2  0  0  0
 24 25  1  0  0  0
 25 26  2  0  0  0
 26 27  1  0  0  0
 27 28  2  0  0  0
 28 29  1  0  0  0
 29 30  2  0  0  0
 30 31  1  0  0  0
 31 32  2  0  0  0
 32 33  1  0  0  0
 33 34  2  0  0  0
 33 35  1  0  0  0
  8  9  1  0  0  0
 13 18  1  0  0  0
 18 19  1  0  0  0
 17 12  1  0  0  0
  2  7  1  0  0  0
 28 23  1  0  0  0
 32 27  1  0  0  0
 21 22  1  0  0  0
 35 36  1  0  0  0
 35 37  1  0  0  0
  9 10  1  0  0  0
M  END
>  <minimizedAffinity>
-7.96098

>  <minimizedRMSD>
1.94169

$$$$
CHEMBL3775791 PubChem-127032354


 28 31  0  0  0  0  0  0  0  0999 V2000
   16.1510   -9.4284   13.8651 C   0  0  0  0  0  0  0  0  0  0  0  0
   15.1821  -10.0914   13.4108 O   0  0  0  0  0  0  0  0  0  0  0  0
   16.4655   -9.4954   15.2995 C   0  0  0  0  0  0  0  0  0  0  0  0
   15.9330   -8.7025   16.1952 O   0  0  0  0  0  0  0  0  0  0  0  0
   16.4263   -9.0273   17.3626 C   0  0  0  0  0  0  0  0  0  0  0  0
   17.3256  -10.0690   17.2469 C   0  0  0  0  0  0  0  0  0  0  0  0
   17.3507  -10.3776   15.8960 C   0  0  0  0  0  0  0  0  0  0  0  0
   16.0779   -8.3328   18.6344 C   0  0  0  0  0  0  0  0  0  0  0  0
   14.7679   -7.7070   18.5238 N   0  0  0  0  0  0  0  0  0  0  0  0
   13.9146   -7.4901   19.6515 C   0  0  0  0  0  0  0  0  0  0  0  0
   14.2858   -7.8317   20.8073 O   0  0  0  0  0  0  0  0  0  0  0  0
   14.4560   -7.4208   17.6349 H   0  0  0  0  0  0  0  0  0  0  0  0
   12.5581   -6.8961   19.4527 C   0  0  0  0  0  0  0  0  0  0  0  0
   12.4809   -6.2250   18.0934 C   0  0  0  0  0  0  0  0  0  0  0  0
   12.6655   -5.3861   19.3371 C   0  0  0  0  0  0  0  0  0  0  0  0
   16.9434   -8.5719   12.9309 C   0  0  0  0  0  0  0  0  0  0  0  0
   18.2450   -9.5385   12.0982 S   0  0  0  0  0  0  0  0  0  0  0  0
   15.7315  -10.0462    8.3201 N   0  0  0  0  0  0  0  0  0  0  0  0
   15.3491  -10.5704    9.5157 C   0  0  0  0  0  0  0  0  0  0  0  0
   16.1266  -10.4000   10.6237 N   0  0  0  0  0  0  0  0  0  0  0  0
   17.3003   -9.7065   10.5808 C   0  0  0  0  0  0  0  0  0  0  0  0
   17.7137   -9.1617    9.3506 C   0  0  0  0  0  0  0  0  0  0  0  0
   16.8941   -9.3567    8.2508 C   0  0  0  0  0  0  0  0  0  0  0  0
   17.5412   -8.6379    6.8819 S   0  0  0  0  0  0  0  0  0  0  0  0
   18.9080   -8.0523    7.6815 C   0  0  0  0  0  0  0  0  0  0  0  0
   18.8687   -8.4160    9.0306 C   0  0  0  0  0  0  0  0  0  0  0  0
   19.9496   -8.0401    9.9888 C   0  0  0  0  0  0  0  0  0  0  0  0
   19.9867   -7.2653    7.0214 C   0  0  0  0  0  0  0  0  0  0  0  0
 18 19  2  0  0  0
 19 20  1  0  0  0
 20 21  2  0  0  0
 21 22  1  0  0  0
 22 23  2  0  0  0
 23 24  1  0  0  0
 24 25  1  0  0  0
 25 26  2  0  0  0
 26 27  1  0  0  0
 25 28  1  0  0  0
 21 17  1  0  0  0
 17 16  1  0  0  0
 16  1  1  0  0  0
  1  2  2  0  0  0
  1  3  1  0  0  0
  3  4  1  0  0  0
  4  5  1  0  0  0
  5  6  2  0  0  0
  6  7  1  0  0  0
  5  8  1  0  0  0
  8  9  1  0  0  0
  9 10  1  0  0  0
 10 11  2  0  0  0
 10 13  1  0  0  0
 13 14  1  0  0  0
 14 15  1  0  0  0
 23 18  1  0  0  0
  7  3  2  0  0  0
 15 13  1  0  0  0
 26 22  1  0  0  0
  9 12  1  0  0  0
M  END
>  <minimizedAffinity>
-4.73655

>  <minimizedRMSD>
1.94615

$$$$
CHEMBL1329024 8607039 ChemDiv-G357-1270 MCULE-2722787636 MolPort-007-847-470 PubChem-16027442 ZINC000008607039 ZINC08607039


 34 38  0  0  0  0  0  0  0  0999 V2000
   16.4183   -8.9398   16.5595 C   0  0  0  0  0  0  0  0  0  0  0  0
   17.1074  -10.1403   16.3599 C   0  0  0  0  0  0  0  0  0  0  0  0
   17.4771  -10.5386   15.0721 C   0  0  0  0  0  0  0  0  0  0  0  0
   17.1610   -9.7379   13.9655 C   0  0  0  0  0  0  0  0  0  0  0  0
   16.4686   -8.5368   14.1640 C   0  0  0  0  0  0  0  0  0  0  0  0
   16.0995   -8.1400   15.4521 C   0  0  0  0  0  0  0  0  0  0  0  0
   14.9506   -7.7415   18.2967 C   0  0  0  0  0  0  0  0  0  0  0  0
   14.1769   -7.2568   17.4273 O   0  0  0  0  0  0  0  0  0  0  0  0
   16.0572   -8.5668   17.8964 N   0  0  0  0  0  0  0  0  0  0  0  0
   16.6295   -8.9138   18.6184 H   0  0  0  0  0  0  0  0  0  0  0  0
   12.2331   -8.0197   19.6610 C   0  0  0  0  0  0  0  0  0  0  0  0
   13.4706   -7.6008   20.3818 C   0  0  0  0  0  0  0  0  0  0  0  0
   14.7314   -7.4714   19.7411 C   0  0  0  0  0  0  0  0  0  0  0  0
   15.8359   -7.0660   20.5094 C   0  0  0  0  0  0  0  0  0  0  0  0
   15.7058   -6.7960   21.8727 C   0  0  0  0  0  0  0  0  0  0  0  0
   14.4637   -6.9266   22.4926 C   0  0  0  0  0  0  0  0  0  0  0  0
   13.3529   -7.3276   21.7488 C   0  0  0  0  0  0  0  0  0  0  0  0
   17.5480  -10.1515   12.6069 C   0  0  0  0  0  0  0  0  0  0  0  0
   18.3581  -11.1059   12.4429 O   0  0  0  0  0  0  0  0  0  0  0  0
   17.0146   -9.4835   11.5023 O   0  0  0  0  0  0  0  0  0  0  0  0
   16.5228  -10.1818   10.3680 C   0  0  0  0  0  0  0  0  0  0  0  0
   16.9358   -9.4701    9.1293 C   0  0  0  0  0  0  0  0  0  0  0  0
   16.0781   -8.5183    8.5533 C   0  0  0  0  0  0  0  0  0  0  0  0
   16.5002   -7.8409    7.4041 C   0  0  0  0  0  0  0  0  0  0  0  0
   15.7530   -6.9844    6.8612 O   0  0  0  0  0  0  0  0  0  0  0  0
   17.7279   -8.1214    6.8918 N   0  0  0  0  0  0  0  0  0  0  0  0
   18.2463   -7.5517    5.8067 N   0  0  0  0  0  0  0  0  0  0  0  0
   19.4904   -8.0157    5.5291 C   0  0  0  0  0  0  0  0  0  0  0  0
   19.9865   -9.1995    6.6428 S   0  0  0  0  0  0  0  0  0  0  0  0
   18.5346   -9.0352    7.4708 C   0  0  0  0  0  0  0  0  0  0  0  0
   18.1605   -9.7141    8.5825 N   0  0  0  0  0  0  0  0  0  0  0  0
   20.2839   -7.5855    4.3393 C   0  0  0  0  0  0  0  0  0  0  0  0
   21.6207   -7.0232    4.7884 C   0  0  0  0  0  0  0  0  0  0  0  0
   20.5078   -6.0848    4.3819 C   0  0  0  0  0  0  0  0  0  0  0  0
 11 12  1  0  0  0
 12 13  2  0  0  0
 13 14  1  0  0  0
 13  7  1  0  0  0
 14 15  2  0  0  0
 15 16  1  0  0  0
 16 17  2  0  0  0
 17 12  1  0  0  0
  7  8  2  0  0  0
  7  9  1  0  0  0
  9  1  1  0  0  0
  1  2  2  0  0  0
  2  3  1  0  0  0
  3  4  2  0  0  0
  4  5  1  0  0  0
  4 18  1  0  0  0
  5  6  2  0  0  0
  6  1  1  0  0  0
 18 19  2  0  0  0
 18 20  1  0  0  0
 20 21  1  0  0  0
 21 22  1  0  0  0
 22 23  2  0  0  0
 23 24  1  0  0  0
 24 25  2  0  0  0
 24 26  1  0  0  0
 26 27  1  0  0  0
 27 28  2  0  0  0
 28 29  1  0  0  0
 28 32  1  0  0  0
 29 30  1  0  0  0
 30 31  2  0  0  0
 30 26  1  0  0  0
 31 22  1  0  0  0
 32 33  1  0  0  0
 33 34  1  0  0  0
 34 32  1  0  0  0
  9 10  1  0  0  0
M  END
>  <minimizedAffinity>
-5.57830

>  <minimizedRMSD>
1.95173

$$$$
CHEMBL3357591 PubChem-118722317


 31 34  0  0  0  0  0  0  0  0999 V2000
   17.2632   -9.2323   14.2460 N   0  0  0  0  0  0  0  0  0  0  0  0
   17.1540   -8.2167   15.2770 C   0  0  0  0  0  0  0  0  0  0  0  0
   18.2560   -8.5146   16.2810 C   0  0  0  0  0  0  0  0  0  0  0  0
   19.0619   -9.6807   15.7199 C   0  0  0  0  0  0  0  0  0  0  0  0
   18.3306  -10.1793   14.4870 C   0  0  0  0  0  0  0  0  0  0  0  0
   16.5050   -9.2221   13.0311 C   0  0  0  0  0  0  0  0  0  0  0  0
   15.7153   -8.2676   12.7896 O   0  0  0  0  0  0  0  0  0  0  0  0
   15.7737   -8.2272   15.9487 C   0  0  0  0  0  0  0  0  0  0  0  0
   15.8198   -8.5601   17.4079 C   0  0  0  0  0  0  0  0  0  0  0  0
   16.3953   -9.6109   17.7980 O   0  0  0  0  0  0  0  0  0  0  0  0
   15.1932   -7.6864   18.3462 N   0  0  0  0  0  0  0  0  0  0  0  0
   14.7209   -6.8884   18.0154 H   0  0  0  0  0  0  0  0  0  0  0  0
   15.2327   -7.9417   19.7775 C   0  0  0  0  0  0  0  0  0  0  0  0
   15.0046   -6.6510   20.5441 C   0  0  0  0  0  0  0  0  0  0  0  0
   13.6618   -6.6028   20.9968 O   0  0  0  0  0  0  0  0  0  0  0  0
   13.5646   -6.5581   22.3621 N   0  0  0  0  0  0  0  0  0  0  0  0
   14.7440   -6.5849   22.8710 C   0  0  0  0  0  0  0  0  0  0  0  0
   15.8163   -6.6523   21.8423 C   0  0  0  0  0  0  0  0  0  0  0  0
   15.0589   -6.5170   24.7487 Br  0  0  0  0  0  0  0  0  0  0  0  0
   16.6426  -10.2730   12.1199 O   0  0  0  0  0  0  0  0  0  0  0  0
   15.8086  -10.4028   10.9757 C   0  0  0  0  0  0  0  0  0  0  0  0
   16.5077   -9.8955    9.7613 C   0  0  0  0  0  0  0  0  0  0  0  0
   16.1215  -10.3394    8.4933 C   0  0  0  0  0  0  0  0  0  0  0  0
   16.7629   -9.8849    7.3817 N   0  0  0  0  0  0  0  0  0  0  0  0
   17.7909   -8.9991    7.4677 C   0  0  0  0  0  0  0  0  0  0  0  0
   18.2155   -8.5345    8.7316 C   0  0  0  0  0  0  0  0  0  0  0  0
   17.5646   -8.9889    9.8788 C   0  0  0  0  0  0  0  0  0  0  0  0
   19.2699   -7.6212    8.8232 C   0  0  0  0  0  0  0  0  0  0  0  0
   19.9066   -7.1744    7.6604 C   0  0  0  0  0  0  0  0  0  0  0  0
   19.4902   -7.6389    6.4070 C   0  0  0  0  0  0  0  0  0  0  0  0
   18.4331   -8.5497    6.3100 C   0  0  0  0  0  0  0  0  0  0  0  0
  1  2  1  0  0  0
  2  3  1  0  0  0
  3  4  1  0  0  0
  4  5  1  0  0  0
  2  8  1  0  0  0
  8  9  1  0  0  0
  9 10  2  0  0  0
  9 11  1  0  0  0
 11 13  1  0  0  0
 14 13  1  0  0  0
 14 15  1  0  0  0
 15 16  1  0  0  0
 16 17  2  0  0  0
 17 18  1  0  0  0
 17 19  1  0  0  0
  1  6  1  0  0  0
  6  7  2  0  0  0
  6 20  1  0  0  0
 20 21  1  0  0  0
 21 22  1  0  0  0
 22 23  2  0  0  0
 23 24  1  0  0  0
 24 25  2  0  0  0
 25 26  1  0  0  0
 26 27  2  0  0  0
 26 28  1  0  0  0
 28 29  2  0  0  0
 29 30  1  0  0  0
 30 31  2  0  0  0
  5  1  1  0  0  0
 18 14  1  0  0  0
 27 22  1  0  0  0
 31 25  1  0  0  0
 11 12  1  0  0  0
M  END
>  <minimizedAffinity>
-7.88781

>  <minimizedRMSD>
1.95511

$$$$
CHEMBL1088459 PubChem-45278369


 29 32  0  0  0  0  0  0  0  0999 V2000
   15.0957   -8.0902   12.1836 C   0  0  0  0  0  0  0  0  0  0  0  0
   15.8716   -8.7522   13.2753 C   0  0  0  0  0  0  0  0  0  0  0  0
   15.6691   -8.5341   14.5779 C   0  0  0  0  0  0  0  0  0  0  0  0
   16.5221   -9.4370   15.3361 C   0  0  0  0  0  0  0  0  0  0  0  0
   16.6213   -9.5555   16.6823 N   0  0  0  0  0  0  0  0  0  0  0  0
   17.4751  -10.4734   17.2208 C   0  0  0  0  0  0  0  0  0  0  0  0
   17.5686  -10.5840   18.6389 N   0  0  0  0  0  0  0  0  0  0  0  0
   18.2575  -11.3055   16.3792 C   0  0  0  0  0  0  0  0  0  0  0  0
   18.1447  -11.1767   14.9742 C   0  0  0  0  0  0  0  0  0  0  0  0
   18.9490  -12.0303   14.0460 C   0  0  0  0  0  0  0  0  0  0  0  0
   17.2518  -10.2193   14.4783 C   0  0  0  0  0  0  0  0  0  0  0  0
   16.8901   -9.8186   13.1164 C   0  0  0  0  0  0  0  0  0  0  0  0
   17.3799  -10.3603   11.9945 C   0  0  0  0  0  0  0  0  0  0  0  0
   17.0218  -10.0024   19.2151 H   0  0  0  0  0  0  0  0  0  0  0  0
   18.1799  -11.2420   19.0421 H   0  0  0  0  0  0  0  0  0  0  0  0
   17.0731   -9.9026   10.6296 C   0  0  0  0  0  0  0  0  0  0  0  0
   15.8850  -10.3405   10.0400 C   0  0  0  0  0  0  0  0  0  0  0  0
   15.5693   -9.9490    8.7380 C   0  0  0  0  0  0  0  0  0  0  0  0
   16.4199   -9.1547    8.0359 N   0  0  0  0  0  0  0  0  0  0  0  0
   17.5964   -8.7274    8.5655 C   0  0  0  0  0  0  0  0  0  0  0  0
   18.4527   -7.9282    7.8027 C   0  0  0  0  0  0  0  0  0  0  0  0
   19.6739   -7.5041    8.3335 C   0  0  0  0  0  0  0  0  0  0  0  0
   20.0456   -7.8801    9.6271 C   0  0  0  0  0  0  0  0  0  0  0  0
   19.1947   -8.6772   10.3974 C   0  0  0  0  0  0  0  0  0  0  0  0
   17.9604   -9.1019    9.8806 C   0  0  0  0  0  0  0  0  0  0  0  0
   14.7233   -7.6066   15.1440 C   0  0  0  0  0  0  0  0  0  0  0  0
   13.9634   -6.8619   15.5990 N   0  0  0  0  0  0  0  0  0  0  0  0
   19.1599  -12.2742   16.9592 C   0  0  0  0  0  0  0  0  0  0  0  0
   19.8824  -13.0499   17.4237 N   0  0  0  0  0  0  0  0  0  0  0  0
  1  2  1  0  0  0
  2  3  2  0  0  0
  3 26  1  0  0  0
  3  4  1  0  0  0
 26 27  3  0  0  0
  4  5  2  0  0  0
  5  6  1  0  0  0
  6  7  1  0  0  0
  6  8  2  0  0  0
  8 28  1  0  0  0
  8  9  1  0  0  0
 28 29  3  0  0  0
  9 10  1  0  0  0
  9 11  2  0  0  0
 11 12  1  0  0  0
 11  4  1  0  0  0
 12 13  2  0  0  0
 12  2  1  0  0  0
 13 16  1  0  0  0
 16 17  2  0  0  0
 17 18  1  0  0  0
 18 19  2  0  0  0
 19 20  1  0  0  0
 20 21  2  0  0  0
 21 22  1  0  0  0
 22 23  2  0  0  0
 23 24  1  0  0  0
 24 25  2  0  0  0
 25 16  1  0  0  0
 25 20  1  0  0  0
  7 14  1  0  0  0
  7 15  1  0  0  0
M  END
>  <minimizedAffinity>
3.99404

>  <minimizedRMSD>
1.96197

$$$$
CHEMBL3234591 PubChem-136046123


 36 39  0  0  0  0  0  0  0  0999 V2000
   20.0684   -9.2767   10.6066 C   0  0  0  0  0  0  0  0  0  0  0  0
   20.3693   -7.8103   10.3186 C   0  0  0  0  0  0  0  0  0  0  0  0
   19.4150   -7.2597    9.3639 N   0  0  0  0  0  0  0  0  0  0  0  0
   19.2256   -6.2964    9.4374 H   0  0  0  0  0  0  0  0  0  0  0  0
   18.7194   -7.9745    8.3244 C   0  0  0  0  0  0  0  0  0  0  0  0
   17.5845   -8.7261    8.6834 C   0  0  0  0  0  0  0  0  0  0  0  0
   16.9076   -9.4799    7.6996 C   0  0  0  0  0  0  0  0  0  0  0  0
   17.3207   -9.4345    6.4082 N   0  0  0  0  0  0  0  0  0  0  0  0
   18.3923   -8.7005    6.0189 C   0  0  0  0  0  0  0  0  0  0  0  0
   19.1206   -7.9428    6.9667 C   0  0  0  0  0  0  0  0  0  0  0  0
   20.2016   -7.1672    6.5198 C   0  0  0  0  0  0  0  0  0  0  0  0
   20.5650   -7.1559    5.1709 C   0  0  0  0  0  0  0  0  0  0  0  0
   19.8469   -7.9171    4.2473 C   0  0  0  0  0  0  0  0  0  0  0  0
   18.7612   -8.6861    4.6704 C   0  0  0  0  0  0  0  0  0  0  0  0
   15.6604  -10.2557    8.0233 C   0  0  0  0  0  0  0  0  0  0  0  0
   15.5438  -10.5785    9.5090 C   0  0  0  0  0  0  0  0  0  0  0  0
   15.7503   -9.3096   10.3192 C   0  0  0  0  0  0  0  0  0  0  0  0
   17.1827   -8.8221   10.1360 C   0  0  0  0  0  0  0  0  0  0  0  0
   19.4062   -9.4527   11.9633 C   0  0  0  0  0  0  0  0  0  0  0  0
   18.3116  -10.5023   11.8749 C   0  0  0  0  0  0  0  0  0  0  0  0
   18.5999  -11.6560   12.8251 C   0  0  0  0  0  0  0  0  0  0  0  0
   18.1567  -11.3995   14.2353 C   0  0  0  0  0  0  0  0  0  0  0  0
   18.3541  -12.3959   15.1899 C   0  0  0  0  0  0  0  0  0  0  0  0
   17.9382  -12.1785   16.5014 C   0  0  0  0  0  0  0  0  0  0  0  0
   17.3285  -10.9744   16.8545 C   0  0  0  0  0  0  0  0  0  0  0  0
   17.1391   -9.9801   15.8689 C   0  0  0  0  0  0  0  0  0  0  0  0
   17.5599  -10.2281   14.5958 N   0  0  0  0  0  0  0  0  0  0  0  0
   16.9272  -10.7880   18.1721 O   0  0  0  0  0  0  0  0  0  0  0  0
   17.0659  -11.4655   18.8043 H   0  0  0  0  0  0  0  0  0  0  0  0
   16.5023   -8.6734   16.1576 C   0  0  0  0  0  0  0  0  0  0  0  0
   15.6366   -8.5474   17.1140 N   0  0  0  0  0  0  0  0  0  0  0  0
   15.0397   -7.3378   17.3864 O   0  0  0  0  0  0  0  0  0  0  0  0
   16.8475   -7.5387   15.3647 N   0  0  0  0  0  0  0  0  0  0  0  0
   14.4164   -7.2692   18.0827 H   0  0  0  0  0  0  0  0  0  0  0  0
   17.5043   -7.6282   14.6368 H   0  0  0  0  0  0  0  0  0  0  0  0
   16.4288   -6.6662   15.5454 H   0  0  0  0  0  0  0  0  0  0  0  0
  5  6  2  0  0  0
  6  7  1  0  0  0
  7  8  2  0  0  0
  8  9  1  0  0  0
  9 10  2  0  0  0
 10 11  1  0  0  0
 11 12  2  0  0  0
 12 13  1  0  0  0
 13 14  2  0  0  0
  7 15  1  0  0  0
 15 16  1  0  0  0
 16 17  1  0  0  0
 17 18  1  0  0  0
  5  3  1  0  0  0
  3  2  1  0  0  0
  2  1  1  0  0  0
  1 19  1  0  0  0
 19 20  1  0  0  0
 20 21  1  0  0  0
 21 22  1  0  0  0
 22 23  2  0  0  0
 23 24  1  0  0  0
 24 25  2  0  0  0
 25 26  1  0  0  0
 26 27  2  0  0  0
 26 30  1  0  0  0
 30 31  2  0  0  0
 31 32  1  0  0  0
 30 33  1  0  0  0
 25 28  1  0  0  0
 10  5  1  0  0  0
 27 22  1  0  0  0
 18  6  1  0  0  0
 14  9  1  0  0  0
  3  4  1  0  0  0
 32 34  1  0  0  0
 33 35  1  0  0  0
 33 36  1  0  0  0
 28 29  1  0  0  0
M  END
>  <minimizedAffinity>
-1.64197

>  <minimizedRMSD>
1.96226

$$$$
CHEMBL4875953 PubChem-164625953


 26 27  0  0  0  0  0  0  0  0999 V2000
   18.0486  -10.2669   12.9159 C   0  0  0  0  0  0  0  0  0  0  0  0
   18.9052   -9.6360   13.5918 O   0  0  0  0  0  0  0  0  0  0  0  0
   17.3770  -11.3915   13.4907 N   0  0  0  0  0  0  0  0  0  0  0  0
   16.7276  -11.8943   12.9477 H   0  0  0  0  0  0  0  0  0  0  0  0
   17.8283   -7.8891    6.9503 C   0  0  0  0  0  0  0  0  0  0  0  0
   19.0462   -7.5432    7.5475 C   0  0  0  0  0  0  0  0  0  0  0  0
   19.3292   -7.9504    8.8557 C   0  0  0  0  0  0  0  0  0  0  0  0
   18.3919   -8.7047    9.5663 C   0  0  0  0  0  0  0  0  0  0  0  0
   17.1653   -9.0531    8.9650 C   0  0  0  0  0  0  0  0  0  0  0  0
   16.8868   -8.6442    7.6582 C   0  0  0  0  0  0  0  0  0  0  0  0
   16.2634   -9.7863    9.6672 N   0  0  0  0  0  0  0  0  0  0  0  0
   16.5266  -10.1880   10.9392 C   0  0  0  0  0  0  0  0  0  0  0  0
   17.7450   -9.8441   11.5410 C   0  0  0  0  0  0  0  0  0  0  0  0
   18.6497   -9.1086   10.8371 N   0  0  0  0  0  0  0  0  0  0  0  0
   17.6159  -11.7793   14.7670 O   0  0  0  0  0  0  0  0  0  0  0  0
   16.6514  -11.1160   15.5303 C   0  0  0  0  0  0  0  0  0  0  0  0
   17.3046  -10.4454   16.7284 C   0  0  0  0  0  0  0  0  0  0  0  0
   17.4814   -8.9498   16.4958 C   0  0  0  0  0  0  0  0  0  0  0  0
   16.1634   -8.2044   16.6407 C   0  0  0  0  0  0  0  0  0  0  0  0
   15.6859   -8.2428   18.0861 C   0  0  0  0  0  0  0  0  0  0  0  0
   14.3693   -7.5546   18.2747 C   0  0  0  0  0  0  0  0  0  0  0  0
   13.6639   -7.2125   17.2863 O   0  0  0  0  0  0  0  0  0  0  0  0
   13.9146   -7.2870   19.5988 N   0  0  0  0  0  0  0  0  0  0  0  0
   12.7309   -6.6676   19.8151 O   0  0  0  0  0  0  0  0  0  0  0  0
   14.4692   -7.5562   20.3664 H   0  0  0  0  0  0  0  0  0  0  0  0
   12.3094   -6.4694   18.9642 H   0  0  0  0  0  0  0  0  0  0  0  0
  5  6  2  0  0  0
  6  7  1  0  0  0
  7  8  2  0  0  0
  8  9  1  0  0  0
  9 10  2  0  0  0
  9 11  1  0  0  0
 11 12  2  0  0  0
 12 13  1  0  0  0
 13 14  2  0  0  0
 13  1  1  0  0  0
  1  2  2  0  0  0
  1  3  1  0  0  0
  3 15  1  0  0  0
 15 16  1  0  0  0
 16 17  1  0  0  0
 17 18  1  0  0  0
 18 19  1  0  0  0
 19 20  1  0  0  0
 20 21  1  0  0  0
 21 22  2  0  0  0
 21 23  1  0  0  0
 23 24  1  0  0  0
 10  5  1  0  0  0
 14  8  1  0  0  0
  3  4  1  0  0  0
 23 25  1  0  0  0
 24 26  1  0  0  0
M  END
>  <minimizedAffinity>
-6.07342

>  <minimizedRMSD>
1.96261

$$$$
CHEMBL5026889 MCULE-3119328566 MolPort-023-258-827 PubChem-70740135 ZINC000077406133 ZINC77406133


 30 33  0  0  0  0  0  0  0  0999 V2000
   17.9922   -9.9798   12.4438 C   0  0  0  0  0  0  0  0  0  0  0  0
   19.1802   -9.7455   12.0894 O   0  0  0  0  0  0  0  0  0  0  0  0
   17.7303  -10.3872   13.7990 N   0  0  0  0  0  0  0  0  0  0  0  0
   18.8449  -10.7358   14.6878 C   0  0  0  0  0  0  0  0  0  0  0  0
   18.9966   -9.6969   15.8117 C   0  0  0  0  0  0  0  0  0  0  0  0
   17.6548   -9.2523   16.3096 C   0  0  0  0  0  0  0  0  0  0  0  0
   16.4745   -9.4884   15.6511 C   0  0  0  0  0  0  0  0  0  0  0  0
   16.3895  -10.2774   14.3829 C   0  0  0  0  0  0  0  0  0  0  0  0
   15.4533   -8.9350   16.3220 N   0  0  0  0  0  0  0  0  0  0  0  0
   14.0517   -8.9837   15.9311 C   0  0  0  0  0  0  0  0  0  0  0  0
   15.9946   -8.3251   17.4046 C   0  0  0  0  0  0  0  0  0  0  0  0
   17.3784   -8.4931   17.4319 C   0  0  0  0  0  0  0  0  0  0  0  0
   18.5483   -8.3381    8.4458 C   0  0  0  0  0  0  0  0  0  0  0  0
   18.3715   -8.8586    9.7333 C   0  0  0  0  0  0  0  0  0  0  0  0
   17.1168   -9.3330   10.1469 C   0  0  0  0  0  0  0  0  0  0  0  0
   16.9006   -9.8493   11.4449 C   0  0  0  0  0  0  0  0  0  0  0  0
   15.6154  -10.2875   11.7881 C   0  0  0  0  0  0  0  0  0  0  0  0
   14.5734  -10.2056   10.8648 C   0  0  0  0  0  0  0  0  0  0  0  0
   13.2132  -10.6704   11.2409 C   0  0  0  0  0  0  0  0  0  0  0  0
   14.7991   -9.7051    9.6229 N   0  0  0  0  0  0  0  0  0  0  0  0
   16.0286   -9.2706    9.2426 C   0  0  0  0  0  0  0  0  0  0  0  0
   16.2134   -8.7578    7.9557 C   0  0  0  0  0  0  0  0  0  0  0  0
   17.4701   -8.2961    7.5577 C   0  0  0  0  0  0  0  0  0  0  0  0
   20.8907   -7.9434    9.1377 C   0  0  0  0  0  0  0  0  0  0  0  0
   19.8870   -7.8546    8.0026 C   0  0  0  0  0  0  0  0  0  0  0  0
   15.2399   -7.5729   18.4254 C   0  0  0  0  0  0  0  0  0  0  0  0
   15.7190   -7.5134   19.7652 N   0  0  0  0  0  0  0  0  0  0  0  0
   14.1708   -6.9786   18.1282 O   0  0  0  0  0  0  0  0  0  0  0  0
   16.5539   -7.9739   20.0104 H   0  0  0  0  0  0  0  0  0  0  0  0
   15.2153   -7.0117   20.4463 H   0  0  0  0  0  0  0  0  0  0  0  0
 24 25  1  0  0  0
 25 13  1  0  0  0
 13 14  2  0  0  0
 14 15  1  0  0  0
 15 16  2  0  0  0
 16 17  1  0  0  0
 16  1  1  0  0  0
 17 18  2  0  0  0
 18 19  1  0  0  0
 18 20  1  0  0  0
 20 21  2  0  0  0
 21 22  1  0  0  0
 21 15  1  0  0  0
 22 23  2  0  0  0
 23 13  1  0  0  0
  1  2  2  0  0  0
  1  3  1  0  0  0
  3  4  1  0  0  0
  4  5  1  0  0  0
  5  6  1  0  0  0
  6  7  2  0  0  0
  7  8  1  0  0  0
  7  9  1  0  0  0
  8  3  1  0  0  0
  9 10  1  0  0  0
  9 11  1  0  0  0
 11 12  2  0  0  0
 11 26  1  0  0  0
 12  6  1  0  0  0
 26 27  1  0  0  0
 26 28  2  0  0  0
 27 29  1  0  0  0
 27 30  1  0  0  0
M  END
>  <minimizedAffinity>
-1.51808

>  <minimizedRMSD>
1.96304

$$$$
CHEMBL1159877 PubChem-129848414 PubChem-3081030 ZINC000003799132


 26 27  0  0  0  0  0  0  0  0999 V2000
   17.9786   -9.3665   10.9396 C   0  0  0  0  0  0  0  0  0  0  0  0
   16.9131   -9.8701   10.3203 O   0  0  0  0  0  0  0  0  0  0  0  0
   16.7087   -9.7821    9.0116 C   0  0  0  0  0  0  0  0  0  0  0  0
   15.6696  -10.2951    8.5155 O   0  0  0  0  0  0  0  0  0  0  0  0
   17.6389   -9.1284    8.1972 C   0  0  0  0  0  0  0  0  0  0  0  0
   17.4508   -9.0239    6.8109 C   0  0  0  0  0  0  0  0  0  0  0  0
   18.3905   -8.3567    6.0221 C   0  0  0  0  0  0  0  0  0  0  0  0
   18.1949   -8.2545    4.6172 N   0  0  0  0  0  0  0  0  0  0  0  0
   19.5207   -7.7880    6.6127 C   0  0  0  0  0  0  0  0  0  0  0  0
   19.7141   -7.8875    7.9928 C   0  0  0  0  0  0  0  0  0  0  0  0
   18.7801   -8.5586    8.7982 C   0  0  0  0  0  0  0  0  0  0  0  0
   18.9589   -8.6652   10.1887 C   0  0  0  0  0  0  0  0  0  0  0  0
   20.3406   -7.8565   10.9388 Cl  0  0  0  0  0  0  0  0  0  0  0  0
   17.3980   -8.6555    4.2007 H   0  0  0  0  0  0  0  0  0  0  0  0
   18.8563   -7.7827    4.0612 H   0  0  0  0  0  0  0  0  0  0  0  0
   18.0458   -9.5632   12.3278 O   0  0  0  0  0  0  0  0  0  0  0  0
   18.4755  -10.7533   12.9719 C   0  0  0  0  0  0  0  0  0  0  0  0
   17.5282  -11.0809   14.1109 C   0  0  0  0  0  0  0  0  0  0  0  0
   18.2564  -11.0200   15.4435 C   0  0  0  0  0  0  0  0  0  0  0  0
   18.9260   -9.3543   15.7518 S   0  0  0  0  0  0  0  0  0  0  0  0
   16.8093   -7.7950   15.2349 N   0  0  0  0  0  0  0  0  0  0  0  0
   17.3114   -8.6490   16.0623 C   0  0  0  0  0  0  0  0  0  0  0  0
   16.6076   -8.9824   17.2526 N   0  0  0  0  0  0  0  0  0  0  0  0
   15.9208   -7.4073   15.4064 H   0  0  0  0  0  0  0  0  0  0  0  0
   15.7191   -8.5946   17.4241 H   0  0  0  0  0  0  0  0  0  0  0  0
   17.0090   -9.6009   17.9049 H   0  0  0  0  0  0  0  0  0  0  0  0
 21 22  2  0  0  0
 22 23  1  0  0  0
 22 20  1  0  0  0
 20 19  1  0  0  0
 19 18  1  0  0  0
 18 17  1  0  0  0
 17 16  1  0  0  0
 16  1  1  0  0  0
  1  2  1  0  0  0
  2  3  1  0  0  0
  3  4  2  0  0  0
  3  5  1  0  0  0
  5  6  2  0  0  0
  6  7  1  0  0  0
  7  8  1  0  0  0
  7  9  2  0  0  0
  9 10  1  0  0  0
 10 11  2  0  0  0
 11 12  1  0  0  0
 11  5  1  0  0  0
 12 13  1  0  0  0
 12  1  2  0  0  0
 21 24  1  0  0  0
 23 25  1  0  0  0
 23 26  1  0  0  0
  8 14  1  0  0  0
  8 15  1  0  0  0
M  END
>  <minimizedAffinity>
-5.76115

>  <minimizedRMSD>
1.96516

$$$$
CHEMBL1561959 ChemDiv-C548-3500 MCULE-9631128936 MolPort-007-642-499 PubChem-9551310 ZINC000008671706


 35 39  0  0  0  0  0  0  0  0999 V2000
   15.7815   -8.2872   16.4885 C   0  0  0  0  0  0  0  0  0  0  0  0
   15.2519   -9.6989   16.1866 C   0  0  0  0  0  0  0  0  0  0  0  0
   16.2497  -10.7839   16.5921 C   0  0  0  0  0  0  0  0  0  0  0  0
   17.5989  -10.6120   15.8739 C   0  0  0  0  0  0  0  0  0  0  0  0
   17.9490   -9.1532   15.5398 C   0  0  0  0  0  0  0  0  0  0  0  0
   17.3118   -8.1909   16.5352 C   0  0  0  0  0  0  0  0  0  0  0  0
   14.2597   -6.9083   17.6846 O   0  0  0  0  0  0  0  0  0  0  0  0
   15.1912   -7.7529   17.7500 C   0  0  0  0  0  0  0  0  0  0  0  0
   15.6918   -8.1856   19.0192 N   0  0  0  0  0  0  0  0  0  0  0  0
   16.4438   -8.8208   19.0360 H   0  0  0  0  0  0  0  0  0  0  0  0
   15.1392   -7.7288   20.2874 C   0  0  0  0  0  0  0  0  0  0  0  0
   13.7518   -7.2162   20.0994 C   0  0  0  0  0  0  0  0  0  0  0  0
   12.7379   -8.0748   19.6153 C   0  0  0  0  0  0  0  0  0  0  0  0
   11.4284   -7.5980   19.4264 C   0  0  0  0  0  0  0  0  0  0  0  0
   11.1806   -6.2627   19.7351 C   0  0  0  0  0  0  0  0  0  0  0  0
    9.9938   -5.5646   19.6370 O   0  0  0  0  0  0  0  0  0  0  0  0
   10.2335   -4.2168   20.0692 C   0  0  0  0  0  0  0  0  0  0  0  0
   11.6241   -4.1802   20.4198 O   0  0  0  0  0  0  0  0  0  0  0  0
   12.1527   -5.4370   20.2010 C   0  0  0  0  0  0  0  0  0  0  0  0
   13.4604   -5.8720   20.3984 C   0  0  0  0  0  0  0  0  0  0  0  0
   17.6893  -11.4871   14.6281 C   0  0  0  0  0  0  0  0  0  0  0  0
   17.4080  -10.7125   13.4266 N   0  0  0  0  0  0  0  0  0  0  0  0
   17.0136   -9.8071   13.6818 H   0  0  0  0  0  0  0  0  0  0  0  0
   18.9014  -10.4871   12.5811 S   0  0  0  0  0  0  0  0  0  0  0  0
   19.5389  -11.8161   12.2835 O   0  0  0  0  0  0  0  0  0  0  0  0
   19.8366   -9.6706   13.4304 O   0  0  0  0  0  0  0  0  0  0  0  0
   18.5810   -9.6408   11.0720 C   0  0  0  0  0  0  0  0  0  0  0  0
   19.5478   -8.7757   10.5396 C   0  0  0  0  0  0  0  0  0  0  0  0
   19.3067   -8.0728    9.3503 C   0  0  0  0  0  0  0  0  0  0  0  0
   18.0916   -8.2183    8.6707 C   0  0  0  0  0  0  0  0  0  0  0  0
   17.1202   -9.0718    9.1909 C   0  0  0  0  0  0  0  0  0  0  0  0
   15.9191   -9.2621    8.5921 N   0  0  0  0  0  0  0  0  0  0  0  0
   15.2351  -10.3345    9.6500 S   0  0  0  0  0  0  0  0  0  0  0  0
   16.3585  -10.5940   10.8346 N   0  0  0  0  0  0  0  0  0  0  0  0
   17.3606   -9.7884   10.3979 C   0  0  0  0  0  0  0  0  0  0  0  0
  7  8  2  0  0  0
  8  9  1  0  0  0
  9 11  1  0  0  0
 11 12  1  0  0  0
 12 13  2  0  0  0
 13 14  1  0  0  0
 14 15  2  0  0  0
 15 16  1  0  0  0
 16 17  1  0  0  0
 17 18  1  0  0  0
 18 19  1  0  0  0
 19 20  2  0  0  0
  8  1  1  0  0  0
  1  2  1  0  0  0
  2  3  1  0  0  0
  3  4  1  0  0  0
  4 21  1  0  0  0
 21 22  1  0  0  0
 22 24  1  0  0  0
 24 25  2  0  0  0
 24 26  2  0  0  0
 24 27  1  0  0  0
 27 28  2  0  0  0
 28 29  1  0  0  0
 29 30  2  0  0  0
 30 31  1  0  0  0
 31 32  2  0  0  0
 32 33  1  0  0  0
 33 34  1  0  0  0
 34 35  2  0  0  0
  4  5  1  0  0  0
  5  6  1  0  0  0
 20 12  1  0  0  0
  6  1  1  0  0  0
 19 15  1  0  0  0
 35 27  1  0  0  0
 35 31  1  0  0  0
  9 10  1  0  0  0
 22 23  1  0  0  0
M  END
>  <minimizedAffinity>
-3.60456

>  <minimizedRMSD>
1.96825

$$$$
CHEMBL270754 PubChem-11749561 PubChem-143083786


 30 33  0  0  0  0  0  0  0  0999 V2000
   15.9059   -9.4058   10.1678 O   0  0  0  0  0  0  0  0  0  0  0  0
   18.3556   -7.0108    7.5725 C   0  0  0  0  0  0  0  0  0  0  0  0
   19.2057   -7.6597    6.6416 C   0  0  0  0  0  0  0  0  0  0  0  0
   19.2090   -9.0633    6.5767 C   0  0  0  0  0  0  0  0  0  0  0  0
   18.3969   -9.8215    7.4192 C   0  0  0  0  0  0  0  0  0  0  0  0
   17.5663   -9.1800    8.3614 C   0  0  0  0  0  0  0  0  0  0  0  0
   17.5468   -7.7820    8.4140 C   0  0  0  0  0  0  0  0  0  0  0  0
   16.7543   -9.9673    9.2033 C   0  0  0  0  0  0  0  0  0  0  0  0
   16.7645  -11.3563    9.0551 C   0  0  0  0  0  0  0  0  0  0  0  0
   17.5998  -11.9480    8.1061 C   0  0  0  0  0  0  0  0  0  0  0  0
   18.3951  -11.1769    7.3185 N   0  0  0  0  0  0  0  0  0  0  0  0
   20.0317   -6.9160    5.7909 O   0  0  0  0  0  0  0  0  0  0  0  0
   21.1861   -7.4581    5.1630 C   0  0  0  0  0  0  0  0  0  0  0  0
   18.2695   -5.6173    7.7110 O   0  0  0  0  0  0  0  0  0  0  0  0
   18.7002   -4.6761    6.7384 C   0  0  0  0  0  0  0  0  0  0  0  0
   16.2048   -9.3225   11.5342 C   0  0  0  0  0  0  0  0  0  0  0  0
   17.3533   -9.9184   12.0757 C   0  0  0  0  0  0  0  0  0  0  0  0
   17.6220   -9.8276   13.4431 C   0  0  0  0  0  0  0  0  0  0  0  0
   16.7306   -9.1374   14.3048 C   0  0  0  0  0  0  0  0  0  0  0  0
   15.5795   -8.5573   13.7481 C   0  0  0  0  0  0  0  0  0  0  0  0
   15.3187   -8.6509   12.3791 C   0  0  0  0  0  0  0  0  0  0  0  0
   17.0228   -9.0552   15.6935 C   0  0  0  0  0  0  0  0  0  0  0  0
   18.1941   -9.6651   16.1706 C   0  0  0  0  0  0  0  0  0  0  0  0
   19.0619  -10.3410   15.3127 C   0  0  0  0  0  0  0  0  0  0  0  0
   18.7761  -10.4220   13.9519 C   0  0  0  0  0  0  0  0  0  0  0  0
   16.1574   -8.3565   16.6817 C   0  0  0  0  0  0  0  0  0  0  0  0
   15.2701   -7.5422   16.3075 O   0  0  0  0  0  0  0  0  0  0  0  0
   16.3321   -8.6098   18.0792 N   0  0  0  0  0  0  0  0  0  0  0  0
   15.5177   -7.9578   19.0908 C   0  0  0  0  0  0  0  0  0  0  0  0
   17.0267   -9.2465   18.3646 H   0  0  0  0  0  0  0  0  0  0  0  0
  2  3  2  0  0  0
  3  4  1  0  0  0
  4  5  2  0  0  0
  5  6  1  0  0  0
  6  7  2  0  0  0
  6  8  1  0  0  0
  8  9  2  0  0  0
  9 10  1  0  0  0
 10 11  2  0  0  0
  8  1  1  0  0  0
  1 16  1  0  0  0
 16 17  2  0  0  0
 17 18  1  0  0  0
 18 19  2  0  0  0
 19 20  1  0  0  0
 20 21  2  0  0  0
 19 22  1  0  0  0
 22 23  2  0  0  0
 23 24  1  0  0  0
 24 25  2  0  0  0
 22 26  1  0  0  0
 26 27  2  0  0  0
 26 28  1  0  0  0
 28 29  1  0  0  0
  3 12  1  0  0  0
 12 13  1  0  0  0
  2 14  1  0  0  0
 14 15  1  0  0  0
  7  2  1  0  0  0
 21 16  1  0  0  0
 11  5  1  0  0  0
 25 18  1  0  0  0
 28 30  1  0  0  0
M  END
>  <minimizedAffinity>
3.70699

>  <minimizedRMSD>
1.97373

$$$$
CHEMBL3593303 PubChem-122181808


 35 38  0  0  0  0  0  0  0  0999 V2000
   15.4662   -8.0694   17.0745 C   0  0  0  0  0  0  0  0  0  0  0  0
   15.6065   -7.6892   15.7316 C   0  0  0  0  0  0  0  0  0  0  0  0
   16.6856   -8.1537   14.9749 C   0  0  0  0  0  0  0  0  0  0  0  0
   17.6333   -9.0040   15.5524 C   0  0  0  0  0  0  0  0  0  0  0  0
   17.5014   -9.3843   16.8923 C   0  0  0  0  0  0  0  0  0  0  0  0
   16.4224   -8.9192   17.6493 C   0  0  0  0  0  0  0  0  0  0  0  0
   14.5706   -6.9449   19.1389 N   0  0  0  0  0  0  0  0  0  0  0  0
   14.3291   -7.5799   17.8738 C   0  0  0  0  0  0  0  0  0  0  0  0
   13.1531   -7.7245   17.4417 O   0  0  0  0  0  0  0  0  0  0  0  0
   15.5108   -6.8749   19.4225 H   0  0  0  0  0  0  0  0  0  0  0  0
   14.4841   -7.8162   21.8335 N   0  0  0  0  0  0  0  0  0  0  0  0
   13.5563   -6.8396   21.3703 C   0  0  0  0  0  0  0  0  0  0  0  0
   12.6088   -6.3198   22.2580 C   0  0  0  0  0  0  0  0  0  0  0  0
   11.6894   -5.3619   21.8242 C   0  0  0  0  0  0  0  0  0  0  0  0
   11.7151   -4.9206   20.4996 C   0  0  0  0  0  0  0  0  0  0  0  0
   12.6604   -5.4377   19.6100 C   0  0  0  0  0  0  0  0  0  0  0  0
   13.5889   -6.4008   20.0353 C   0  0  0  0  0  0  0  0  0  0  0  0
   14.4544   -8.1181   22.7700 H   0  0  0  0  0  0  0  0  0  0  0  0
   15.1549   -8.1892   21.2170 H   0  0  0  0  0  0  0  0  0  0  0  0
   18.7841   -9.4979   14.7413 C   0  0  0  0  0  0  0  0  0  0  0  0
   18.8369  -10.9543   14.7666 N   0  0  0  0  0  0  0  0  0  0  0  0
   18.3939  -11.8288   13.7178 C   0  0  0  0  0  0  0  0  0  0  0  0
   18.2610  -13.0532   13.9740 O   0  0  0  0  0  0  0  0  0  0  0  0
   19.2095  -11.3757   15.5746 H   0  0  0  0  0  0  0  0  0  0  0  0
   18.0989  -11.3756   12.3465 C   0  0  0  0  0  0  0  0  0  0  0  0
   17.3656  -10.3052   12.0632 C   0  0  0  0  0  0  0  0  0  0  0  0
   17.0890   -9.8980   10.6814 C   0  0  0  0  0  0  0  0  0  0  0  0
   15.9745  -10.2128    9.9084 C   0  0  0  0  0  0  0  0  0  0  0  0
   16.1058   -9.6257    8.6878 N   0  0  0  0  0  0  0  0  0  0  0  0
   17.2851   -8.9772    8.7586 C   0  0  0  0  0  0  0  0  0  0  0  0
   17.8731   -8.2126    7.7582 C   0  0  0  0  0  0  0  0  0  0  0  0
   19.1096   -7.6182    8.0562 C   0  0  0  0  0  0  0  0  0  0  0  0
   19.6968   -7.8091    9.3225 C   0  0  0  0  0  0  0  0  0  0  0  0
   19.0594   -8.5739   10.2542 N   0  0  0  0  0  0  0  0  0  0  0  0
   17.8892   -9.1259    9.9403 N   0  0  0  0  0  0  0  0  0  0  0  0
 11 12  1  0  0  0
 12 13  2  0  0  0
 13 14  1  0  0  0
 14 15  2  0  0  0
 15 16  1  0  0  0
 16 17  2  0  0  0
 17  7  1  0  0  0
  7  8  1  0  0  0
  8  9  2  0  0  0
  8  1  1  0  0  0
  1  2  2  0  0  0
  2  3  1  0  0  0
  3  4  2  0  0  0
  4 20  1  0  0  0
 20 21  1  0  0  0
 21 22  1  0  0  0
 22 23  2  0  0  0
 22 25  1  0  0  0
 25 26  2  0  0  0
 26 27  1  0  0  0
 27 28  2  0  0  0
 28 29  1  0  0  0
 29 30  2  0  0  0
 30 31  1  0  0  0
 31 32  2  0  0  0
 32 33  1  0  0  0
 33 34  2  0  0  0
 34 35  1  0  0  0
  4  5  1  0  0  0
  5  6  2  0  0  0
 17 12  1  0  0  0
  6  1  1  0  0  0
 35 27  1  0  0  0
 35 30  1  0  0  0
 11 18  1  0  0  0
 11 19  1  0  0  0
  7 10  1  0  0  0
 21 24  1  0  0  0
M  END
>  <minimizedAffinity>
-8.47500

>  <minimizedRMSD>
1.97436

$$$$
CHEMBL2332619 PubChem-71655329


 28 30  0  0  0  0  0  0  0  0999 V2000
   17.1333   -9.7933   13.9782 C   0  0  0  0  0  0  0  0  0  0  0  0
   18.0028  -10.9962   14.3027 C   0  0  0  0  0  0  0  0  0  0  0  0
   15.7560   -9.1467   16.0203 N   0  0  0  0  0  0  0  0  0  0  0  0
   16.8095   -8.3176   16.5809 C   0  0  0  0  0  0  0  0  0  0  0  0
   16.1432   -7.4902   17.6652 C   0  0  0  0  0  0  0  0  0  0  0  0
   14.7808   -8.1231   17.9187 C   0  0  0  0  0  0  0  0  0  0  0  0
   14.4994   -9.0263   16.7329 C   0  0  0  0  0  0  0  0  0  0  0  0
   15.8632   -9.8418   14.7689 C   0  0  0  0  0  0  0  0  0  0  0  0
   14.8795  -10.4962   14.3266 O   0  0  0  0  0  0  0  0  0  0  0  0
   17.9600   -9.2206   17.2207 B   0  0  0  0  0  0  0  0  0  0  0  0
   17.7182  -10.6329   17.5044 O   0  0  0  0  0  0  0  0  0  0  0  0
   19.2717   -8.6397   17.4892 O   0  0  0  0  0  0  0  0  0  0  0  0
   16.8039  -10.8576   17.2712 H   0  0  0  0  0  0  0  0  0  0  0  0
   19.2650   -7.7004   17.2473 H   0  0  0  0  0  0  0  0  0  0  0  0
   16.8320   -9.7547   12.5537 N   0  0  0  0  0  0  0  0  0  0  0  0
   17.8419   -9.6034   11.5494 C   0  0  0  0  0  0  0  0  0  0  0  0
   19.0457   -9.4640   11.8983 O   0  0  0  0  0  0  0  0  0  0  0  0
   15.8932   -9.8363   12.2687 H   0  0  0  0  0  0  0  0  0  0  0  0
   17.4557   -9.6058   10.1135 C   0  0  0  0  0  0  0  0  0  0  0  0
   16.3552  -10.3869    9.7346 C   0  0  0  0  0  0  0  0  0  0  0  0
   15.9425  -10.4320    8.4041 C   0  0  0  0  0  0  0  0  0  0  0  0
   16.6046   -9.7177    7.4593 N   0  0  0  0  0  0  0  0  0  0  0  0
   17.6768   -8.9451    7.7717 C   0  0  0  0  0  0  0  0  0  0  0  0
   18.1349   -8.8665    9.1116 C   0  0  0  0  0  0  0  0  0  0  0  0
   19.2473   -8.0575    9.3959 C   0  0  0  0  0  0  0  0  0  0  0  0
   19.8901   -7.3441    8.3811 C   0  0  0  0  0  0  0  0  0  0  0  0
   19.4297   -7.4294    7.0659 C   0  0  0  0  0  0  0  0  0  0  0  0
   18.3255   -8.2282    6.7620 C   0  0  0  0  0  0  0  0  0  0  0  0
  3  4  1  0  0  0
  4  5  1  0  0  0
  5  6  1  0  0  0
  6  7  1  0  0  0
  4 10  1  0  0  0
 10 11  1  0  0  0
 10 12  1  0  0  0
  3  8  1  0  0  0
  8  9  2  0  0  0
  8  1  1  0  0  0
  1 15  1  0  0  0
 15 16  1  0  0  0
 16 17  2  0  0  0
 16 19  1  0  0  0
 19 20  2  0  0  0
 20 21  1  0  0  0
 21 22  2  0  0  0
 22 23  1  0  0  0
 23 24  2  0  0  0
 24 25  1  0  0  0
 25 26  2  0  0  0
 26 27  1  0  0  0
 27 28  2  0  0  0
  1  2  1  0  0  0
  7  3  1  0  0  0
 24 19  1  0  0  0
 28 23  1  0  0  0
 11 13  1  0  0  0
 12 14  1  0  0  0
 15 18  1  0  0  0
M  END
>  <minimizedAffinity>
-3.58558

>  <minimizedRMSD>
1.97604

$$$$
CHEMBL242298


 39 42  0  0  0  0  0  0  0  0999 V2000
   17.3799  -10.8547   15.0247 C   0  0  0  0  0  0  0  0  0  0  0  0
   17.2284  -10.9976   16.5215 C   0  0  0  0  0  0  0  0  0  0  0  0
   16.0646  -11.1709   17.1631 C   0  0  0  0  0  0  0  0  0  0  0  0
   14.7423  -11.1659   16.4604 C   0  0  0  0  0  0  0  0  0  0  0  0
   14.1395   -9.7599   16.2731 C   0  0  0  0  0  0  0  0  0  0  0  0
   15.1371   -8.6636   16.1990 N   0  0  0  0  0  0  0  0  0  0  0  0
   16.1294   -8.6597   15.1555 C   0  0  0  0  0  0  0  0  0  0  0  0
   16.8288   -7.6295   14.9563 O   0  0  0  0  0  0  0  0  0  0  0  0
   16.3892   -9.9024   14.3494 C   0  0  0  0  0  0  0  0  0  0  0  0
   15.1038   -7.5314   17.1441 C   0  0  0  0  0  0  0  0  0  0  0  0
   13.8028   -7.5118   17.9403 C   0  0  0  0  0  0  0  0  0  0  0  0
   13.5302   -8.7986   18.4181 O   0  0  0  0  0  0  0  0  0  0  0  0
   13.0363   -9.5003   17.3119 C   0  0  0  0  0  0  0  0  0  0  0  0
   16.8645   -9.5594   13.0144 N   0  0  0  0  0  0  0  0  0  0  0  0
   16.1167   -9.8455   11.8299 C   0  0  0  0  0  0  0  0  0  0  0  0
   14.9599  -10.3399   11.9283 O   0  0  0  0  0  0  0  0  0  0  0  0
   17.7369   -9.1119   12.9249 H   0  0  0  0  0  0  0  0  0  0  0  0
   16.6390   -9.4697   10.4970 C   0  0  0  0  0  0  0  0  0  0  0  0
   15.8103   -9.6110    9.4234 N   0  0  0  0  0  0  0  0  0  0  0  0
   16.1740   -9.2516    8.1661 C   0  0  0  0  0  0  0  0  0  0  0  0
   17.4407   -8.7210    7.9276 C   0  0  0  0  0  0  0  0  0  0  0  0
   18.3299   -8.5752    8.9904 C   0  0  0  0  0  0  0  0  0  0  0  0
   17.9433   -8.9589   10.2960 C   0  0  0  0  0  0  0  0  0  0  0  0
   18.8815   -8.8594   11.3370 C   0  0  0  0  0  0  0  0  0  0  0  0
   20.1687   -8.3728   11.0941 C   0  0  0  0  0  0  0  0  0  0  0  0
   20.5341   -7.9774    9.8045 C   0  0  0  0  0  0  0  0  0  0  0  0
   19.6175   -8.0801    8.7548 C   0  0  0  0  0  0  0  0  0  0  0  0
   16.2833   -7.5717   18.0669 C   0  0  0  0  0  0  0  0  0  0  0  0
   17.3905   -7.9946   17.6381 O   0  0  0  0  0  0  0  0  0  0  0  0
   16.1410   -7.1491   19.4292 N   0  0  0  0  0  0  0  0  0  0  0  0
   15.2553   -6.8226   19.7087 H   0  0  0  0  0  0  0  0  0  0  0  0
   17.1942   -7.1613   20.4362 C   0  0  0  0  0  0  0  0  0  0  0  0
   16.6584   -6.7888   21.7860 C   0  0  0  0  0  0  0  0  0  0  0  0
   15.7492   -5.9892   21.9124 O   0  0  0  0  0  0  0  0  0  0  0  0
   18.3769   -6.2977   20.0087 C   0  0  0  0  0  0  0  0  0  0  0  0
   19.2925   -5.9235   21.1420 C   0  0  0  0  0  0  0  0  0  0  0  0
   20.1361   -6.7626   21.5527 O   0  0  0  0  0  0  0  0  0  0  0  0
   19.2228   -4.6771   21.7487 O   0  0  0  0  0  0  0  0  0  0  0  0
   18.5983   -4.0452   21.4506 H   0  0  0  0  0  0  0  0  0  0  0  0
  1  2  1  0  0  0
  2  3  2  0  0  0
  3  4  1  0  0  0
  5  4  1  0  0  0
  5  6  1  0  0  0
  6  7  1  0  0  0
  7  8  2  0  0  0
  7  9  1  0  0  0
  9 14  1  0  0  0
 14 15  1  0  0  0
 15 16  2  0  0  0
 15 18  1  0  0  0
 18 19  2  0  0  0
 19 20  1  0  0  0
 20 21  2  0  0  0
 21 22  1  0  0  0
 22 23  2  0  0  0
 23 24  1  0  0  0
 24 25  2  0  0  0
 25 26  1  0  0  0
 26 27  2  0  0  0
  6 10  1  0  0  0
 10 11  1  0  0  0
 11 12  1  0  0  0
 12 13  1  0  0  0
 10 28  1  0  0  0
 28 29  2  0  0  0
 28 30  1  0  0  0
 30 32  1  0  0  0
 32 33  1  0  0  0
 33 34  2  0  0  0
 32 35  1  0  0  0
 35 36  1  0  0  0
 36 37  2  0  0  0
 36 38  1  0  0  0
  9  1  1  0  0  0
 23 18  1  0  0  0
 13  5  1  0  0  0
 27 22  1  0  0  0
 14 17  1  0  0  0
 30 31  1  0  0  0
 38 39  1  0  0  0
M  END
>  <minimizedAffinity>
7.40763

>  <minimizedRMSD>
1.97759

$$$$
CHEMBL517593 PubChem-25231818 PubChem-25233423 PubChem-66856250


 34 36  0  0  0  0  0  0  0  0999 V2000
   17.4276   -9.0857   11.2998 C   0  0  0  0  0  0  0  0  0  0  0  0
   18.4110   -9.9610   11.7937 O   0  0  0  0  0  0  0  0  0  0  0  0
   17.9306  -10.4130   13.0325 C   0  0  0  0  0  0  0  0  0  0  0  0
   16.4246  -10.4536   12.9673 C   0  0  0  0  0  0  0  0  0  0  0  0
   16.0841   -9.4322   11.9096 C   0  0  0  0  0  0  0  0  0  0  0  0
   15.5198   -8.2782   12.4600 O   0  0  0  0  0  0  0  0  0  0  0  0
   15.8783  -10.1318   14.2129 O   0  0  0  0  0  0  0  0  0  0  0  0
   16.1344   -7.8932   13.1041 H   0  0  0  0  0  0  0  0  0  0  0  0
   16.1999   -9.2601   14.4916 H   0  0  0  0  0  0  0  0  0  0  0  0
   19.2712   -7.8059    9.2436 N   0  0  0  0  0  0  0  0  0  0  0  0
   19.9762   -7.2979    8.1873 C   0  0  0  0  0  0  0  0  0  0  0  0
   19.5900   -7.5649    6.8976 N   0  0  0  0  0  0  0  0  0  0  0  0
   18.4973   -8.3402    6.6314 C   0  0  0  0  0  0  0  0  0  0  0  0
   17.7884   -8.8520    7.7087 C   0  0  0  0  0  0  0  0  0  0  0  0
   18.1897   -8.5758    8.9712 C   0  0  0  0  0  0  0  0  0  0  0  0
   17.3647   -9.1635    9.8433 N   0  0  0  0  0  0  0  0  0  0  0  0
   16.4547   -9.7925    9.0494 C   0  0  0  0  0  0  0  0  0  0  0  0
   16.6853   -9.6246    7.7176 N   0  0  0  0  0  0  0  0  0  0  0  0
   15.3036  -10.5853    9.5674 C   0  0  0  0  0  0  0  0  0  0  0  0
   18.1051   -8.6069    5.2896 N   0  0  0  0  0  0  0  0  0  0  0  0
   18.6240   -8.2326    4.5414 H   0  0  0  0  0  0  0  0  0  0  0  0
   17.3148   -9.1658    5.1096 H   0  0  0  0  0  0  0  0  0  0  0  0
   18.4681  -11.8046   13.3233 C   0  0  0  0  0  0  0  0  0  0  0  0
   18.9977  -11.8704   14.6807 N   0  0  0  0  0  0  0  0  0  0  0  0
   18.0566  -12.6261   15.4940 C   0  0  0  0  0  0  0  0  0  0  0  0
   19.1558  -10.5217   15.2428 C   0  0  0  0  0  0  0  0  0  0  0  0
   18.3069  -10.2699   16.4984 C   0  0  0  0  0  0  0  0  0  0  0  0
   17.4409   -9.0526   16.3818 C   0  0  0  0  0  0  0  0  0  0  0  0
   17.6351   -8.2000   15.4723 O   0  0  0  0  0  0  0  0  0  0  0  0
   16.3896   -8.8617   17.3259 N   0  0  0  0  0  0  0  0  0  0  0  0
   15.5533   -7.7403   17.2589 N   0  0  0  0  0  0  0  0  0  0  0  0
   16.2493   -9.5288   18.0361 H   0  0  0  0  0  0  0  0  0  0  0  0
   15.8322   -7.1547   16.4717 H   0  0  0  0  0  0  0  0  0  0  0  0
   15.6309   -7.2061   18.1243 H   0  0  0  0  0  0  0  0  0  0  0  0
 10 11  2  0  0  0
 11 12  1  0  0  0
 12 13  2  0  0  0
 13 14  1  0  0  0
 14 15  2  0  0  0
 15 16  1  0  0  0
 16 17  1  0  0  0
 17 18  2  0  0  0
 17 19  1  0  0  0
  1 16  1  0  0  0
  1  2  1  0  0  0
  2  3  1  0  0  0
  3  4  1  0  0  0
  4  5  1  0  0  0
  5  6  1  0  0  0
  4  7  1  0  0  0
  3 23  1  0  0  0
 23 24  1  0  0  0
 24 25  1  0  0  0
 24 26  1  0  0  0
 26 27  1  0  0  0
 27 28  1  0  0  0
 28 29  2  0  0  0
 28 30  1  0  0  0
 30 31  1  0  0  0
 13 20  1  0  0  0
 15 10  1  0  0  0
  5  1  1  0  0  0
 18 14  1  0  0  0
  6  8  1  0  0  0
  7  9  1  0  0  0
 30 32  1  0  0  0
 31 33  1  0  0  0
 31 34  1  0  0  0
 20 21  1  0  0  0
 20 22  1  0  0  0
M  END
>  <minimizedAffinity>
-6.44900

>  <minimizedRMSD>
1.97767

$$$$
CHEMBL438709 PubChem-44454029


 33 35  0  0  0  0  0  0  0  0999 V2000
   18.2480  -10.1093   14.3473 C   0  0  0  0  0  0  0  0  0  0  0  0
   19.0366   -9.3918   13.6790 O   0  0  0  0  0  0  0  0  0  0  0  0
   17.0940  -10.7000   13.7353 N   0  0  0  0  0  0  0  0  0  0  0  0
   16.4996  -11.2292   14.3148 H   0  0  0  0  0  0  0  0  0  0  0  0
   16.7977   -8.7008   16.7633 C   0  0  0  0  0  0  0  0  0  0  0  0
   17.3788   -7.7154   16.2310 O   0  0  0  0  0  0  0  0  0  0  0  0
   17.3199  -10.0249   16.5821 N   0  0  0  0  0  0  0  0  0  0  0  0
   16.7731  -11.1910   17.2470 C   0  0  0  0  0  0  0  0  0  0  0  0
   17.6149  -12.3644   16.7821 C   0  0  0  0  0  0  0  0  0  0  0  0
   18.8324  -11.7757   16.0802 C   0  0  0  0  0  0  0  0  0  0  0  0
   18.5108  -10.3169   15.8048 C   0  0  0  0  0  0  0  0  0  0  0  0
   15.5617   -8.4779   17.5820 C   0  0  0  0  0  0  0  0  0  0  0  0
   14.5705   -7.6299   16.8086 C   0  0  0  0  0  0  0  0  0  0  0  0
   15.3622   -6.9757   21.1521 C   0  0  0  0  0  0  0  0  0  0  0  0
   14.9421   -7.6351   19.8887 C   0  0  0  0  0  0  0  0  0  0  0  0
   13.7513   -8.0229   19.7543 O   0  0  0  0  0  0  0  0  0  0  0  0
   15.8928   -7.8183   18.8379 N   0  0  0  0  0  0  0  0  0  0  0  0
   16.8099   -7.4849   18.9681 H   0  0  0  0  0  0  0  0  0  0  0  0
   16.7223  -10.5851   12.3248 C   0  0  0  0  0  0  0  0  0  0  0  0
   15.8024   -9.3890   12.0383 C   0  0  0  0  0  0  0  0  0  0  0  0
   14.4681   -9.8590   11.4871 C   0  0  0  0  0  0  0  0  0  0  0  0
   15.5435   -8.5938   13.3056 C   0  0  0  0  0  0  0  0  0  0  0  0
   17.9272  -10.7040   11.4290 C   0  0  0  0  0  0  0  0  0  0  0  0
   18.8301  -11.5194   11.7539 O   0  0  0  0  0  0  0  0  0  0  0  0
   18.1014   -9.8973   10.2078 C   0  0  0  0  0  0  0  0  0  0  0  0
   17.5434  -10.2378    9.0144 N   0  0  0  0  0  0  0  0  0  0  0  0
   17.9531   -9.2370    8.2179 C   0  0  0  0  0  0  0  0  0  0  0  0
   17.6824   -9.0574    6.8639 C   0  0  0  0  0  0  0  0  0  0  0  0
   18.2292   -7.9185    6.2421 C   0  0  0  0  0  0  0  0  0  0  0  0
   19.0183   -7.0055    6.9790 C   0  0  0  0  0  0  0  0  0  0  0  0
   19.2709   -7.2194    8.3473 C   0  0  0  0  0  0  0  0  0  0  0  0
   18.7132   -8.3560    8.9250 C   0  0  0  0  0  0  0  0  0  0  0  0
   18.7982   -8.7728   10.1581 O   0  0  0  0  0  0  0  0  0  0  0  0
 14 15  1  0  0  0
 15 16  2  0  0  0
 15 17  1  0  0  0
 12 17  1  0  0  0
 12 13  1  0  0  0
 12  5  1  0  0  0
  5  6  2  0  0  0
  5  7  1  0  0  0
  7  8  1  0  0  0
  8  9  1  0  0  0
  9 10  1  0  0  0
 10 11  1  0  0  0
 11  1  1  0  0  0
 11  7  1  0  0  0
  1  2  2  0  0  0
  1  3  1  0  0  0
 19  3  1  0  0  0
 19 23  1  0  0  0
 19 20  1  0  0  0
 23 24  2  0  0  0
 23 25  1  0  0  0
 25 26  2  0  0  0
 26 27  1  0  0  0
 27 28  2  0  0  0
 28 29  1  0  0  0
 29 30  2  0  0  0
 30 31  1  0  0  0
 31 32  2  0  0  0
 32 33  1  0  0  0
 32 27  1  0  0  0
 33 25  1  0  0  0
 20 21  1  0  0  0
 20 22  1  0  0  0
 17 18  1  0  0  0
  3  4  1  0  0  0
M  END
>  <minimizedAffinity>
-2.84838

>  <minimizedRMSD>
1.98174

$$$$
CHEMBL3716936 PubChem-49855489


 28 31  0  0  0  0  0  0  0  0999 V2000
   15.5238  -10.3116   11.7926 C   0  0  0  0  0  0  0  0  0  0  0  0
   14.4343  -10.1736   10.9041 C   0  0  0  0  0  0  0  0  0  0  0  0
   14.6338   -9.7481    9.6208 N   0  0  0  0  0  0  0  0  0  0  0  0
   15.8956   -9.4614    9.2170 C   0  0  0  0  0  0  0  0  0  0  0  0
   16.9712   -9.5799   10.0373 C   0  0  0  0  0  0  0  0  0  0  0  0
   16.8325  -10.0107   11.3624 C   0  0  0  0  0  0  0  0  0  0  0  0
   18.0848   -9.2311    9.3750 N   0  0  0  0  0  0  0  0  0  0  0  0
   17.6092   -8.9072    8.1422 C   0  0  0  0  0  0  0  0  0  0  0  0
   16.2623   -9.0353    8.0014 N   0  0  0  0  0  0  0  0  0  0  0  0
   19.0140   -9.2139    9.7000 H   0  0  0  0  0  0  0  0  0  0  0  0
   18.4803   -8.4558    7.0520 C   0  0  0  0  0  0  0  0  0  0  0  0
   18.4156   -8.8836    5.7355 C   0  0  0  0  0  0  0  0  0  0  0  0
   19.3798   -8.2734    4.9200 C   0  0  0  0  0  0  0  0  0  0  0  0
   20.2053   -7.3672    5.5824 C   0  0  0  0  0  0  0  0  0  0  0  0
   19.7196   -7.3360    7.1929 S   0  0  0  0  0  0  0  0  0  0  0  0
   17.9771  -10.1517   12.2850 C   0  0  0  0  0  0  0  0  0  0  0  0
   19.0179   -9.4581   12.1214 O   0  0  0  0  0  0  0  0  0  0  0  0
   17.9039  -11.0783   13.3711 N   0  0  0  0  0  0  0  0  0  0  0  0
   17.0871  -11.6161   13.4850 H   0  0  0  0  0  0  0  0  0  0  0  0
   18.9984  -11.2513   14.3131 C   0  0  0  0  0  0  0  0  0  0  0  0
   19.0278  -10.0913   15.2963 C   0  0  0  0  0  0  0  0  0  0  0  0
   18.0828  -10.3330   16.4666 C   0  0  0  0  0  0  0  0  0  0  0  0
   16.9518   -9.3592   16.4548 C   0  0  0  0  0  0  0  0  0  0  0  0
   16.3664   -8.9326   15.3226 N   0  0  0  0  0  0  0  0  0  0  0  0
   15.4068   -8.0876   15.7422 C   0  0  0  0  0  0  0  0  0  0  0  0
   15.4364   -8.0280   17.1218 C   0  0  0  0  0  0  0  0  0  0  0  0
   16.4146   -8.8353   17.5711 N   0  0  0  0  0  0  0  0  0  0  0  0
   16.6774   -9.0042   18.5048 H   0  0  0  0  0  0  0  0  0  0  0  0
  1  2  2  0  0  0
  2  3  1  0  0  0
  3  4  2  0  0  0
  4  5  1  0  0  0
  5  6  2  0  0  0
  6 16  1  0  0  0
 16 17  2  0  0  0
 16 18  1  0  0  0
 18 20  1  0  0  0
 20 21  1  0  0  0
 21 22  1  0  0  0
 22 23  1  0  0  0
 23 24  2  0  0  0
 24 25  1  0  0  0
 25 26  2  0  0  0
 26 27  1  0  0  0
  5  7  1  0  0  0
  7  8  1  0  0  0
  8  9  2  0  0  0
  8 11  1  0  0  0
 11 12  2  0  0  0
 12 13  1  0  0  0
 13 14  2  0  0  0
 14 15  1  0  0  0
  6  1  1  0  0  0
 27 23  1  0  0  0
 15 11  1  0  0  0
  9  4  1  0  0  0
 18 19  1  0  0  0
 27 28  1  0  0  0
  7 10  1  0  0  0
M  END
>  <minimizedAffinity>
-5.79803

>  <minimizedRMSD>
1.99146

$$$$
CHEMBL4984389 225487010 CSC028003148 MCULE-2748410405 MolPort-038-971-104 PubChem-100651813 Z1874259388 ZINC000225487010


 24 26  0  0  0  0  0  0  0  0999 V2000
   15.7884   -9.7384   11.7856 C   0  0  0  0  0  0  0  0  0  0  0  0
   16.7206  -10.3217   12.7350 N   0  0  0  0  0  0  0  0  0  0  0  0
   17.3761  -10.9822   12.4136 H   0  0  0  0  0  0  0  0  0  0  0  0
   16.7178   -9.9687   14.1202 C   0  0  0  0  0  0  0  0  0  0  0  0
   16.0875   -8.8370   14.5375 N   0  0  0  0  0  0  0  0  0  0  0  0
   16.0735   -8.4840   15.8485 C   0  0  0  0  0  0  0  0  0  0  0  0
   16.6948   -9.2640   16.7698 N   0  0  0  0  0  0  0  0  0  0  0  0
   17.3375  -10.4031   16.4032 C   0  0  0  0  0  0  0  0  0  0  0  0
   17.9785  -11.1969   17.3968 N   0  0  0  0  0  0  0  0  0  0  0  0
   17.3645  -10.7863   15.0563 C   0  0  0  0  0  0  0  0  0  0  0  0
   18.1905  -12.2581   14.5524 Cl  0  0  0  0  0  0  0  0  0  0  0  0
   17.9536  -10.9186   18.3408 H   0  0  0  0  0  0  0  0  0  0  0  0
   18.4466  -12.0239   17.1396 H   0  0  0  0  0  0  0  0  0  0  0  0
   15.8905  -10.4710   10.4632 C   0  0  0  0  0  0  0  0  0  0  0  0
   16.8414   -7.8104    6.4147 C   0  0  0  0  0  0  0  0  0  0  0  0
   17.0274   -8.4509    7.7055 N   0  0  0  0  0  0  0  0  0  0  0  0
   16.1132   -9.2123    8.2962 N   0  0  0  0  0  0  0  0  0  0  0  0
   16.6283   -9.6330    9.4772 C   0  0  0  0  0  0  0  0  0  0  0  0
   17.8939   -9.1041    9.6282 C   0  0  0  0  0  0  0  0  0  0  0  0
   18.8394   -9.2003   10.6462 C   0  0  0  0  0  0  0  0  0  0  0  0
   20.0515   -8.5077   10.4639 C   0  0  0  0  0  0  0  0  0  0  0  0
   20.2801   -7.7501    9.2919 C   0  0  0  0  0  0  0  0  0  0  0  0
   19.2998   -7.6725    8.2842 C   0  0  0  0  0  0  0  0  0  0  0  0
   18.1118   -8.3714    8.4954 C   0  0  0  0  0  0  0  0  0  0  0  0
 15 16  1  0  0  0
 16 17  1  0  0  0
 17 18  2  0  0  0
 18 14  1  0  0  0
 14  1  1  0  0  0
  1  2  1  0  0  0
  2  4  1  0  0  0
  4  5  2  0  0  0
  5  6  1  0  0  0
  6  7  2  0  0  0
  7  8  1  0  0  0
  8  9  1  0  0  0
  8 10  2  0  0  0
 10 11  1  0  0  0
 18 19  1  0  0  0
 19 20  2  0  0  0
 20 21  1  0  0  0
 21 22  2  0  0  0
 22 23  1  0  0  0
 23 24  2  0  0  0
 24 16  1  0  0  0
 10  4  1  0  0  0
 24 19  1  0  0  0
  2  3  1  0  0  0
  9 12  1  0  0  0
  9 13  1  0  0  0
M  END
>  <minimizedAffinity>
-5.93024

>  <minimizedRMSD>
1.99235

$$$$
CHEMBL2235551 PubChem-25108387


 30 33  0  0  0  0  0  0  0  0999 V2000
   18.7464   -9.9568   14.9824 S   0  0  0  0  0  0  0  0  0  0  0  0
   17.5640   -9.8375   13.6492 C   0  0  0  0  0  0  0  0  0  0  0  0
   16.5696   -8.9317   13.6019 N   0  0  0  0  0  0  0  0  0  0  0  0
   15.9199   -9.1573   12.4705 N   0  0  0  0  0  0  0  0  0  0  0  0
   16.5439  -10.1934   11.8801 C   0  0  0  0  0  0  0  0  0  0  0  0
   17.5570  -10.6161   12.5957 O   0  0  0  0  0  0  0  0  0  0  0  0
   16.1564  -10.7585   10.5578 C   0  0  0  0  0  0  0  0  0  0  0  0
   16.6057   -9.8756    9.4926 N   0  0  0  0  0  0  0  0  0  0  0  0
   15.8872   -9.5509    8.4227 N   0  0  0  0  0  0  0  0  0  0  0  0
   16.5406   -8.6745    7.6594 N   0  0  0  0  0  0  0  0  0  0  0  0
   17.7075   -8.4418    8.2889 C   0  0  0  0  0  0  0  0  0  0  0  0
   18.7440   -7.5910    7.9183 C   0  0  0  0  0  0  0  0  0  0  0  0
   19.8558   -7.5241    8.7818 C   0  0  0  0  0  0  0  0  0  0  0  0
   19.8958   -8.2932    9.9699 C   0  0  0  0  0  0  0  0  0  0  0  0
   18.8253   -9.1425   10.3125 C   0  0  0  0  0  0  0  0  0  0  0  0
   17.7494   -9.1819    9.4293 C   0  0  0  0  0  0  0  0  0  0  0  0
   17.8839   -8.6847   15.9541 C   0  0  0  0  0  0  0  0  0  0  0  0
   17.0661   -9.3251   17.0628 C   0  0  0  0  0  0  0  0  0  0  0  0
   15.2851   -7.8282   16.5746 O   0  0  0  0  0  0  0  0  0  0  0  0
   15.9371   -8.4385   17.4630 C   0  0  0  0  0  0  0  0  0  0  0  0
   15.5977   -8.3179   18.8505 N   0  0  0  0  0  0  0  0  0  0  0  0
   16.1601   -8.8154   19.4873 H   0  0  0  0  0  0  0  0  0  0  0  0
   14.5239   -7.5477   19.4070 C   0  0  0  0  0  0  0  0  0  0  0  0
   14.7500   -6.8323   20.5865 C   0  0  0  0  0  0  0  0  0  0  0  0
   13.7270   -6.0726   21.1599 C   0  0  0  0  0  0  0  0  0  0  0  0
   12.4661   -6.0211   20.5590 C   0  0  0  0  0  0  0  0  0  0  0  0
   11.2102   -5.0539   21.3142 Cl  0  0  0  0  0  0  0  0  0  0  0  0
   12.2299   -6.7377   19.3735 C   0  0  0  0  0  0  0  0  0  0  0  0
   10.6652   -6.7087   18.5775 Cl  0  0  0  0  0  0  0  0  0  0  0  0
   13.2580   -7.4956   18.8054 C   0  0  0  0  0  0  0  0  0  0  0  0
 19 20  2  0  0  0
 20 18  1  0  0  0
 20 21  1  0  0  0
 18 17  1  0  0  0
 17  1  1  0  0  0
  1  2  1  0  0  0
  2  3  2  0  0  0
  3  4  1  0  0  0
  4  5  2  0  0  0
  5  7  1  0  0  0
  5  6  1  0  0  0
  7  8  1  0  0  0
  8  9  1  0  0  0
  9 10  2  0  0  0
 10 11  1  0  0  0
 11 12  2  0  0  0
 12 13  1  0  0  0
 13 14  2  0  0  0
 14 15  1  0  0  0
 15 16  2  0  0  0
 16  8  1  0  0  0
 16 11  1  0  0  0
  6  2  1  0  0  0
 21 23  1  0  0  0
 23 24  2  0  0  0
 24 25  1  0  0  0
 25 26  2  0  0  0
 26 27  1  0  0  0
 26 28  1  0  0  0
 28 29  1  0  0  0
 28 30  2  0  0  0
 30 23  1  0  0  0
 21 22  1  0  0  0
M  END
>  <minimizedAffinity>
-8.17000

>  <minimizedRMSD>
1.99365

$$$$
CHEMBL4204168


 38 41  0  0  0  0  0  0  0  0999 V2000
   16.1473  -10.5554    9.5390 C   0  0  0  0  0  0  0  0  0  0  0  0
   17.0677   -9.7428    8.6800 C   0  0  0  0  0  0  0  0  0  0  0  0
   17.9536   -8.8399    9.1800 N   0  0  0  0  0  0  0  0  0  0  0  0
   18.5430   -8.3705    8.0722 C   0  0  0  0  0  0  0  0  0  0  0  0
   18.0224   -8.9746    6.9699 C   0  0  0  0  0  0  0  0  0  0  0  0
   17.0780   -9.8561    7.3264 N   0  0  0  0  0  0  0  0  0  0  0  0
   18.4579   -8.6700    5.6832 C   0  0  0  0  0  0  0  0  0  0  0  0
   19.4713   -7.7018    5.5462 C   0  0  0  0  0  0  0  0  0  0  0  0
   20.0101   -7.0755    6.7007 C   0  0  0  0  0  0  0  0  0  0  0  0
   19.5449   -7.4088    7.9858 C   0  0  0  0  0  0  0  0  0  0  0  0
   18.1197   -8.5936   10.1186 H   0  0  0  0  0  0  0  0  0  0  0  0
   19.9242   -7.3799    4.2640 O   0  0  0  0  0  0  0  0  0  0  0  0
   20.7128   -6.2288    3.9956 C   0  0  0  0  0  0  0  0  0  0  0  0
   16.9363   -9.7803   11.8633 C   0  0  0  0  0  0  0  0  0  0  0  0
   16.5852   -8.5913   11.6441 O   0  0  0  0  0  0  0  0  0  0  0  0
   16.7216  -10.7865   10.8628 N   0  0  0  0  0  0  0  0  0  0  0  0
   16.9828  -11.7089   11.0868 H   0  0  0  0  0  0  0  0  0  0  0  0
   19.0135  -10.8884   15.4846 C   0  0  0  0  0  0  0  0  0  0  0  0
   19.2983  -11.5112   14.2626 C   0  0  0  0  0  0  0  0  0  0  0  0
   18.6024  -11.1436   13.0983 C   0  0  0  0  0  0  0  0  0  0  0  0
   17.6084  -10.1465   13.1275 C   0  0  0  0  0  0  0  0  0  0  0  0
   17.3354   -9.5445   14.3754 C   0  0  0  0  0  0  0  0  0  0  0  0
   18.0277   -9.9053   15.5148 C   0  0  0  0  0  0  0  0  0  0  0  0
   17.5540   -9.1529   16.7184 C   0  0  0  0  0  0  0  0  0  0  0  0
   16.4757   -8.3106   16.2018 N   0  0  0  0  0  0  0  0  0  0  0  0
   16.3542   -8.5650   14.8084 C   0  0  0  0  0  0  0  0  0  0  0  0
   15.4667   -8.0328   14.0934 O   0  0  0  0  0  0  0  0  0  0  0  0
   15.9309   -7.6797   16.7257 H   0  0  0  0  0  0  0  0  0  0  0  0
   14.7492   -9.9552    9.6323 C   0  0  0  0  0  0  0  0  0  0  0  0
   13.8484  -10.8374   10.4749 C   0  0  0  0  0  0  0  0  0  0  0  0
   12.9468   -9.9684   11.3307 C   0  0  0  0  0  0  0  0  0  0  0  0
   12.1248   -9.1130   10.4860 N   0  0  0  0  0  0  0  0  0  0  0  0
   12.5496   -8.3376   10.0531 H   0  0  0  0  0  0  0  0  0  0  0  0
   10.7318   -9.3414   10.2526 C   0  0  0  0  0  0  0  0  0  0  0  0
    9.8901   -9.3578   11.2339 N   0  0  0  0  0  0  0  0  0  0  0  0
   10.1940   -9.1484   12.1466 H   0  0  0  0  0  0  0  0  0  0  0  0
   10.2625   -9.6593    8.8777 C   0  0  0  0  0  0  0  0  0  0  0  0
   11.1387  -11.0776    8.2542 Cl  0  0  0  0  0  0  0  0  0  0  0  0
 18 19  2  0  0  0
 19 20  1  0  0  0
 20 21  2  0  0  0
 21 22  1  0  0  0
 22 23  2  0  0  0
 23 24  1  0  0  0
 24 25  1  0  0  0
 25 26  1  0  0  0
 26 27  2  0  0  0
 21 14  1  0  0  0
 14 15  2  0  0  0
 14 16  1  0  0  0
 16  1  1  0  0  0
  1  2  1  0  0  0
  2  3  1  0  0  0
  3  4  1  0  0  0
  4  5  2  0  0  0
  5  6  1  0  0  0
  5  7  1  0  0  0
  7  8  2  0  0  0
  8  9  1  0  0  0
  9 10  2  0  0  0
  8 12  1  0  0  0
 12 13  1  0  0  0
  1 29  1  0  0  0
 29 30  1  0  0  0
 30 31  1  0  0  0
 31 32  1  0  0  0
 32 34  1  0  0  0
 34 35  2  0  0  0
 34 37  1  0  0  0
 37 38  1  0  0  0
 23 18  1  0  0  0
  6  2  2  0  0  0
 26 22  1  0  0  0
 10  4  1  0  0  0
 25 28  1  0  0  0
 16 17  1  0  0  0
  3 11  1  0  0  0
 32 33  1  0  0  0
 35 36  1  0  0  0
M  END
>  <minimizedAffinity>
5.54525

>  <minimizedRMSD>
1.99684

$$$$
CHEMBL3917626 PubChem-56848949


 36 40  0  0  0  0  0  0  0  0999 V2000
   17.2036  -10.7275   15.7420 C   0  0  0  0  0  0  0  0  0  0  0  0
   17.4867  -10.6244   17.1128 C   0  0  0  0  0  0  0  0  0  0  0  0
   16.7474   -9.7478   17.9073 C   0  0  0  0  0  0  0  0  0  0  0  0
   15.7318   -8.9803   17.3361 C   0  0  0  0  0  0  0  0  0  0  0  0
   15.4734   -9.1034   15.9696 C   0  0  0  0  0  0  0  0  0  0  0  0
   16.2053   -9.9634   15.2124 N   0  0  0  0  0  0  0  0  0  0  0  0
   14.8046   -7.8669   18.3275 S   0  0  0  0  0  0  0  0  0  0  0  0
   15.2198   -6.4513   18.0344 O   0  0  0  0  0  0  0  0  0  0  0  0
   13.3445   -8.0216   18.0091 O   0  0  0  0  0  0  0  0  0  0  0  0
   15.0676   -8.2092   20.0040 N   0  0  0  0  0  0  0  0  0  0  0  0
   16.0286   -8.5192   20.1488 H   0  0  0  0  0  0  0  0  0  0  0  0
   14.8248   -6.9833   20.7484 C   0  0  0  0  0  0  0  0  0  0  0  0
   15.7999   -6.8634   21.8671 C   0  0  0  0  0  0  0  0  0  0  0  0
   15.4036   -7.1222   23.1852 C   0  0  0  0  0  0  0  0  0  0  0  0
   16.3241   -6.9966   24.2303 C   0  0  0  0  0  0  0  0  0  0  0  0
   17.6402   -6.6094   23.9600 C   0  0  0  0  0  0  0  0  0  0  0  0
   18.5318   -6.4880   24.9723 F   0  0  0  0  0  0  0  0  0  0  0  0
   18.0355   -6.3455   22.6448 C   0  0  0  0  0  0  0  0  0  0  0  0
   17.1154   -6.4710   21.5994 C   0  0  0  0  0  0  0  0  0  0  0  0
   17.9572  -13.0601   15.1686 C   0  0  0  0  0  0  0  0  0  0  0  0
   17.9567  -11.6291   14.9013 N   0  0  0  0  0  0  0  0  0  0  0  0
   18.7461  -11.1768   13.7553 C   0  0  0  0  0  0  0  0  0  0  0  0
   19.2047   -9.7331   13.9239 C   0  0  0  0  0  0  0  0  0  0  0  0
   18.9243   -9.0399   12.6036 C   0  0  0  0  0  0  0  0  0  0  0  0
   18.1353   -9.9695   11.8159 N   0  0  0  0  0  0  0  0  0  0  0  0
   17.9521  -11.2529   12.4635 C   0  0  0  0  0  0  0  0  0  0  0  0
   17.5754   -9.6783   10.5233 C   0  0  0  0  0  0  0  0  0  0  0  0
   16.3733  -10.2220   10.1626 N   0  0  0  0  0  0  0  0  0  0  0  0
   15.8039   -9.9688    8.9438 C   0  0  0  0  0  0  0  0  0  0  0  0
   16.4287   -9.1549    8.0442 N   0  0  0  0  0  0  0  0  0  0  0  0
   17.6193   -8.6081    8.3872 C   0  0  0  0  0  0  0  0  0  0  0  0
   18.3519   -7.7915    7.6192 N   0  0  0  0  0  0  0  0  0  0  0  0
   19.4407   -7.5069    8.3758 C   0  0  0  0  0  0  0  0  0  0  0  0
   19.3910   -8.1441    9.6182 C   0  0  0  0  0  0  0  0  0  0  0  0
   18.2053   -8.8447    9.5910 C   0  0  0  0  0  0  0  0  0  0  0  0
   18.1466   -7.4707    6.7113 H   0  0  0  0  0  0  0  0  0  0  0  0
 20 21  1  0  0  0
 22 21  1  0  0  0
 22 23  1  0  0  0
 23 24  1  0  0  0
 24 25  1  0  0  0
 25 26  1  0  0  0
 25 27  1  0  0  0
 27 28  2  0  0  0
 28 29  1  0  0  0
 29 30  2  0  0  0
 30 31  1  0  0  0
 31 32  1  0  0  0
 32 33  1  0  0  0
 33 34  2  0  0  0
 34 35  1  0  0  0
 21  1  1  0  0  0
  1  2  2  0  0  0
  2  3  1  0  0  0
  3  4  2  0  0  0
  4  5  1  0  0  0
  5  6  2  0  0  0
  4  7  1  0  0  0
  7  8  2  0  0  0
  7  9  2  0  0  0
  7 10  1  0  0  0
 10 12  1  0  0  0
 12 13  1  0  0  0
 13 14  2  0  0  0
 14 15  1  0  0  0
 15 16  2  0  0  0
 16 17  1  0  0  0
 16 18  1  0  0  0
 18 19  2  0  0  0
 26 22  1  0  0  0
 35 27  1  0  0  0
  6  1  1  0  0  0
 19 13  1  0  0  0
 35 31  2  0  0  0
 32 36  1  0  0  0
 10 11  1  0  0  0
M  END
>  <minimizedAffinity>
-4.06487

>  <minimizedRMSD>
1.99797

$$$$
CHEMBL2386046 PubChem-71698758


 35 38  0  0  0  0  0  0  0  0999 V2000
   18.5139  -10.0529   13.2215 C   0  0  0  0  0  0  0  0  0  0  0  0
   18.4513  -11.6317   12.7861 S   0  0  0  0  0  0  0  0  0  0  0  0
   18.6037   -9.7393   14.6167 N   0  0  0  0  0  0  0  0  0  0  0  0
   19.4765   -9.8894   15.0467 H   0  0  0  0  0  0  0  0  0  0  0  0
   15.5447   -8.2538   17.1631 C   0  0  0  0  0  0  0  0  0  0  0  0
   15.6859   -7.7357   15.8682 C   0  0  0  0  0  0  0  0  0  0  0  0
   16.6855   -8.2188   15.0198 C   0  0  0  0  0  0  0  0  0  0  0  0
   17.5558   -9.2300   15.4523 C   0  0  0  0  0  0  0  0  0  0  0  0
   17.4193   -9.7413   16.7466 C   0  0  0  0  0  0  0  0  0  0  0  0
   16.4199   -9.2590   17.5966 C   0  0  0  0  0  0  0  0  0  0  0  0
   14.4915   -7.7457   18.0593 C   0  0  0  0  0  0  0  0  0  0  0  0
   13.5399   -7.0626   17.5908 O   0  0  0  0  0  0  0  0  0  0  0  0
   14.5446   -8.0313   19.4611 N   0  0  0  0  0  0  0  0  0  0  0  0
   15.2776   -8.5948   19.7995 H   0  0  0  0  0  0  0  0  0  0  0  0
   13.5615   -7.5246   20.4083 C   0  0  0  0  0  0  0  0  0  0  0  0
   13.8003   -6.0785   20.6758 C   0  0  0  0  0  0  0  0  0  0  0  0
   14.6752   -5.7283   21.5096 O   0  0  0  0  0  0  0  0  0  0  0  0
   13.0797   -5.1156   19.9824 O   0  0  0  0  0  0  0  0  0  0  0  0
   12.4279   -5.3751   19.3613 H   0  0  0  0  0  0  0  0  0  0  0  0
   18.2624   -9.0211   12.2566 N   0  0  0  0  0  0  0  0  0  0  0  0
   18.6330   -8.1285   12.4441 H   0  0  0  0  0  0  0  0  0  0  0  0
   17.5149   -9.1810   11.0392 C   0  0  0  0  0  0  0  0  0  0  0  0
   16.1876   -9.6390   11.0987 C   0  0  0  0  0  0  0  0  0  0  0  0
   15.4496   -9.7912    9.9021 C   0  0  0  0  0  0  0  0  0  0  0  0
   16.0127   -9.4770    8.7075 N   0  0  0  0  0  0  0  0  0  0  0  0
   17.2822   -9.0039    8.6186 C   0  0  0  0  0  0  0  0  0  0  0  0
   18.0638   -8.8339    9.7864 C   0  0  0  0  0  0  0  0  0  0  0  0
   19.3544   -8.2954    9.6704 C   0  0  0  0  0  0  0  0  0  0  0  0
   19.8711   -7.9569    8.4172 C   0  0  0  0  0  0  0  0  0  0  0  0
   19.1005   -8.1459    7.2675 C   0  0  0  0  0  0  0  0  0  0  0  0
   17.8078   -8.6657    7.3682 C   0  0  0  0  0  0  0  0  0  0  0  0
   14.1343  -10.2623    9.9469 C   0  0  0  0  0  0  0  0  0  0  0  0
   13.5458  -10.5836   11.1729 C   0  0  0  0  0  0  0  0  0  0  0  0
   14.2701  -10.4357   12.3589 C   0  0  0  0  0  0  0  0  0  0  0  0
   15.5861   -9.9667   12.3230 C   0  0  0  0  0  0  0  0  0  0  0  0
  5  6  2  0  0  0
  6  7  1  0  0  0
  7  8  2  0  0  0
  8  9  1  0  0  0
  9 10  2  0  0  0
  8  3  1  0  0  0
  3  1  1  0  0  0
  1  2  2  0  0  0
  1 20  1  0  0  0
 20 22  1  0  0  0
 22 23  2  0  0  0
 23 24  1  0  0  0
 24 25  2  0  0  0
 25 26  1  0  0  0
 26 27  2  0  0  0
 27 28  1  0  0  0
 28 29  2  0  0  0
 29 30  1  0  0  0
 30 31  2  0  0  0
 24 32  1  0  0  0
 32 33  2  0  0  0
 33 34  1  0  0  0
 34 35  2  0  0  0
  5 11  1  0  0  0
 11 12  2  0  0  0
 11 13  1  0  0  0
 13 15  1  0  0  0
 15 16  1  0  0  0
 16 17  2  0  0  0
 16 18  1  0  0  0
 10  5  1  0  0  0
 27 22  1  0  0  0
 35 23  1  0  0  0
 31 26  1  0  0  0
  3  4  1  0  0  0
 20 21  1  0  0  0
 13 14  1  0  0  0
 18 19  1  0  0  0
M  END
>  <minimizedAffinity>
-4.45906

>  <minimizedRMSD>
1.99865

$$$$
CHEMBL342283 PubChem-18008678


 33 35  0  0  0  0  0  0  0  0999 V2000
   19.1549   -9.3036   11.7388 C   0  0  0  0  0  0  0  0  0  0  0  0
   19.0326  -10.8202   11.8086 C   0  0  0  0  0  0  0  0  0  0  0  0
   18.2589  -11.1296   13.0809 C   0  0  0  0  0  0  0  0  0  0  0  0
   18.0644   -9.8058   13.8204 C   0  0  0  0  0  0  0  0  0  0  0  0
   19.0917   -9.5809   14.7431 O   0  0  0  0  0  0  0  0  0  0  0  0
   18.1378   -8.7494   12.7385 C   0  0  0  0  0  0  0  0  0  0  0  0
   16.8751   -8.6240   12.1503 O   0  0  0  0  0  0  0  0  0  0  0  0
   19.9455   -9.5809   14.2828 H   0  0  0  0  0  0  0  0  0  0  0  0
   16.5876   -9.4874   11.8146 H   0  0  0  0  0  0  0  0  0  0  0  0
   17.9855   -8.2293    5.8708 N   0  0  0  0  0  0  0  0  0  0  0  0
   17.6827   -8.8379    7.1212 C   0  0  0  0  0  0  0  0  0  0  0  0
   16.6471   -9.7210    7.2339 N   0  0  0  0  0  0  0  0  0  0  0  0
   16.3589  -10.3281    8.4301 C   0  0  0  0  0  0  0  0  0  0  0  0
   17.1055  -10.0575    9.5437 N   0  0  0  0  0  0  0  0  0  0  0  0
   18.1237   -9.1692    9.4281 C   0  0  0  0  0  0  0  0  0  0  0  0
   18.4313   -8.5685    8.2582 C   0  0  0  0  0  0  0  0  0  0  0  0
   19.5209   -7.7945    8.3987 N   0  0  0  0  0  0  0  0  0  0  0  0
   19.8508   -7.9614    9.7101 C   0  0  0  0  0  0  0  0  0  0  0  0
   18.9888   -8.7775   10.3766 N   0  0  0  0  0  0  0  0  0  0  0  0
   17.4399   -8.4360    5.0777 H   0  0  0  0  0  0  0  0  0  0  0  0
   18.7405   -7.6015    5.7989 H   0  0  0  0  0  0  0  0  0  0  0  0
   18.9448  -12.2046   13.9180 C   0  0  0  0  0  0  0  0  0  0  0  0
   17.7977  -12.8858   15.1545 S   0  0  0  0  0  0  0  0  0  0  0  0
   18.1417  -11.5505   16.3338 C   0  0  0  0  0  0  0  0  0  0  0  0
   16.8336  -10.9724   16.8386 C   0  0  0  0  0  0  0  0  0  0  0  0
   16.8586   -9.4548   16.7598 C   0  0  0  0  0  0  0  0  0  0  0  0
   16.4511   -8.8971   18.0369 N   0  0  0  0  0  0  0  0  0  0  0  0
   15.5006   -9.1984   18.2517 H   0  0  0  0  0  0  0  0  0  0  0  0
   16.4822   -7.8787   17.9887 H   0  0  0  0  0  0  0  0  0  0  0  0
   15.9479   -8.9610   15.6835 C   0  0  0  0  0  0  0  0  0  0  0  0
   15.6873   -7.7328   15.6010 O   0  0  0  0  0  0  0  0  0  0  0  0
   15.3853   -9.8491   14.7744 O   0  0  0  0  0  0  0  0  0  0  0  0
   15.5775  -10.7643   14.8333 H   0  0  0  0  0  0  0  0  0  0  0  0
 10 11  1  0  0  0
 11 12  2  0  0  0
 12 13  1  0  0  0
 13 14  2  0  0  0
 14 15  1  0  0  0
 15 16  2  0  0  0
 16 17  1  0  0  0
 16 11  1  0  0  0
 17 18  2  0  0  0
 18 19  1  0  0  0
 19 15  1  0  0  0
  1 19  1  0  0  0
  1  2  1  0  0  0
  2  3  1  0  0  0
  3 22  1  0  0  0
  3  4  1  0  0  0
 22 23  1  0  0  0
 23 24  1  0  0  0
 24 25  1  0  0  0
 26 25  1  0  0  0
 26 27  1  0  0  0
 26 30  1  0  0  0
 30 31  2  0  0  0
 30 32  1  0  0  0
  4  5  1  0  0  0
  4  6  1  0  0  0
  6  7  1  0  0  0
  6  1  1  0  0  0
 10 20  1  0  0  0
 10 21  1  0  0  0
 27 28  1  0  0  0
 27 29  1  0  0  0
 32 33  1  0  0  0
  5  8  1  0  0  0
  7  9  1  0  0  0
M  END
>  <minimizedAffinity>
-1.28856

>  <minimizedRMSD>
2.00178

$$$$
CHEMBL2235551 PubChem-25108387


 30 33  0  0  0  0  0  0  0  0999 V2000
   18.5103   -9.6513   15.2381 S   0  0  0  0  0  0  0  0  0  0  0  0
   17.4148   -9.6574   13.8276 C   0  0  0  0  0  0  0  0  0  0  0  0
   16.4106   -8.7794   13.6488 N   0  0  0  0  0  0  0  0  0  0  0  0
   15.8393   -9.1028   12.4990 N   0  0  0  0  0  0  0  0  0  0  0  0
   16.5173  -10.1665   12.0297 C   0  0  0  0  0  0  0  0  0  0  0  0
   17.4889  -10.5126   12.8379 O   0  0  0  0  0  0  0  0  0  0  0  0
   16.2256  -10.8371   10.7323 C   0  0  0  0  0  0  0  0  0  0  0  0
   16.6043   -9.9664    9.6302 N   0  0  0  0  0  0  0  0  0  0  0  0
   15.8357   -9.6925    8.5812 N   0  0  0  0  0  0  0  0  0  0  0  0
   16.4298   -8.8141    7.7731 N   0  0  0  0  0  0  0  0  0  0  0  0
   17.6108   -8.5272    8.3519 C   0  0  0  0  0  0  0  0  0  0  0  0
   18.6030   -7.6518    7.9220 C   0  0  0  0  0  0  0  0  0  0  0  0
   19.7434   -7.5266    8.7406 C   0  0  0  0  0  0  0  0  0  0  0  0
   19.8540   -8.2641    9.9441 C   0  0  0  0  0  0  0  0  0  0  0  0
   18.8268   -9.1398   10.3473 C   0  0  0  0  0  0  0  0  0  0  0  0
   17.7205   -9.2369    9.5070 C   0  0  0  0  0  0  0  0  0  0  0  0
   17.4644   -8.4633   16.1331 C   0  0  0  0  0  0  0  0  0  0  0  0
   16.5049   -9.1912   17.0593 C   0  0  0  0  0  0  0  0  0  0  0  0
   14.9067   -7.4344   16.9562 O   0  0  0  0  0  0  0  0  0  0  0  0
   15.5509   -8.2334   17.6866 C   0  0  0  0  0  0  0  0  0  0  0  0
   15.3649   -8.2579   19.1078 N   0  0  0  0  0  0  0  0  0  0  0  0
   15.9122   -8.9014   19.6134 H   0  0  0  0  0  0  0  0  0  0  0  0
   14.4644   -7.4423   19.8690 C   0  0  0  0  0  0  0  0  0  0  0  0
   14.8765   -6.9715   21.1192 C   0  0  0  0  0  0  0  0  0  0  0  0
   14.0254   -6.1762   21.8909 C   0  0  0  0  0  0  0  0  0  0  0  0
   12.7520   -5.8439   21.4200 C   0  0  0  0  0  0  0  0  0  0  0  0
   11.7161   -4.8423   22.4233 Cl  0  0  0  0  0  0  0  0  0  0  0  0
   12.3294   -6.3134   20.1648 C   0  0  0  0  0  0  0  0  0  0  0  0
   10.7406   -5.9268   19.5255 Cl  0  0  0  0  0  0  0  0  0  0  0  0
   13.1862   -7.1086   19.3980 C   0  0  0  0  0  0  0  0  0  0  0  0
 19 20  2  0  0  0
 20 18  1  0  0  0
 20 21  1  0  0  0
 18 17  1  0  0  0
 17  1  1  0  0  0
  1  2  1  0  0  0
  2  3  2  0  0  0
  3  4  1  0  0  0
  4  5  2  0  0  0
  5  7  1  0  0  0
  5  6  1  0  0  0
  7  8  1  0  0  0
  8  9  1  0  0  0
  9 10  2  0  0  0
 10 11  1  0  0  0
 11 12  2  0  0  0
 12 13  1  0  0  0
 13 14  2  0  0  0
 14 15  1  0  0  0
 15 16  2  0  0  0
 16  8  1  0  0  0
 16 11  1  0  0  0
  6  2  1  0  0  0
 21 23  1  0  0  0
 23 24  2  0  0  0
 24 25  1  0  0  0
 25 26  2  0  0  0
 26 27  1  0  0  0
 26 28  1  0  0  0
 28 29  1  0  0  0
 28 30  2  0  0  0
 30 23  1  0  0  0
 21 22  1  0  0  0
M  END
>  <minimizedAffinity>
-8.31370

>  <minimizedRMSD>
2.00576

$$$$
CHEMBL2419367 PubChem-56596227


 34 38  0  0  0  0  0  0  0  0999 V2000
   16.3369   -9.6487   13.6045 C   0  0  0  0  0  0  0  0  0  0  0  0
   17.4225   -9.8309   12.7313 C   0  0  0  0  0  0  0  0  0  0  0  0
   17.2138  -10.0029   11.3608 C   0  0  0  0  0  0  0  0  0  0  0  0
   15.9126   -9.9966   10.8367 C   0  0  0  0  0  0  0  0  0  0  0  0
   14.8282   -9.8195   11.6995 C   0  0  0  0  0  0  0  0  0  0  0  0
   15.0370   -9.6504   13.0705 C   0  0  0  0  0  0  0  0  0  0  0  0
   16.9699  -10.6550   15.8129 C   0  0  0  0  0  0  0  0  0  0  0  0
   16.5550   -9.4984   15.0250 N   0  0  0  0  0  0  0  0  0  0  0  0
   16.4518   -8.2171   15.6775 C   0  0  0  0  0  0  0  0  0  0  0  0
   16.8318   -7.1763   15.0751 O   0  0  0  0  0  0  0  0  0  0  0  0
   15.9165   -8.0927   17.0466 C   0  0  0  0  0  0  0  0  0  0  0  0
   14.8779   -7.2584   17.4223 C   0  0  0  0  0  0  0  0  0  0  0  0
   14.7448   -7.5357   18.7733 C   0  0  0  0  0  0  0  0  0  0  0  0
   15.6365   -8.4701   19.1552 N   0  0  0  0  0  0  0  0  0  0  0  0
   16.3505   -8.8132   18.0974 N   0  0  0  0  0  0  0  0  0  0  0  0
   17.0745   -9.4803   18.0808 H   0  0  0  0  0  0  0  0  0  0  0  0
   13.7680   -6.9164   19.6857 C   0  0  0  0  0  0  0  0  0  0  0  0
   13.7475   -7.2725   21.0398 C   0  0  0  0  0  0  0  0  0  0  0  0
   12.8134   -6.6812   21.8931 C   0  0  0  0  0  0  0  0  0  0  0  0
   11.9291   -5.7674   21.4094 N   0  0  0  0  0  0  0  0  0  0  0  0
   11.9291   -5.4030   20.0992 C   0  0  0  0  0  0  0  0  0  0  0  0
   12.8495   -5.9698   19.2142 C   0  0  0  0  0  0  0  0  0  0  0  0
   15.6681  -10.1711    9.4699 O   0  0  0  0  0  0  0  0  0  0  0  0
   16.6283  -10.7035    8.5614 C   0  0  0  0  0  0  0  0  0  0  0  0
   17.5185   -9.6248    8.0444 C   0  0  0  0  0  0  0  0  0  0  0  0
   18.0189   -8.6595    8.9238 C   0  0  0  0  0  0  0  0  0  0  0  0
   18.8668   -7.6609    8.4399 C   0  0  0  0  0  0  0  0  0  0  0  0
   19.2060   -7.6388    7.0874 C   0  0  0  0  0  0  0  0  0  0  0  0
   20.0550   -6.6516    6.5803 C   0  0  0  0  0  0  0  0  0  0  0  0
   20.3857   -6.6491    5.2217 C   0  0  0  0  0  0  0  0  0  0  0  0
   19.8688   -7.6317    4.3702 C   0  0  0  0  0  0  0  0  0  0  0  0
   19.0177   -8.6221    4.8724 C   0  0  0  0  0  0  0  0  0  0  0  0
   18.6838   -8.6313    6.2293 C   0  0  0  0  0  0  0  0  0  0  0  0
   17.8610   -9.5934    6.7266 N   0  0  0  0  0  0  0  0  0  0  0  0
  7  8  1  0  0  0
  8  9  1  0  0  0
  8  1  1  0  0  0
  9 10  2  0  0  0
  9 11  1  0  0  0
 11 12  2  0  0  0
 12 13  1  0  0  0
 13 17  1  0  0  0
 13 14  2  0  0  0
 17 18  2  0  0  0
 18 19  1  0  0  0
 19 20  2  0  0  0
 20 21  1  0  0  0
 21 22  2  0  0  0
 22 17  1  0  0  0
 14 15  1  0  0  0
 15 11  1  0  0  0
  1  2  2  0  0  0
  2  3  1  0  0  0
  3  4  2  0  0  0
  4 23  1  0  0  0
  4  5  1  0  0  0
 23 24  1  0  0  0
 24 25  1  0  0  0
 25 26  2  0  0  0
 26 27  1  0  0  0
 27 28  2  0  0  0
 28 29  1  0  0  0
 29 30  2  0  0  0
 30 31  1  0  0  0
 31 32  2  0  0  0
 32 33  1  0  0  0
 33 34  2  0  0  0
 33 28  1  0  0  0
 34 25  1  0  0  0
  5  6  2  0  0  0
  6  1  1  0  0  0
 15 16  1  0  0  0
M  END
>  <minimizedAffinity>
-7.19647

>  <minimizedRMSD>
2.00605

$$$$
CHEMBL1532599


 32 34  0  0  0  0  0  0  0  0999 V2000
   16.9730   -9.0026   15.1394 N   0  0  0  0  0  0  0  0  0  0  0  0
   18.3150   -9.0481   15.7007 C   0  0  0  0  0  0  0  0  0  0  0  0
   16.5487   -9.9630   14.1587 C   0  0  0  0  0  0  0  0  0  0  0  0
   15.3756   -9.9225   13.6993 O   0  0  0  0  0  0  0  0  0  0  0  0
   16.0490   -7.9924   15.6375 C   0  0  0  0  0  0  0  0  0  0  0  0
   15.0647   -7.2514   17.8400 N   0  0  0  0  0  0  0  0  0  0  0  0
   15.6979   -8.2700   17.0588 C   0  0  0  0  0  0  0  0  0  0  0  0
   16.0346   -9.3668   17.5789 O   0  0  0  0  0  0  0  0  0  0  0  0
   15.0255   -6.3462   17.4549 H   0  0  0  0  0  0  0  0  0  0  0  0
   13.1139   -7.7404   19.3111 C   0  0  0  0  0  0  0  0  0  0  0  0
   12.6084   -7.9065   20.6120 C   0  0  0  0  0  0  0  0  0  0  0  0
   13.4391   -7.7505   21.7229 C   0  0  0  0  0  0  0  0  0  0  0  0
   14.7822   -7.4175   21.5462 C   0  0  0  0  0  0  0  0  0  0  0  0
   15.8213   -7.2032   22.9379 Cl  0  0  0  0  0  0  0  0  0  0  0  0
   15.2981   -7.2574   20.2588 C   0  0  0  0  0  0  0  0  0  0  0  0
   14.4830   -7.4398   19.1363 C   0  0  0  0  0  0  0  0  0  0  0  0
   10.9462   -8.3520   18.2777 C   0  0  0  0  0  0  0  0  0  0  0  0
   12.2687   -7.8374   18.1997 O   0  0  0  0  0  0  0  0  0  0  0  0
   17.4902  -11.0041   13.6389 C   0  0  0  0  0  0  0  0  0  0  0  0
   18.6206  -10.3667   12.8414 C   0  0  0  0  0  0  0  0  0  0  0  0
   18.1498   -9.9206   11.4977 C   0  0  0  0  0  0  0  0  0  0  0  0
   16.9582  -10.3604   11.0094 N   0  0  0  0  0  0  0  0  0  0  0  0
   16.5076   -9.9666    9.7894 C   0  0  0  0  0  0  0  0  0  0  0  0
   15.2838  -10.4362    9.3255 O   0  0  0  0  0  0  0  0  0  0  0  0
   17.2798   -9.0940    9.0153 C   0  0  0  0  0  0  0  0  0  0  0  0
   16.8608   -8.6570    7.7523 C   0  0  0  0  0  0  0  0  0  0  0  0
   17.6663   -7.7848    7.0135 C   0  0  0  0  0  0  0  0  0  0  0  0
   18.8897   -7.3479    7.5328 C   0  0  0  0  0  0  0  0  0  0  0  0
   19.3132   -7.7811    8.7934 C   0  0  0  0  0  0  0  0  0  0  0  0
   18.5129   -8.6528    9.5373 C   0  0  0  0  0  0  0  0  0  0  0  0
   18.9188   -9.0757   10.7616 N   0  0  0  0  0  0  0  0  0  0  0  0
   14.7756  -11.0203    9.8533 H   0  0  0  0  0  0  0  0  0  0  0  0
 17 18  1  0  0  0
 18 10  1  0  0  0
 10 11  2  0  0  0
 11 12  1  0  0  0
 12 13  2  0  0  0
 13 14  1  0  0  0
 13 15  1  0  0  0
 15 16  2  0  0  0
 16  6  1  0  0  0
 16 10  1  0  0  0
  6  7  1  0  0  0
  7  8  2  0  0  0
  7  5  1  0  0  0
  5  1  1  0  0  0
  1  2  1  0  0  0
  1  3  1  0  0  0
  3  4  2  0  0  0
  3 19  1  0  0  0
 19 20  1  0  0  0
 20 21  1  0  0  0
 21 22  2  0  0  0
 22 23  1  0  0  0
 23 24  1  0  0  0
 23 25  2  0  0  0
 25 26  1  0  0  0
 26 27  2  0  0  0
 27 28  1  0  0  0
 28 29  2  0  0  0
 29 30  1  0  0  0
 30 31  2  0  0  0
 30 25  1  0  0  0
 31 21  1  0  0  0
  6  9  1  0  0  0
 24 32  1  0  0  0
M  END
>  <minimizedAffinity>
-9.16527

>  <minimizedRMSD>
2.01059

$$$$
CHEMBL431359 PubChem-14503206


 40 42  0  0  0  0  0  0  0  0999 V2000
   16.9043   -9.3454   14.4718 C   0  0  0  0  0  0  0  0  0  0  0  0
   17.0244  -10.1213   15.6287 C   0  0  0  0  0  0  0  0  0  0  0  0
   16.5184   -9.6536   16.8448 C   0  0  0  0  0  0  0  0  0  0  0  0
   15.8912   -8.4018   16.9175 C   0  0  0  0  0  0  0  0  0  0  0  0
   15.7810   -7.6225   15.7569 C   0  0  0  0  0  0  0  0  0  0  0  0
   16.2871   -8.0909   14.5417 C   0  0  0  0  0  0  0  0  0  0  0  0
   15.3567   -7.9107   18.1992 C   0  0  0  0  0  0  0  0  0  0  0  0
   16.1440   -7.4837   19.0878 O   0  0  0  0  0  0  0  0  0  0  0  0
   13.9417   -7.9173   18.4344 N   0  0  0  0  0  0  0  0  0  0  0  0
   13.3604   -8.2607   17.7179 H   0  0  0  0  0  0  0  0  0  0  0  0
   13.3017   -7.4499   19.6634 C   0  0  0  0  0  0  0  0  0  0  0  0
   14.2587   -7.5046   20.8170 C   0  0  0  0  0  0  0  0  0  0  0  0
   14.4543   -8.5975   21.4096 O   0  0  0  0  0  0  0  0  0  0  0  0
   14.9351   -6.3663   21.2421 O   0  0  0  0  0  0  0  0  0  0  0  0
   14.7956   -5.5484   20.8068 H   0  0  0  0  0  0  0  0  0  0  0  0
   12.6954   -6.0597   19.4741 C   0  0  0  0  0  0  0  0  0  0  0  0
   11.9469   -5.9581   18.1516 C   0  0  0  0  0  0  0  0  0  0  0  0
   10.7777   -6.8841   18.1230 C   0  0  0  0  0  0  0  0  0  0  0  0
    9.9675   -6.9139   19.0860 O   0  0  0  0  0  0  0  0  0  0  0  0
   10.5752   -7.7060   17.0230 O   0  0  0  0  0  0  0  0  0  0  0  0
   11.1772   -7.6851   16.3053 H   0  0  0  0  0  0  0  0  0  0  0  0
   17.4705   -9.8629   13.1820 C   0  0  0  0  0  0  0  0  0  0  0  0
   15.0020   -9.8983   12.5566 C   0  0  0  0  0  0  0  0  0  0  0  0
   16.4163  -10.2926   12.1474 C   0  0  0  0  0  0  0  0  0  0  0  0
   16.7296   -9.8946   10.7293 C   0  0  0  0  0  0  0  0  0  0  0  0
   15.8874  -10.3107    9.6882 C   0  0  0  0  0  0  0  0  0  0  0  0
   16.1821   -9.9764    8.4033 N   0  0  0  0  0  0  0  0  0  0  0  0
   17.2890   -9.2475    8.1079 C   0  0  0  0  0  0  0  0  0  0  0  0
   17.5756   -8.9156    6.8230 N   0  0  0  0  0  0  0  0  0  0  0  0
   18.6854   -8.1877    6.5263 C   0  0  0  0  0  0  0  0  0  0  0  0
   18.9702   -7.8485    5.1748 N   0  0  0  0  0  0  0  0  0  0  0  0
   19.5244   -7.7830    7.5183 N   0  0  0  0  0  0  0  0  0  0  0  0
   19.2777   -8.0929    8.8189 C   0  0  0  0  0  0  0  0  0  0  0  0
   20.1752   -7.6523    9.8334 N   0  0  0  0  0  0  0  0  0  0  0  0
   18.1427   -8.8394    9.1445 C   0  0  0  0  0  0  0  0  0  0  0  0
   17.8478   -9.1769   10.4273 N   0  0  0  0  0  0  0  0  0  0  0  0
   18.3643   -8.1404    4.4559 H   0  0  0  0  0  0  0  0  0  0  0  0
   19.7732   -7.3217    4.9582 H   0  0  0  0  0  0  0  0  0  0  0  0
   20.9719   -7.1268    9.5915 H   0  0  0  0  0  0  0  0  0  0  0  0
   19.9990   -7.8732   10.7765 H   0  0  0  0  0  0  0  0  0  0  0  0
 24 23  1  0  0  0
 24 22  1  0  0  0
 24 25  1  0  0  0
 22  1  1  0  0  0
  1  2  2  0  0  0
  2  3  1  0  0  0
  3  4  2  0  0  0
  4  7  1  0  0  0
  4  5  1  0  0  0
  7  8  2  0  0  0
  7  9  1  0  0  0
 11  9  1  0  0  0
 11 16  1  0  0  0
 11 12  1  0  0  0
 16 17  1  0  0  0
 17 18  1  0  0  0
 18 19  2  0  0  0
 18 20  1  0  0  0
 12 13  2  0  0  0
 12 14  1  0  0  0
  5  6  2  0  0  0
  6  1  1  0  0  0
 25 26  2  0  0  0
 26 27  1  0  0  0
 27 28  2  0  0  0
 28 29  1  0  0  0
 29 30  2  0  0  0
 30 31  1  0  0  0
 30 32  1  0  0  0
 32 33  2  0  0  0
 33 34  1  0  0  0
 33 35  1  0  0  0
 35 36  2  0  0  0
 35 28  1  0  0  0
 36 25  1  0  0  0
  9 10  1  0  0  0
 20 21  1  0  0  0
 14 15  1  0  0  0
 31 37  1  0  0  0
 31 38  1  0  0  0
 34 39  1  0  0  0
 34 40  1  0  0  0
M  END
>  <minimizedAffinity>
-7.45373

>  <minimizedRMSD>
2.01167

$$$$
CHEMBL5276857 PubChem-118906851


 31 34  0  0  0  0  0  0  0  0999 V2000
   17.4058  -10.2218   13.9222 C   0  0  0  0  0  0  0  0  0  0  0  0
   18.5045  -10.6652   14.8960 C   0  0  0  0  0  0  0  0  0  0  0  0
   18.0036  -10.8632   16.3360 C   0  0  0  0  0  0  0  0  0  0  0  0
   16.5196  -10.5377   16.5073 C   0  0  0  0  0  0  0  0  0  0  0  0
   16.2124   -9.2598   15.8645 N   0  0  0  0  0  0  0  0  0  0  0  0
   16.6199   -9.0287   14.4754 C   0  0  0  0  0  0  0  0  0  0  0  0
   15.5600   -8.2126   16.5989 C   0  0  0  0  0  0  0  0  0  0  0  0
   15.2733   -7.1248   16.0307 O   0  0  0  0  0  0  0  0  0  0  0  0
   19.3931   -9.6467   12.4908 C   0  0  0  0  0  0  0  0  0  0  0  0
   17.9631   -9.9181   12.6053 N   0  0  0  0  0  0  0  0  0  0  0  0
   17.0818   -9.8732   11.4634 C   0  0  0  0  0  0  0  0  0  0  0  0
   15.8171  -10.3873   11.5594 N   0  0  0  0  0  0  0  0  0  0  0  0
   14.9478  -10.3750   10.5026 C   0  0  0  0  0  0  0  0  0  0  0  0
   15.3244   -9.8435    9.3042 N   0  0  0  0  0  0  0  0  0  0  0  0
   16.5722   -9.3306    9.1893 C   0  0  0  0  0  0  0  0  0  0  0  0
   17.4545   -9.3304   10.2248 C   0  0  0  0  0  0  0  0  0  0  0  0
   18.6191   -8.7495    9.7705 C   0  0  0  0  0  0  0  0  0  0  0  0
   18.3475   -8.4269    8.4393 C   0  0  0  0  0  0  0  0  0  0  0  0
   17.0896   -8.7843    8.0814 N   0  0  0  0  0  0  0  0  0  0  0  0
   16.6551   -8.6685    7.2056 H   0  0  0  0  0  0  0  0  0  0  0  0
   15.2332   -8.3744   18.0497 C   0  0  0  0  0  0  0  0  0  0  0  0
   16.2209   -7.6825   18.8687 N   0  0  0  0  0  0  0  0  0  0  0  0
   17.1290   -7.5710   18.5051 H   0  0  0  0  0  0  0  0  0  0  0  0
   15.9463   -7.1564   20.1705 C   0  0  0  0  0  0  0  0  0  0  0  0
   14.6313   -7.0271   20.6426 C   0  0  0  0  0  0  0  0  0  0  0  0
   14.3896   -6.5110   21.9186 C   0  0  0  0  0  0  0  0  0  0  0  0
   15.4595   -6.1233   22.7298 C   0  0  0  0  0  0  0  0  0  0  0  0
   16.7711   -6.2527   22.2644 C   0  0  0  0  0  0  0  0  0  0  0  0
   17.0131   -6.7693   20.9880 C   0  0  0  0  0  0  0  0  0  0  0  0
   18.1116   -5.7666   23.2784 Cl  0  0  0  0  0  0  0  0  0  0  0  0
   12.7465   -6.3506   22.4994 Cl  0  0  0  0  0  0  0  0  0  0  0  0
  9 10  1  0  0  0
  1 10  1  0  0  0
  1  2  1  0  0  0
  2  3  1  0  0  0
  3  4  1  0  0  0
  4  5  1  0  0  0
  5  6  1  0  0  0
  5  7  1  0  0  0
  7  8  2  0  0  0
  7 21  1  0  0  0
 21 22  1  0  0  0
 22 24  1  0  0  0
 24 25  2  0  0  0
 25 26  1  0  0  0
 26 27  2  0  0  0
 27 28  1  0  0  0
 28 29  2  0  0  0
 28 30  1  0  0  0
 26 31  1  0  0  0
 10 11  1  0  0  0
 11 12  2  0  0  0
 12 13  1  0  0  0
 13 14  2  0  0  0
 14 15  1  0  0  0
 15 16  2  0  0  0
 16 17  1  0  0  0
 17 18  2  0  0  0
 18 19  1  0  0  0
  6  1  1  0  0  0
 29 24  1  0  0  0
 16 11  1  0  0  0
 19 15  1  0  0  0
 22 23  1  0  0  0
 19 20  1  0  0  0
M  END
>  <minimizedAffinity>
-6.00122

>  <minimizedRMSD>
2.01578

$$$$
CHEMBL2235543 PubChem-25108446


 29 32  0  0  0  0  0  0  0  0999 V2000
   17.1535   -9.6045   13.6864 C   0  0  0  0  0  0  0  0  0  0  0  0
   16.1016   -8.7916   13.4758 N   0  0  0  0  0  0  0  0  0  0  0  0
   15.6020   -9.1334   12.2983 N   0  0  0  0  0  0  0  0  0  0  0  0
   16.3685  -10.1426   11.8449 C   0  0  0  0  0  0  0  0  0  0  0  0
   17.3264  -10.4365   12.6892 O   0  0  0  0  0  0  0  0  0  0  0  0
   18.1849   -9.5494   15.1434 S   0  0  0  0  0  0  0  0  0  0  0  0
   17.0681   -8.3802   15.9753 C   0  0  0  0  0  0  0  0  0  0  0  0
   16.4522   -9.0183   17.2090 C   0  0  0  0  0  0  0  0  0  0  0  0
   14.6790   -7.4432   17.0477 O   0  0  0  0  0  0  0  0  0  0  0  0
   15.4211   -8.1228   17.8054 C   0  0  0  0  0  0  0  0  0  0  0  0
   15.2748   -8.0733   19.2307 N   0  0  0  0  0  0  0  0  0  0  0  0
   15.8946   -8.6281   19.7573 H   0  0  0  0  0  0  0  0  0  0  0  0
   14.3195   -7.2996   19.9689 C   0  0  0  0  0  0  0  0  0  0  0  0
   13.0543   -6.9867   19.4475 C   0  0  0  0  0  0  0  0  0  0  0  0
   12.1484   -6.2304   20.1967 C   0  0  0  0  0  0  0  0  0  0  0  0
   12.5012   -5.7819   21.4722 C   0  0  0  0  0  0  0  0  0  0  0  0
   11.3681   -4.8347   22.4111 Cl  0  0  0  0  0  0  0  0  0  0  0  0
   13.7588   -6.0903   21.9981 C   0  0  0  0  0  0  0  0  0  0  0  0
   14.6636   -6.8469   21.2476 C   0  0  0  0  0  0  0  0  0  0  0  0
   16.1772  -10.8099   10.5273 C   0  0  0  0  0  0  0  0  0  0  0  0
   16.6221   -9.9293    9.4583 N   0  0  0  0  0  0  0  0  0  0  0  0
   15.9141   -9.6364    8.3723 N   0  0  0  0  0  0  0  0  0  0  0  0
   16.5593   -8.7552    7.6075 N   0  0  0  0  0  0  0  0  0  0  0  0
   17.7099   -8.4865    8.2524 C   0  0  0  0  0  0  0  0  0  0  0  0
   18.7323   -7.6169    7.8867 C   0  0  0  0  0  0  0  0  0  0  0  0
   19.8280   -7.5123    8.7669 C   0  0  0  0  0  0  0  0  0  0  0  0
   19.8666   -8.2645    9.9659 C   0  0  0  0  0  0  0  0  0  0  0  0
   18.8109   -9.1339   10.3029 C   0  0  0  0  0  0  0  0  0  0  0  0
   17.7501   -9.2098    9.4036 C   0  0  0  0  0  0  0  0  0  0  0  0
  9 10  2  0  0  0
 10  8  1  0  0  0
 10 11  1  0  0  0
  8  7  1  0  0  0
  7  6  1  0  0  0
  6  1  1  0  0  0
  1  2  2  0  0  0
  2  3  1  0  0  0
  3  4  2  0  0  0
  4 20  1  0  0  0
  4  5  1  0  0  0
 20 21  1  0  0  0
 21 22  1  0  0  0
 22 23  2  0  0  0
 23 24  1  0  0  0
 24 25  2  0  0  0
 25 26  1  0  0  0
 26 27  2  0  0  0
 27 28  1  0  0  0
 28 29  2  0  0  0
 29 21  1  0  0  0
 29 24  1  0  0  0
  5  1  1  0  0  0
 11 13  1  0  0  0
 13 14  2  0  0  0
 14 15  1  0  0  0
 15 16  2  0  0  0
 16 17  1  0  0  0
 16 18  1  0  0  0
 18 19  2  0  0  0
 19 13  1  0  0  0
 11 12  1  0  0  0
M  END
>  <minimizedAffinity>
-7.88549

>  <minimizedRMSD>
2.02015

$$$$
CHEMBL4205880 PubChem-145975395


 38 42  0  0  0  0  0  0  0  0999 V2000
   18.9301   -9.6557   16.6965 C   0  0  0  0  0  0  0  0  0  0  0  0
   18.5406  -11.0799   16.3239 C   0  0  0  0  0  0  0  0  0  0  0  0
   17.0331  -11.2870   16.1419 C   0  0  0  0  0  0  0  0  0  0  0  0
   16.3233  -10.1159   15.6399 N   0  0  0  0  0  0  0  0  0  0  0  0
   16.6140   -9.4538   14.3973 C   0  0  0  0  0  0  0  0  0  0  0  0
   15.7377   -8.7225   13.8593 O   0  0  0  0  0  0  0  0  0  0  0  0
   17.9910   -9.5214   13.8018 C   0  0  0  0  0  0  0  0  0  0  0  0
   18.8606   -8.4583   14.4582 C   0  0  0  0  0  0  0  0  0  0  0  0
   19.7404   -9.0415   15.5619 C   0  0  0  0  0  0  0  0  0  0  0  0
   15.1265   -9.8269   16.4130 C   0  0  0  0  0  0  0  0  0  0  0  0
   15.0352  -10.9174   17.4682 C   0  0  0  0  0  0  0  0  0  0  0  0
   16.3824  -11.6255   17.4693 C   0  0  0  0  0  0  0  0  0  0  0  0
   17.9524   -9.3009   12.3619 N   0  0  0  0  0  0  0  0  0  0  0  0
   17.1698  -10.1055   11.4739 C   0  0  0  0  0  0  0  0  0  0  0  0
   16.5191  -11.0825   11.9360 O   0  0  0  0  0  0  0  0  0  0  0  0
   18.4879   -8.5665   11.9834 H   0  0  0  0  0  0  0  0  0  0  0  0
   17.1137   -9.8276   10.0155 C   0  0  0  0  0  0  0  0  0  0  0  0
   16.0892  -10.3869    9.3099 N   0  0  0  0  0  0  0  0  0  0  0  0
   15.9310  -10.2082    7.9727 C   0  0  0  0  0  0  0  0  0  0  0  0
   16.8332   -9.4252    7.2592 C   0  0  0  0  0  0  0  0  0  0  0  0
   17.8962   -8.8281    7.9308 C   0  0  0  0  0  0  0  0  0  0  0  0
   18.0547   -9.0189    9.3260 C   0  0  0  0  0  0  0  0  0  0  0  0
   19.1350   -8.3940    9.9697 C   0  0  0  0  0  0  0  0  0  0  0  0
   20.0368   -7.6046    9.2517 C   0  0  0  0  0  0  0  0  0  0  0  0
   19.8709   -7.4271    7.8771 C   0  0  0  0  0  0  0  0  0  0  0  0
   18.8022   -8.0374    7.2177 C   0  0  0  0  0  0  0  0  0  0  0  0
   15.2225   -8.4792   17.0556 C   0  0  0  0  0  0  0  0  0  0  0  0
   16.0415   -7.6374   16.5998 O   0  0  0  0  0  0  0  0  0  0  0  0
   14.3986   -8.1532   18.1790 N   0  0  0  0  0  0  0  0  0  0  0  0
   13.7730   -8.8332   18.5188 H   0  0  0  0  0  0  0  0  0  0  0  0
   14.4478   -6.8546   18.8415 C   0  0  0  0  0  0  0  0  0  0  0  0
   13.0415   -6.2722   18.9962 C   0  0  0  0  0  0  0  0  0  0  0  0
   13.0207   -5.8724   20.4145 C   0  0  0  0  0  0  0  0  0  0  0  0
   12.0581   -5.2741   20.9605 O   0  0  0  0  0  0  0  0  0  0  0  0
   14.1636   -6.2251   21.0947 O   0  0  0  0  0  0  0  0  0  0  0  0
   15.0550   -6.9415   20.2615 C   0  0  0  0  0  0  0  0  0  0  0  0
   15.1356   -8.2631   20.7090 O   0  0  0  0  0  0  0  0  0  0  0  0
   14.2493   -8.6572   20.7147 H   0  0  0  0  0  0  0  0  0  0  0  0
  1  2  1  0  0  0
  3  2  1  0  0  0
  3  4  1  0  0  0
  4  5  1  0  0  0
  5  6  2  0  0  0
  5  7  1  0  0  0
  7  8  1  0  0  0
  8  9  1  0  0  0
  7 13  1  0  0  0
 13 14  1  0  0  0
 14 15  2  0  0  0
 14 17  1  0  0  0
 17 18  2  0  0  0
 18 19  1  0  0  0
 19 20  2  0  0  0
 20 21  1  0  0  0
 21 22  2  0  0  0
 22 23  1  0  0  0
 23 24  2  0  0  0
 24 25  1  0  0  0
 25 26  2  0  0  0
  4 10  1  0  0  0
 10 11  1  0  0  0
 11 12  1  0  0  0
 10 27  1  0  0  0
 27 28  2  0  0  0
 27 29  1  0  0  0
 31 29  1  0  0  0
 31 32  1  0  0  0
 32 33  1  0  0  0
 33 34  2  0  0  0
 33 35  1  0  0  0
 35 36  1  0  0  0
 36 37  1  0  0  0
  9  1  1  0  0  0
 22 17  1  0  0  0
 36 31  1  0  0  0
 12  3  1  0  0  0
 26 21  1  0  0  0
 13 16  1  0  0  0
 29 30  1  0  0  0
 37 38  1  0  0  0
M  END
>  <minimizedAffinity>
2.07982

>  <minimizedRMSD>
2.02103

$$$$
CHEMBL3899514 PubChem-132961629


 38 41  0  0  0  0  0  0  0  0999 V2000
   17.1033  -10.1768   12.7394 C   0  0  0  0  0  0  0  0  0  0  0  0
   16.1465   -9.4508   13.4645 C   0  0  0  0  0  0  0  0  0  0  0  0
   16.2655   -9.3137   14.8498 C   0  0  0  0  0  0  0  0  0  0  0  0
   17.3428   -9.8987   15.5226 C   0  0  0  0  0  0  0  0  0  0  0  0
   18.2967  -10.6258   14.8044 C   0  0  0  0  0  0  0  0  0  0  0  0
   18.1759  -10.7636   13.4188 C   0  0  0  0  0  0  0  0  0  0  0  0
   15.8421  -10.2393   10.5088 C   0  0  0  0  0  0  0  0  0  0  0  0
   14.7099  -10.0437   11.0252 O   0  0  0  0  0  0  0  0  0  0  0  0
   17.0229  -10.3280   11.3159 N   0  0  0  0  0  0  0  0  0  0  0  0
   17.8669  -10.5120   10.8437 H   0  0  0  0  0  0  0  0  0  0  0  0
   15.9616  -10.3429    9.0254 C   0  0  0  0  0  0  0  0  0  0  0  0
   19.8810   -9.3850   10.3718 C   0  0  0  0  0  0  0  0  0  0  0  0
   20.5433   -8.2645    9.8645 C   0  0  0  0  0  0  0  0  0  0  0  0
   19.9262   -7.4625    8.9015 C   0  0  0  0  0  0  0  0  0  0  0  0
   18.6444   -7.7786    8.4440 C   0  0  0  0  0  0  0  0  0  0  0  0
   17.9624   -8.9064    8.9524 C   0  0  0  0  0  0  0  0  0  0  0  0
   18.5985   -9.7055    9.9192 C   0  0  0  0  0  0  0  0  0  0  0  0
   16.7021   -9.1953    8.4925 N   0  0  0  0  0  0  0  0  0  0  0  0
   16.1157   -8.4000    7.5422 C   0  0  0  0  0  0  0  0  0  0  0  0
   14.9584   -8.6656    7.1116 O   0  0  0  0  0  0  0  0  0  0  0  0
   16.8059   -7.2839    7.0431 C   0  0  0  0  0  0  0  0  0  0  0  0
   18.0491   -7.0016    7.5066 N   0  0  0  0  0  0  0  0  0  0  0  0
   16.1978   -6.3982    6.0093 C   0  0  0  0  0  0  0  0  0  0  0  0
   17.5017   -9.7266   17.2617 S   0  0  0  0  0  0  0  0  0  0  0  0
   18.0228  -11.0117   17.8391 O   0  0  0  0  0  0  0  0  0  0  0  0
   18.4601   -8.6140   17.5828 O   0  0  0  0  0  0  0  0  0  0  0  0
   15.9626   -9.3720   17.9748 N   0  0  0  0  0  0  0  0  0  0  0  0
   15.2119   -8.2050   17.6373 C   0  0  0  0  0  0  0  0  0  0  0  0
   15.6503   -7.3914   16.7783 O   0  0  0  0  0  0  0  0  0  0  0  0
   13.9560   -7.9717   18.2775 N   0  0  0  0  0  0  0  0  0  0  0  0
   15.5918   -9.9986   18.6375 H   0  0  0  0  0  0  0  0  0  0  0  0
   13.6312   -8.6305   18.9331 H   0  0  0  0  0  0  0  0  0  0  0  0
   13.1354   -6.7991   18.0003 C   0  0  0  0  0  0  0  0  0  0  0  0
   13.1319   -5.8436   19.2004 C   0  0  0  0  0  0  0  0  0  0  0  0
   12.4330   -6.4463   20.4286 C   0  0  0  0  0  0  0  0  0  0  0  0
   11.2710   -7.3842   20.0765 C   0  0  0  0  0  0  0  0  0  0  0  0
   10.6755   -7.0500   18.7143 C   0  0  0  0  0  0  0  0  0  0  0  0
   11.7171   -7.2414   17.6064 C   0  0  0  0  0  0  0  0  0  0  0  0
 12 13  2  0  0  0
 13 14  1  0  0  0
 14 15  2  0  0  0
 15 16  1  0  0  0
 16 17  2  0  0  0
 16 18  1  0  0  0
 18 19  1  0  0  0
 19 20  2  0  0  0
 19 21  1  0  0  0
 21 22  2  0  0  0
 21 23  1  0  0  0
 18 11  1  0  0  0
 11  7  1  0  0  0
  7  8  2  0  0  0
  7  9  1  0  0  0
  9  1  1  0  0  0
  1  2  2  0  0  0
  2  3  1  0  0  0
  3  4  2  0  0  0
  4  5  1  0  0  0
  5  6  2  0  0  0
  4 24  1  0  0  0
 24 25  2  0  0  0
 24 26  2  0  0  0
 24 27  1  0  0  0
 27 28  1  0  0  0
 28 29  2  0  0  0
 28 30  1  0  0  0
 30 33  1  0  0  0
 33 34  1  0  0  0
 34 35  1  0  0  0
 35 36  1  0  0  0
 36 37  1  0  0  0
 37 38  1  0  0  0
 17 12  1  0  0  0
  6  1  1  0  0  0
 38 33  1  0  0  0
 22 15  1  0  0  0
  9 10  1  0  0  0
 27 31  1  0  0  0
 30 32  1  0  0  0
M  END
>  <minimizedAffinity>
2.96024

>  <minimizedRMSD>
2.02185

$$$$
CHEMBL4590081


 32 35  0  0  0  0  0  0  0  0999 V2000
   17.6937  -10.3540   15.8327 C   0  0  0  0  0  0  0  0  0  0  0  0
   19.1490   -9.8854   15.8349 C   0  0  0  0  0  0  0  0  0  0  0  0
   16.8118   -9.2412   16.4382 C   0  0  0  0  0  0  0  0  0  0  0  0
   16.7666   -7.9583   15.5947 C   0  0  0  0  0  0  0  0  0  0  0  0
   17.1847   -8.1555   14.1311 C   0  0  0  0  0  0  0  0  0  0  0  0
   16.7123   -9.4868   13.5293 C   0  0  0  0  0  0  0  0  0  0  0  0
   17.2157  -10.6919   14.3927 C   0  0  0  0  0  0  0  0  0  0  0  0
   18.1253  -11.6912   13.6499 C   0  0  0  0  0  0  0  0  0  0  0  0
   19.2471  -10.9837   12.8902 C   0  0  0  0  0  0  0  0  0  0  0  0
   18.7029   -9.8784   12.0333 C   0  0  0  0  0  0  0  0  0  0  0  0
   19.5156   -9.2203   11.2117 C   0  0  0  0  0  0  0  0  0  0  0  0
   17.2394   -9.5383   12.0681 C   0  0  0  0  0  0  0  0  0  0  0  0
   15.1852   -9.4882   13.5362 C   0  0  0  0  0  0  0  0  0  0  0  0
   15.5077   -9.6964   16.6533 O   0  0  0  0  0  0  0  0  0  0  0  0
   15.0988   -9.9199   15.8026 H   0  0  0  0  0  0  0  0  0  0  0  0
   17.5954  -11.6224   16.6867 C   0  0  0  0  0  0  0  0  0  0  0  0
   17.9945  -11.3804   18.0043 O   0  0  0  0  0  0  0  0  0  0  0  0
   18.9191  -11.0873   18.0134 H   0  0  0  0  0  0  0  0  0  0  0  0
   16.4784  -10.5038   11.1545 C   0  0  0  0  0  0  0  0  0  0  0  0
   15.6465   -9.7391   10.1341 C   0  0  0  0  0  0  0  0  0  0  0  0
   16.3637   -9.6282    8.8722 N   0  0  0  0  0  0  0  0  0  0  0  0
   16.2922  -10.4691    7.8096 C   0  0  0  0  0  0  0  0  0  0  0  0
   17.1555  -10.1221    6.8122 N   0  0  0  0  0  0  0  0  0  0  0  0
   17.7742   -9.0329    7.3064 C   0  0  0  0  0  0  0  0  0  0  0  0
   17.3035   -8.7402    8.5369 C   0  0  0  0  0  0  0  0  0  0  0  0
   17.7736   -7.7066    9.2767 N   0  0  0  0  0  0  0  0  0  0  0  0
   18.7626   -6.9328    8.7344 C   0  0  0  0  0  0  0  0  0  0  0  0
   19.2560   -7.2076    7.4831 N   0  0  0  0  0  0  0  0  0  0  0  0
   18.7781   -8.2551    6.7478 C   0  0  0  0  0  0  0  0  0  0  0  0
   19.3037   -8.5359    5.4554 N   0  0  0  0  0  0  0  0  0  0  0  0
   20.0161   -7.9696    5.0800 H   0  0  0  0  0  0  0  0  0  0  0  0
   18.9549   -9.2966    4.9367 H   0  0  0  0  0  0  0  0  0  0  0  0
 16  1  1  0  0  0
  1  2  1  0  0  0
  1  3  1  0  0  0
  3  4  1  0  0  0
  4  5  1  0  0  0
  5  6  1  0  0  0
  6  7  1  0  0  0
  7  8  1  0  0  0
  8  9  1  0  0  0
  9 10  1  0  0  0
 10 11  2  0  0  0
 10 12  1  0  0  0
 12 19  1  0  0  0
 19 20  1  0  0  0
 20 21  1  0  0  0
 21 22  1  0  0  0
 22 23  2  0  0  0
 23 24  1  0  0  0
 24 25  2  0  0  0
 25 26  1  0  0  0
 26 27  2  0  0  0
 27 28  1  0  0  0
 28 29  2  0  0  0
 29 30  1  0  0  0
  6 13  1  0  0  0
  3 14  1  0  0  0
 16 17  1  0  0  0
  7  1  1  0  0  0
 25 21  1  0  0  0
 12  6  1  0  0  0
 29 24  1  0  0  0
 30 31  1  0  0  0
 30 32  1  0  0  0
 14 15  1  0  0  0
 17 18  1  0  0  0
M  END
>  <minimizedAffinity>
-2.53499

>  <minimizedRMSD>
2.02317

$$$$
CHEMBL1585830 15942603 ChemDiv-G357-0017 MCULE-1466015437 MolPort-007-847-006 PubChem-20952933 ZINC000015942603


 29 31  0  0  0  0  0  0  0  0999 V2000
   17.5544  -10.0476   15.1500 C   0  0  0  0  0  0  0  0  0  0  0  0
   18.4364  -10.8613   15.5419 O   0  0  0  0  0  0  0  0  0  0  0  0
   16.7742   -9.2769   16.1314 C   0  0  0  0  0  0  0  0  0  0  0  0
   15.8262   -8.3416   15.6970 C   0  0  0  0  0  0  0  0  0  0  0  0
   15.0832   -7.6072   16.6251 C   0  0  0  0  0  0  0  0  0  0  0  0
   15.2790   -7.7979   18.0009 C   0  0  0  0  0  0  0  0  0  0  0  0
   16.2243   -8.7333   18.4336 C   0  0  0  0  0  0  0  0  0  0  0  0
   16.9683   -9.4685   17.5064 C   0  0  0  0  0  0  0  0  0  0  0  0
   14.5332   -7.0662   18.9832 N   0  0  0  0  0  0  0  0  0  0  0  0
   13.1608   -6.6507   18.8910 C   0  0  0  0  0  0  0  0  0  0  0  0
   12.5004   -6.8586   17.8358 O   0  0  0  0  0  0  0  0  0  0  0  0
   15.0122   -6.8229   19.8082 H   0  0  0  0  0  0  0  0  0  0  0  0
   12.5391   -5.8868   20.0314 C   0  0  0  0  0  0  0  0  0  0  0  0
   11.6596   -4.7550   19.5254 C   0  0  0  0  0  0  0  0  0  0  0  0
   13.6363   -5.3015   20.8979 C   0  0  0  0  0  0  0  0  0  0  0  0
   11.6807   -6.8070   20.8809 C   0  0  0  0  0  0  0  0  0  0  0  0
   17.3136   -9.8741   13.7852 O   0  0  0  0  0  0  0  0  0  0  0  0
   17.8330  -10.7671   12.8110 C   0  0  0  0  0  0  0  0  0  0  0  0
   17.4932   -8.9705    9.0117 N   0  0  0  0  0  0  0  0  0  0  0  0
   17.5309   -8.3393    7.8405 N   0  0  0  0  0  0  0  0  0  0  0  0
   18.7064   -7.6937    7.6501 C   0  0  0  0  0  0  0  0  0  0  0  0
   19.7645   -7.8885    8.9620 S   0  0  0  0  0  0  0  0  0  0  0  0
   18.6175   -8.8331    9.7458 C   0  0  0  0  0  0  0  0  0  0  0  0
   18.7472   -9.4093   10.9657 N   0  0  0  0  0  0  0  0  0  0  0  0
   17.7182  -10.1530   11.4620 C   0  0  0  0  0  0  0  0  0  0  0  0
   16.5327  -10.3061   10.7242 C   0  0  0  0  0  0  0  0  0  0  0  0
   16.4381   -9.6950    9.4691 C   0  0  0  0  0  0  0  0  0  0  0  0
   15.3899   -9.8163    8.7812 O   0  0  0  0  0  0  0  0  0  0  0  0
   19.0176   -6.9084    6.4276 C   0  0  0  0  0  0  0  0  0  0  0  0
 19 20  1  0  0  0
 20 21  2  0  0  0
 21 22  1  0  0  0
 22 23  1  0  0  0
 23 24  2  0  0  0
 24 25  1  0  0  0
 25 18  1  0  0  0
 18 17  1  0  0  0
 17  1  1  0  0  0
  1  2  2  0  0  0
  1  3  1  0  0  0
  3  4  2  0  0  0
  4  5  1  0  0  0
  5  6  2  0  0  0
  6  7  1  0  0  0
  7  8  2  0  0  0
  6  9  1  0  0  0
  9 10  1  0  0  0
 10 11  2  0  0  0
 10 13  1  0  0  0
 13 14  1  0  0  0
 13 15  1  0  0  0
 13 16  1  0  0  0
 25 26  2  0  0  0
 26 27  1  0  0  0
 27 28  2  0  0  0
 21 29  1  0  0  0
 23 19  1  0  0  0
  8  3  1  0  0  0
 27 19  1  0  0  0
  9 12  1  0  0  0
M  END
>  <minimizedAffinity>
-5.05733

>  <minimizedRMSD>
2.02378

$$$$
CHEMBL2312458 PubChem-71518541


 38 42  0  0  0  0  0  0  0  0999 V2000
   17.1361  -10.4533   13.0129 C   0  0  0  0  0  0  0  0  0  0  0  0
   16.5984   -9.7725   14.2253 C   0  0  0  0  0  0  0  0  0  0  0  0
   16.0178   -8.5047   14.1218 C   0  0  0  0  0  0  0  0  0  0  0  0
   15.5339   -7.8602   15.2639 C   0  0  0  0  0  0  0  0  0  0  0  0
   15.6286   -8.4777   16.5202 C   0  0  0  0  0  0  0  0  0  0  0  0
   16.2167   -9.7475   16.6171 C   0  0  0  0  0  0  0  0  0  0  0  0
   16.7012  -10.3912   15.4750 C   0  0  0  0  0  0  0  0  0  0  0  0
   15.1224   -7.7980   17.7254 C   0  0  0  0  0  0  0  0  0  0  0  0
   14.1865   -6.9593   17.6244 O   0  0  0  0  0  0  0  0  0  0  0  0
   15.6935   -8.1051   19.0063 N   0  0  0  0  0  0  0  0  0  0  0  0
   16.3858   -8.8050   19.0223 H   0  0  0  0  0  0  0  0  0  0  0  0
   15.3634   -7.5009   20.2667 C   0  0  0  0  0  0  0  0  0  0  0  0
   14.0741   -7.6030   20.8143 C   0  0  0  0  0  0  0  0  0  0  0  0
   13.7730   -7.0019   22.0390 C   0  0  0  0  0  0  0  0  0  0  0  0
   14.7588   -6.2923   22.7290 C   0  0  0  0  0  0  0  0  0  0  0  0
   16.0441   -6.1827   22.1923 C   0  0  0  0  0  0  0  0  0  0  0  0
   16.3485   -6.7812   20.9651 C   0  0  0  0  0  0  0  0  0  0  0  0
   17.6659   -6.6576   20.4361 N   0  0  0  0  0  0  0  0  0  0  0  0
   18.3498   -6.1517   20.9316 H   0  0  0  0  0  0  0  0  0  0  0  0
   17.8920   -7.0780   19.5751 H   0  0  0  0  0  0  0  0  0  0  0  0
   18.5520  -10.1525   12.8538 N   0  0  0  0  0  0  0  0  0  0  0  0
   19.1867  -10.5038   13.5194 H   0  0  0  0  0  0  0  0  0  0  0  0
   18.9597   -8.7085    9.4922 C   0  0  0  0  0  0  0  0  0  0  0  0
   20.0565   -7.8657    9.6962 C   0  0  0  0  0  0  0  0  0  0  0  0
   20.6322   -7.8049   10.9639 C   0  0  0  0  0  0  0  0  0  0  0  0
   20.1269   -8.5559   11.9754 N   0  0  0  0  0  0  0  0  0  0  0  0
   19.0586   -9.3688   11.7718 C   0  0  0  0  0  0  0  0  0  0  0  0
   18.4887   -9.4404   10.5381 N   0  0  0  0  0  0  0  0  0  0  0  0
   16.1852  -10.1184    8.8115 C   0  0  0  0  0  0  0  0  0  0  0  0
   17.1016   -9.4360    7.8553 C   0  0  0  0  0  0  0  0  0  0  0  0
   16.8402   -9.3488    6.5292 N   0  0  0  0  0  0  0  0  0  0  0  0
   17.9068   -8.6778    6.0547 C   0  0  0  0  0  0  0  0  0  0  0  0
   18.0959   -8.3495    4.7526 N   0  0  0  0  0  0  0  0  0  0  0  0
   19.2248   -7.6688    4.4002 C   0  0  0  0  0  0  0  0  0  0  0  0
   20.1781   -7.3132    5.3715 C   0  0  0  0  0  0  0  0  0  0  0  0
   19.9463   -7.6715    6.7053 C   0  0  0  0  0  0  0  0  0  0  0  0
   18.8059   -8.3476    6.9955 N   0  0  0  0  0  0  0  0  0  0  0  0
   18.3162   -8.8198    8.1587 C   0  0  0  0  0  0  0  0  0  0  0  0
 29 30  1  0  0  0
 30 31  1  0  0  0
 31 32  2  0  0  0
 32 33  1  0  0  0
 33 34  2  0  0  0
 34 35  1  0  0  0
 35 36  2  0  0  0
 36 37  1  0  0  0
 37 38  1  0  0  0
 37 32  1  0  0  0
 38 23  1  0  0  0
 38 30  2  0  0  0
 23 24  2  0  0  0
 24 25  1  0  0  0
 25 26  2  0  0  0
 26 27  1  0  0  0
 27 21  1  0  0  0
 27 28  2  0  0  0
 21  1  1  0  0  0
  1  2  1  0  0  0
  2  3  2  0  0  0
  3  4  1  0  0  0
  4  5  2  0  0  0
  5  8  1  0  0  0
  5  6  1  0  0  0
  8  9  2  0  0  0
  8 10  1  0  0  0
 10 12  1  0  0  0
 12 13  2  0  0  0
 13 14  1  0  0  0
 14 15  2  0  0  0
 15 16  1  0  0  0
 16 17  2  0  0  0
 17 18  1  0  0  0
 17 12  1  0  0  0
  6  7  2  0  0  0
  7  2  1  0  0  0
 28 23  1  0  0  0
 21 22  1  0  0  0
 10 11  1  0  0  0
 18 19  1  0  0  0
 18 20  1  0  0  0
M  END
>  <minimizedAffinity>
-2.91300

>  <minimizedRMSD>
2.02711

$$$$
CHEMBL1304001 LN00859995


 34 37  0  0  0  0  0  0  0  0999 V2000
   16.4114   -9.8181   14.7644 N   0  0  0  0  0  0  0  0  0  0  0  0
   17.4256  -10.6875   14.9105 C   0  0  0  0  0  0  0  0  0  0  0  0
   17.8889  -10.6978   16.1747 N   0  0  0  0  0  0  0  0  0  0  0  0
   17.1604   -9.8255   16.8584 N   0  0  0  0  0  0  0  0  0  0  0  0
   16.2707   -9.2932   15.9956 C   0  0  0  0  0  0  0  0  0  0  0  0
   15.8469   -8.1426   13.0810 C   0  0  0  0  0  0  0  0  0  0  0  0
   15.6210   -9.5618   13.5673 C   0  0  0  0  0  0  0  0  0  0  0  0
   15.2175   -8.2999   16.3797 C   0  0  0  0  0  0  0  0  0  0  0  0
   13.8461   -8.8650   16.0679 C   0  0  0  0  0  0  0  0  0  0  0  0
   15.3009   -7.9839   17.7993 N   0  0  0  0  0  0  0  0  0  0  0  0
   14.2950   -7.2421   18.4975 C   0  0  0  0  0  0  0  0  0  0  0  0
   13.2667   -6.8512   17.8789 O   0  0  0  0  0  0  0  0  0  0  0  0
   16.0873   -8.2956   18.3031 H   0  0  0  0  0  0  0  0  0  0  0  0
   14.4461   -6.9312   19.9378 C   0  0  0  0  0  0  0  0  0  0  0  0
   13.2941   -6.7018   20.7071 C   0  0  0  0  0  0  0  0  0  0  0  0
   13.3905   -6.4074   22.0694 C   0  0  0  0  0  0  0  0  0  0  0  0
   14.6428   -6.3379   22.6812 C   0  0  0  0  0  0  0  0  0  0  0  0
   15.7982   -6.5617   21.9300 C   0  0  0  0  0  0  0  0  0  0  0  0
   15.7092   -6.8562   20.5654 C   0  0  0  0  0  0  0  0  0  0  0  0
   16.8575   -7.0674   19.8761 F   0  0  0  0  0  0  0  0  0  0  0  0
   18.0834  -11.7159   13.6014 S   0  0  0  0  0  0  0  0  0  0  0  0
   19.0228  -10.3314   12.8929 C   0  0  0  0  0  0  0  0  0  0  0  0
   18.4561   -9.9501   11.5710 C   0  0  0  0  0  0  0  0  0  0  0  0
   17.2652  -10.4674   11.1640 N   0  0  0  0  0  0  0  0  0  0  0  0
   16.7201  -10.1259    9.9666 C   0  0  0  0  0  0  0  0  0  0  0  0
   15.5023  -10.6786    9.5835 O   0  0  0  0  0  0  0  0  0  0  0  0
   17.3901   -9.2232    9.1340 C   0  0  0  0  0  0  0  0  0  0  0  0
   16.8720   -8.8386    7.8910 C   0  0  0  0  0  0  0  0  0  0  0  0
   17.5761   -7.9326    7.0922 C   0  0  0  0  0  0  0  0  0  0  0  0
   18.7967   -7.4096    7.5317 C   0  0  0  0  0  0  0  0  0  0  0  0
   19.3188   -7.7898    8.7721 C   0  0  0  0  0  0  0  0  0  0  0  0
   18.6203   -8.6953    9.5757 C   0  0  0  0  0  0  0  0  0  0  0  0
   19.1229   -9.0680   10.7807 N   0  0  0  0  0  0  0  0  0  0  0  0
   15.0628  -11.2821   10.1497 H   0  0  0  0  0  0  0  0  0  0  0  0
  6  7  1  0  0  0
  7  1  1  0  0  0
  1  2  1  0  0  0
  2 21  1  0  0  0
  2  3  2  0  0  0
 21 22  1  0  0  0
 22 23  1  0  0  0
 23 24  2  0  0  0
 24 25  1  0  0  0
 25 26  1  0  0  0
 25 27  2  0  0  0
 27 28  1  0  0  0
 28 29  2  0  0  0
 29 30  1  0  0  0
 30 31  2  0  0  0
 31 32  1  0  0  0
 32 33  2  0  0  0
 32 27  1  0  0  0
 33 23  1  0  0  0
  3  4  1  0  0  0
  4  5  2  0  0  0
  5  1  1  0  0  0
  8  5  1  0  0  0
  8  9  1  0  0  0
  8 10  1  0  0  0
 10 11  1  0  0  0
 11 12  2  0  0  0
 11 14  1  0  0  0
 14 15  2  0  0  0
 15 16  1  0  0  0
 16 17  2  0  0  0
 17 18  1  0  0  0
 18 19  2  0  0  0
 19 20  1  0  0  0
 19 14  1  0  0  0
 26 34  1  0  0  0
 10 13  1  0  0  0
M  END
>  <minimizedAffinity>
-5.99458

>  <minimizedRMSD>
2.02743

$$$$
CHEMBL2235548 PubChem-25108337


 29 32  0  0  0  0  0  0  0  0999 V2000
   17.6900   -9.8831   13.6731 C   0  0  0  0  0  0  0  0  0  0  0  0
   16.7112   -8.9606   13.6254 N   0  0  0  0  0  0  0  0  0  0  0  0
   16.0420   -9.1916   12.5066 N   0  0  0  0  0  0  0  0  0  0  0  0
   16.6392  -10.2475   11.9237 C   0  0  0  0  0  0  0  0  0  0  0  0
   17.6546  -10.6774   12.6318 O   0  0  0  0  0  0  0  0  0  0  0  0
   18.8886  -10.0032   14.9916 S   0  0  0  0  0  0  0  0  0  0  0  0
   18.0669   -8.6960   15.9517 C   0  0  0  0  0  0  0  0  0  0  0  0
   17.1296   -9.3017   16.9826 C   0  0  0  0  0  0  0  0  0  0  0  0
   15.4307   -7.7983   16.2724 O   0  0  0  0  0  0  0  0  0  0  0  0
   15.9736   -8.3967   17.2388 C   0  0  0  0  0  0  0  0  0  0  0  0
   15.4844   -8.2455   18.5776 N   0  0  0  0  0  0  0  0  0  0  0  0
   15.9657   -8.7377   19.2814 H   0  0  0  0  0  0  0  0  0  0  0  0
   14.3668   -7.4516   18.9981 C   0  0  0  0  0  0  0  0  0  0  0  0
   13.3307   -7.1015   18.1183 C   0  0  0  0  0  0  0  0  0  0  0  0
   12.2555   -6.3278   18.5648 C   0  0  0  0  0  0  0  0  0  0  0  0
   12.2088   -5.8993   19.8940 C   0  0  0  0  0  0  0  0  0  0  0  0
   10.7440   -4.8449   20.5041 Br  0  0  0  0  0  0  0  0  0  0  0  0
   13.2365   -6.2446   20.7756 C   0  0  0  0  0  0  0  0  0  0  0  0
   14.3113   -7.0184   20.3276 C   0  0  0  0  0  0  0  0  0  0  0  0
   16.2234  -10.8255   10.6157 C   0  0  0  0  0  0  0  0  0  0  0  0
   16.6211   -9.9372    9.5346 N   0  0  0  0  0  0  0  0  0  0  0  0
   15.8656   -9.6352    8.4839 N   0  0  0  0  0  0  0  0  0  0  0  0
   16.4756   -8.7466    7.6993 N   0  0  0  0  0  0  0  0  0  0  0  0
   17.6535   -8.4824    8.2950 C   0  0  0  0  0  0  0  0  0  0  0  0
   18.6578   -7.6080    7.8925 C   0  0  0  0  0  0  0  0  0  0  0  0
   19.7912   -7.5098    8.7245 C   0  0  0  0  0  0  0  0  0  0  0  0
   19.8831   -8.2723    9.9140 C   0  0  0  0  0  0  0  0  0  0  0  0
   18.8439   -9.1460   10.2896 C   0  0  0  0  0  0  0  0  0  0  0  0
   17.7451   -9.2160    9.4368 C   0  0  0  0  0  0  0  0  0  0  0  0
  9 10  2  0  0  0
 10  8  1  0  0  0
 10 11  1  0  0  0
  8  7  1  0  0  0
  7  6  1  0  0  0
  6  1  1  0  0  0
  1  2  2  0  0  0
  2  3  1  0  0  0
  3  4  2  0  0  0
  4 20  1  0  0  0
  4  5  1  0  0  0
 20 21  1  0  0  0
 21 22  1  0  0  0
 22 23  2  0  0  0
 23 24  1  0  0  0
 24 25  2  0  0  0
 25 26  1  0  0  0
 26 27  2  0  0  0
 27 28  1  0  0  0
 28 29  2  0  0  0
 29 21  1  0  0  0
 29 24  1  0  0  0
  5  1  1  0  0  0
 11 13  1  0  0  0
 13 14  2  0  0  0
 14 15  1  0  0  0
 15 16  2  0  0  0
 16 17  1  0  0  0
 16 18  1  0  0  0
 18 19  2  0  0  0
 19 13  1  0  0  0
 11 12  1  0  0  0
M  END
>  <minimizedAffinity>
-8.26740

>  <minimizedRMSD>
2.03308

$$$$
CHEMBL4864700 PubChem-164621721


 41 45  0  0  0  0  0  0  0  0999 V2000
   17.3388   -9.8464   10.9368 C   0  0  0  0  0  0  0  0  0  0  0  0
   16.0890  -10.2594   10.5915 N   0  0  0  0  0  0  0  0  0  0  0  0
   15.5320   -9.9421    9.3901 C   0  0  0  0  0  0  0  0  0  0  0  0
   16.2421   -9.1899    8.5048 N   0  0  0  0  0  0  0  0  0  0  0  0
   17.4923   -8.7507    8.7957 C   0  0  0  0  0  0  0  0  0  0  0  0
   18.1985   -7.9799    7.8678 C   0  0  0  0  0  0  0  0  0  0  0  0
   19.4869   -7.5285    8.1705 C   0  0  0  0  0  0  0  0  0  0  0  0
   20.0720   -7.8463    9.4004 C   0  0  0  0  0  0  0  0  0  0  0  0
   19.3707   -8.6170   10.3329 C   0  0  0  0  0  0  0  0  0  0  0  0
   18.0790   -9.0726   10.0356 C   0  0  0  0  0  0  0  0  0  0  0  0
   14.2021  -10.3981    9.0576 N   0  0  0  0  0  0  0  0  0  0  0  0
   13.1551  -10.6045    9.9034 C   0  0  0  0  0  0  0  0  0  0  0  0
   12.0173  -11.0476    9.2338 C   0  0  0  0  0  0  0  0  0  0  0  0
   12.4145  -11.1071    7.9129 C   0  0  0  0  0  0  0  0  0  0  0  0
   11.6866  -11.4875    6.7825 C   0  0  0  0  0  0  0  0  0  0  0  0
   12.3510  -11.4538    5.5398 C   0  0  0  0  0  0  0  0  0  0  0  0
   13.6982  -11.0500    5.4557 C   0  0  0  0  0  0  0  0  0  0  0  0
   14.4022  -10.6736    6.6111 C   0  0  0  0  0  0  0  0  0  0  0  0
   13.7273  -10.7132    7.8343 C   0  0  0  0  0  0  0  0  0  0  0  0
   13.1877  -10.3909   11.3791 C   0  0  0  0  0  0  0  0  0  0  0  0
   10.3157  -11.8925    6.9113 N   0  0  0  0  0  0  0  0  0  0  0  0
    9.3788  -12.0860    5.8447 C   0  0  0  0  0  0  0  0  0  0  0  0
    9.7084  -11.9043    4.6431 O   0  0  0  0  0  0  0  0  0  0  0  0
    9.9857  -12.0536    7.8248 H   0  0  0  0  0  0  0  0  0  0  0  0
    8.0384  -12.4951    6.1532 C   0  0  0  0  0  0  0  0  0  0  0  0
    6.9128  -12.8393    6.4127 C   0  0  0  0  0  0  0  0  0  0  0  0
    5.5467  -13.2572    6.7278 C   0  0  0  0  0  0  0  0  0  0  0  0
   17.8868  -10.2014   12.2093 N   0  0  0  0  0  0  0  0  0  0  0  0
   18.8599  -10.1358   12.3437 H   0  0  0  0  0  0  0  0  0  0  0  0
   17.0537  -10.6562   13.3111 C   0  0  0  0  0  0  0  0  0  0  0  0
   16.8567   -8.6937   16.5442 C   0  0  0  0  0  0  0  0  0  0  0  0
   16.4818   -9.3695   15.3771 C   0  0  0  0  0  0  0  0  0  0  0  0
   17.4542   -9.9605   14.5633 C   0  0  0  0  0  0  0  0  0  0  0  0
   18.8061   -9.8648   14.9093 C   0  0  0  0  0  0  0  0  0  0  0  0
   19.1838   -9.1904   16.0740 C   0  0  0  0  0  0  0  0  0  0  0  0
   18.2104   -8.6066   16.8907 C   0  0  0  0  0  0  0  0  0  0  0  0
   15.7678   -8.0366   17.4555 B   0  0  0  0  0  0  0  0  0  0  0  0
   14.5711   -7.4452   16.8617 O   0  0  0  0  0  0  0  0  0  0  0  0
   15.9409   -8.0099   18.9059 O   0  0  0  0  0  0  0  0  0  0  0  0
   14.6064   -7.5434   15.8973 H   0  0  0  0  0  0  0  0  0  0  0  0
   16.7789   -8.4391   19.1394 H   0  0  0  0  0  0  0  0  0  0  0  0
 37 31  1  0  0  0
 31 32  2  0  0  0
 32 33  1  0  0  0
 33 34  2  0  0  0
 34 35  1  0  0  0
 35 36  2  0  0  0
 33 30  1  0  0  0
 30 28  1  0  0  0
 28  1  1  0  0  0
  1  2  2  0  0  0
  2  3  1  0  0  0
  3  4  2  0  0  0
  4  5  1  0  0  0
  5  6  2  0  0  0
  6  7  1  0  0  0
  7  8  2  0  0  0
  8  9  1  0  0  0
  9 10  2  0  0  0
  3 11  1  0  0  0
 11 12  1  0  0  0
 12 13  2  0  0  0
 13 14  1  0  0  0
 14 15  2  0  0  0
 15 16  1  0  0  0
 16 17  2  0  0  0
 17 18  1  0  0  0
 18 19  2  0  0  0
 15 21  1  0  0  0
 21 22  1  0  0  0
 22 23  2  0  0  0
 22 25  1  0  0  0
 25 26  3  0  0  0
 26 27  1  0  0  0
 12 20  1  0  0  0
 37 38  1  0  0  0
 37 39  1  0  0  0
 36 31  1  0  0  0
 10  1  1  0  0  0
 10  5  1  0  0  0
 19 11  1  0  0  0
 19 14  1  0  0  0
 28 29  1  0  0  0
 21 24  1  0  0  0
 38 40  1  0  0  0
 39 41  1  0  0  0
M  END
>  <minimizedAffinity>
27.03214

>  <minimizedRMSD>
2.03403

$$$$
CHEMBL3485100 67966966 MCULE-3849417530 MolPort-019-823-587 PubChem-56722046 ZINC000067966966


 26 29  0  0  0  0  0  0  0  0999 V2000
   16.8295   -8.9644   12.9466 N   0  0  0  0  0  0  0  0  0  0  0  0
   16.0297   -8.0491   13.7698 C   0  0  0  0  0  0  0  0  0  0  0  0
   16.6464   -7.7999   15.1433 C   0  0  0  0  0  0  0  0  0  0  0  0
   16.6078   -9.0153   15.9505 N   0  0  0  0  0  0  0  0  0  0  0  0
   17.1341  -10.2328   15.6926 C   0  0  0  0  0  0  0  0  0  0  0  0
   17.8123  -10.6603   14.4207 C   0  0  0  0  0  0  0  0  0  0  0  0
   18.0873   -9.5110   13.4598 C   0  0  0  0  0  0  0  0  0  0  0  0
   16.9011  -11.0854   16.7092 N   0  0  0  0  0  0  0  0  0  0  0  0
   16.2330  -10.4150   17.6377 N   0  0  0  0  0  0  0  0  0  0  0  0
   16.0600   -9.1646   17.1693 C   0  0  0  0  0  0  0  0  0  0  0  0
   16.2649   -9.4381   11.7067 C   0  0  0  0  0  0  0  0  0  0  0  0
   14.9718   -9.8827   11.6825 N   0  0  0  0  0  0  0  0  0  0  0  0
   14.3825  -10.3436   10.5397 C   0  0  0  0  0  0  0  0  0  0  0  0
   12.9749  -10.8184   10.5736 C   0  0  0  0  0  0  0  0  0  0  0  0
   15.0773  -10.3674    9.3693 N   0  0  0  0  0  0  0  0  0  0  0  0
   16.3563   -9.9263    9.3657 C   0  0  0  0  0  0  0  0  0  0  0  0
   17.3859   -9.8330    8.0541 S   0  0  0  0  0  0  0  0  0  0  0  0
   18.6818   -9.1668    8.9187 C   0  0  0  0  0  0  0  0  0  0  0  0
   18.2933   -9.0176   10.2544 C   0  0  0  0  0  0  0  0  0  0  0  0
   16.9836   -9.4542   10.4974 C   0  0  0  0  0  0  0  0  0  0  0  0
   15.3632   -8.0820   17.9278 C   0  0  0  0  0  0  0  0  0  0  0  0
   16.1603   -7.6750   19.0766 N   0  0  0  0  0  0  0  0  0  0  0  0
   15.5863   -7.1204   20.2618 C   0  0  0  0  0  0  0  0  0  0  0  0
   16.4715   -6.6992   21.3783 C   0  0  0  0  0  0  0  0  0  0  0  0
   14.3386   -6.9889   20.3725 O   0  0  0  0  0  0  0  0  0  0  0  0
   17.1376   -7.7869   19.0348 H   0  0  0  0  0  0  0  0  0  0  0  0
 11  1  1  0  0  0
  1  2  1  0  0  0
  2  3  1  0  0  0
  3  4  1  0  0  0
  4  5  1  0  0  0
  5  6  1  0  0  0
  6  7  1  0  0  0
  5  8  2  0  0  0
  8  9  1  0  0  0
  9 10  2  0  0  0
 10 21  1  0  0  0
 21 22  1  0  0  0
 22 23  1  0  0  0
 23 24  1  0  0  0
 23 25  2  0  0  0
 11 12  2  0  0  0
 12 13  1  0  0  0
 13 14  1  0  0  0
 13 15  2  0  0  0
 15 16  1  0  0  0
 16 17  1  0  0  0
 17 18  1  0  0  0
 18 19  2  0  0  0
 19 20  1  0  0  0
 20 11  1  0  0  0
  7  1  1  0  0  0
 20 16  2  0  0  0
 10  4  1  0  0  0
 22 26  1  0  0  0
M  END
>  <minimizedAffinity>
-3.21131

>  <minimizedRMSD>
2.03468

$$$$
CHEMBL325776


 39 42  0  0  0  0  0  0  0  0999 V2000
   16.4250  -10.4118   11.8712 C   0  0  0  0  0  0  0  0  0  0  0  0
   17.5954  -10.3152   12.5562 N   0  0  0  0  0  0  0  0  0  0  0  0
   17.2114   -9.7739   13.7282 C   0  0  0  0  0  0  0  0  0  0  0  0
   18.0157   -9.4558   14.8180 C   0  0  0  0  0  0  0  0  0  0  0  0
   17.3884   -8.8874   15.9420 C   0  0  0  0  0  0  0  0  0  0  0  0
   15.9914   -8.6481   15.9561 C   0  0  0  0  0  0  0  0  0  0  0  0
   15.2110   -8.9849   14.8290 C   0  0  0  0  0  0  0  0  0  0  0  0
   15.8659   -9.5486   13.7358 C   0  0  0  0  0  0  0  0  0  0  0  0
   15.3560   -9.9467   12.5640 N   0  0  0  0  0  0  0  0  0  0  0  0
   13.9680   -9.8856   12.1323 C   0  0  0  0  0  0  0  0  0  0  0  0
   15.3578   -8.0495   17.1430 C   0  0  0  0  0  0  0  0  0  0  0  0
   14.4541   -7.1797   17.0060 O   0  0  0  0  0  0  0  0  0  0  0  0
   15.7617   -8.4600   18.4530 N   0  0  0  0  0  0  0  0  0  0  0  0
   16.4509   -9.1579   18.5382 H   0  0  0  0  0  0  0  0  0  0  0  0
   15.1936   -7.8863   19.6661 C   0  0  0  0  0  0  0  0  0  0  0  0
   13.8665   -7.2667   19.3700 C   0  0  0  0  0  0  0  0  0  0  0  0
   13.7531   -6.0170   19.2584 O   0  0  0  0  0  0  0  0  0  0  0  0
   12.7512   -8.0765   19.2082 O   0  0  0  0  0  0  0  0  0  0  0  0
   12.8316   -9.0064   19.2904 H   0  0  0  0  0  0  0  0  0  0  0  0
   16.1388   -6.8431   20.2421 C   0  0  0  0  0  0  0  0  0  0  0  0
   15.8851   -6.6651   22.0340 P   0  0  0  0  0  0  0  0  0  0  0  0
   15.1807   -5.3586   22.3204 O   0  0  0  0  0  0  0  0  0  0  0  0
   14.9481   -7.9484   22.6134 O   0  0  0  0  0  0  0  0  0  0  0  0
   17.3866   -6.6738   22.8112 O   0  0  0  0  0  0  0  0  0  0  0  0
   14.0859   -7.9456   22.1689 H   0  0  0  0  0  0  0  0  0  0  0  0
   17.9261   -5.9385   22.4806 H   0  0  0  0  0  0  0  0  0  0  0  0
   16.3519  -10.9234   10.4703 C   0  0  0  0  0  0  0  0  0  0  0  0
   19.0738   -7.7040    6.3123 C   0  0  0  0  0  0  0  0  0  0  0  0
   19.5663   -6.9987    7.4348 C   0  0  0  0  0  0  0  0  0  0  0  0
   19.2145   -7.3833    8.7417 C   0  0  0  0  0  0  0  0  0  0  0  0
   18.3681   -8.4793    8.8799 C   0  0  0  0  0  0  0  0  0  0  0  0
   17.9002   -9.0133   10.0167 N   0  0  0  0  0  0  0  0  0  0  0  0
   17.1338  -10.0390    9.5612 C   0  0  0  0  0  0  0  0  0  0  0  0
   17.0932  -10.1634    8.2090 N   0  0  0  0  0  0  0  0  0  0  0  0
   17.8891   -9.1634    7.8057 C   0  0  0  0  0  0  0  0  0  0  0  0
   18.2151   -8.8118    6.4991 C   0  0  0  0  0  0  0  0  0  0  0  0
   18.0688   -8.7336   10.9454 H   0  0  0  0  0  0  0  0  0  0  0  0
   19.0775   -7.9797    3.8548 C   0  0  0  0  0  0  0  0  0  0  0  0
   19.4489   -7.2805    5.0348 O   0  0  0  0  0  0  0  0  0  0  0  0
 38 39  1  0  0  0
 39 28  1  0  0  0
 28 29  2  0  0  0
 29 30  1  0  0  0
 30 31  2  0  0  0
 31 32  1  0  0  0
 32 33  1  0  0  0
 33 27  1  0  0  0
 33 34  2  0  0  0
 27  1  1  0  0  0
  1  2  2  0  0  0
  2  3  1  0  0  0
  3  4  2  0  0  0
  4  5  1  0  0  0
  5  6  2  0  0  0
  6 11  1  0  0  0
  6  7  1  0  0  0
 11 12  2  0  0  0
 11 13  1  0  0  0
 15 13  1  0  0  0
 15 20  1  0  0  0
 15 16  1  0  0  0
 20 21  1  0  0  0
 21 22  2  0  0  0
 21 23  1  0  0  0
 21 24  1  0  0  0
 16 17  2  0  0  0
 16 18  1  0  0  0
  7  8  2  0  0  0
  8  9  1  0  0  0
  8  3  1  0  0  0
  9 10  1  0  0  0
  9  1  1  0  0  0
 34 35  1  0  0  0
 35 36  2  0  0  0
 35 31  1  0  0  0
 36 28  1  0  0  0
 32 37  1  0  0  0
 13 14  1  0  0  0
 23 25  1  0  0  0
 24 26  1  0  0  0
 18 19  1  0  0  0
M  END
>  <minimizedAffinity>
-6.30221

>  <minimizedRMSD>
2.03511

$$$$
CHEMBL5276339 PubChem-86706474


 32 35  0  0  0  0  0  0  0  0999 V2000
   18.9035  -11.2053   15.3756 C   0  0  0  0  0  0  0  0  0  0  0  0
   17.6455  -12.0260   15.6384 C   0  0  0  0  0  0  0  0  0  0  0  0
   16.4215  -11.1666   15.9720 C   0  0  0  0  0  0  0  0  0  0  0  0
   16.4083   -9.8992   15.2424 N   0  0  0  0  0  0  0  0  0  0  0  0
   16.6318   -9.9037   13.8017 C   0  0  0  0  0  0  0  0  0  0  0  0
   18.1122   -9.6544   13.5182 C   0  0  0  0  0  0  0  0  0  0  0  0
   18.9925  -10.8496   13.8942 C   0  0  0  0  0  0  0  0  0  0  0  0
   16.2818   -8.6546   15.9501 C   0  0  0  0  0  0  0  0  0  0  0  0
   16.2530   -7.5651   15.3175 O   0  0  0  0  0  0  0  0  0  0  0  0
   18.3112   -9.2949   12.1177 N   0  0  0  0  0  0  0  0  0  0  0  0
   19.1500   -8.8391   11.8772 H   0  0  0  0  0  0  0  0  0  0  0  0
   17.3717   -9.5585   11.0677 C   0  0  0  0  0  0  0  0  0  0  0  0
   16.2325  -10.2794   11.2952 N   0  0  0  0  0  0  0  0  0  0  0  0
   15.3363  -10.5296   10.2896 C   0  0  0  0  0  0  0  0  0  0  0  0
   15.5637  -10.0599    9.0268 N   0  0  0  0  0  0  0  0  0  0  0  0
   16.6923   -9.3450    8.7988 C   0  0  0  0  0  0  0  0  0  0  0  0
   17.5922   -9.0861    9.7798 C   0  0  0  0  0  0  0  0  0  0  0  0
   18.6162   -8.3470    9.2358 C   0  0  0  0  0  0  0  0  0  0  0  0
   18.2442   -8.2035    7.8949 C   0  0  0  0  0  0  0  0  0  0  0  0
   17.0628   -8.8162    7.6258 N   0  0  0  0  0  0  0  0  0  0  0  0
   16.5873   -8.8613    6.7649 H   0  0  0  0  0  0  0  0  0  0  0  0
   16.2228   -8.6210   17.4407 C   0  0  0  0  0  0  0  0  0  0  0  0
   15.0727   -7.8365   17.8635 N   0  0  0  0  0  0  0  0  0  0  0  0
   14.3519   -7.6710   17.2137 H   0  0  0  0  0  0  0  0  0  0  0  0
   14.9426   -7.2954   19.1796 C   0  0  0  0  0  0  0  0  0  0  0  0
   16.0666   -7.2432   20.0106 C   0  0  0  0  0  0  0  0  0  0  0  0
   15.9631   -6.7206   21.3031 C   0  0  0  0  0  0  0  0  0  0  0  0
   14.7335   -6.2479   21.7703 C   0  0  0  0  0  0  0  0  0  0  0  0
   13.6068   -6.2978   20.9449 C   0  0  0  0  0  0  0  0  0  0  0  0
   13.7099   -6.8204   19.6525 C   0  0  0  0  0  0  0  0  0  0  0  0
   12.0670   -5.7067   21.5292 Cl  0  0  0  0  0  0  0  0  0  0  0  0
   17.3739   -6.6585   22.3368 Cl  0  0  0  0  0  0  0  0  0  0  0  0
  1  2  1  0  0  0
  2  3  1  0  0  0
  3  4  1  0  0  0
  4  5  1  0  0  0
  5  6  1  0  0  0
  6  7  1  0  0  0
  6 10  1  0  0  0
 10 12  1  0  0  0
 12 13  2  0  0  0
 13 14  1  0  0  0
 14 15  2  0  0  0
 15 16  1  0  0  0
 16 17  2  0  0  0
 17 18  1  0  0  0
 18 19  2  0  0  0
 19 20  1  0  0  0
  4  8  1  0  0  0
  8  9  2  0  0  0
  8 22  1  0  0  0
 22 23  1  0  0  0
 23 25  1  0  0  0
 25 26  2  0  0  0
 26 27  1  0  0  0
 27 28  2  0  0  0
 28 29  1  0  0  0
 29 30  2  0  0  0
 29 31  1  0  0  0
 27 32  1  0  0  0
  7  1  1  0  0  0
 17 12  1  0  0  0
 20 16  1  0  0  0
 30 25  1  0  0  0
 10 11  1  0  0  0
 20 21  1  0  0  0
 23 24  1  0  0  0
M  END
>  <minimizedAffinity>
-7.97070

>  <minimizedRMSD>
2.03579

$$$$
CHEMBL1405432


 31 34  0  0  0  0  0  0  0  0999 V2000
   16.4380  -10.0910   16.2434 S   0  0  0  0  0  0  0  0  0  0  0  0
   17.0753  -10.0421   14.5754 C   0  0  0  0  0  0  0  0  0  0  0  0
   16.3293   -9.9700   13.5006 O   0  0  0  0  0  0  0  0  0  0  0  0
   17.1819   -9.9578   12.5045 C   0  0  0  0  0  0  0  0  0  0  0  0
   18.4530  -10.0224   12.9463 N   0  0  0  0  0  0  0  0  0  0  0  0
   18.3846  -10.0765   14.2674 N   0  0  0  0  0  0  0  0  0  0  0  0
   16.7954   -9.8828   11.0909 C   0  0  0  0  0  0  0  0  0  0  0  0
   15.6829  -10.4593   10.5782 N   0  0  0  0  0  0  0  0  0  0  0  0
   15.6239  -10.2051    9.2734 N   0  0  0  0  0  0  0  0  0  0  0  0
   16.7024   -9.4659    8.9612 C   0  0  0  0  0  0  0  0  0  0  0  0
   17.4633   -9.2413   10.0730 C   0  0  0  0  0  0  0  0  0  0  0  0
   18.6424   -8.5000   10.0313 C   0  0  0  0  0  0  0  0  0  0  0  0
   19.0309   -7.9804    8.7823 C   0  0  0  0  0  0  0  0  0  0  0  0
   18.2447   -8.2118    7.6306 C   0  0  0  0  0  0  0  0  0  0  0  0
   17.0586   -8.9663    7.7114 C   0  0  0  0  0  0  0  0  0  0  0  0
   15.0234  -10.9825   11.0887 H   0  0  0  0  0  0  0  0  0  0  0  0
   15.6474   -8.4589   16.0656 C   0  0  0  0  0  0  0  0  0  0  0  0
   15.1957   -7.8827   17.3715 C   0  0  0  0  0  0  0  0  0  0  0  0
   14.1418   -7.1938   17.3889 O   0  0  0  0  0  0  0  0  0  0  0  0
   15.9446   -8.1095   18.5759 N   0  0  0  0  0  0  0  0  0  0  0  0
   16.7576   -8.6584   18.4920 H   0  0  0  0  0  0  0  0  0  0  0  0
   15.6334   -7.6209   19.8877 C   0  0  0  0  0  0  0  0  0  0  0  0
   14.3822   -7.8336   20.4822 C   0  0  0  0  0  0  0  0  0  0  0  0
   14.1160   -7.3439   21.7633 C   0  0  0  0  0  0  0  0  0  0  0  0
   15.1009   -6.6455   22.4837 C   0  0  0  0  0  0  0  0  0  0  0  0
   16.3432   -6.4124   21.8673 C   0  0  0  0  0  0  0  0  0  0  0  0
   16.6078   -6.9028   20.5860 C   0  0  0  0  0  0  0  0  0  0  0  0
   14.7892   -6.0528   23.8452 C   0  0  0  0  0  0  0  0  0  0  0  0
   15.0282   -7.0595   24.9608 C   0  0  0  0  0  0  0  0  0  0  0  0
   15.6815   -4.8494   24.0824 C   0  0  0  0  0  0  0  0  0  0  0  0
   13.3382   -5.6054   23.9407 C   0  0  0  0  0  0  0  0  0  0  0  0
  1  2  1  0  0  0
  2  3  1  0  0  0
  3  4  1  0  0  0
  4  5  2  0  0  0
  5  6  1  0  0  0
  4  7  1  0  0  0
  7  8  1  0  0  0
  8  9  1  0  0  0
  9 10  2  0  0  0
 10 11  1  0  0  0
 11 12  1  0  0  0
 12 13  2  0  0  0
 13 14  1  0  0  0
 14 15  2  0  0  0
  1 17  1  0  0  0
 17 18  1  0  0  0
 18 19  2  0  0  0
 18 20  1  0  0  0
 20 22  1  0  0  0
 22 23  2  0  0  0
 23 24  1  0  0  0
 24 25  2  0  0  0
 25 28  1  0  0  0
 28 29  1  0  0  0
 28 30  1  0  0  0
 28 31  1  0  0  0
 25 26  1  0  0  0
 26 27  2  0  0  0
  6  2  2  0  0  0
 11  7  2  0  0  0
 27 22  1  0  0  0
 15 10  1  0  0  0
  8 16  1  0  0  0
 20 21  1  0  0  0
M  END
>  <minimizedAffinity>
-10.23246

>  <minimizedRMSD>
2.03591

$$$$
CHEMBL4072049 PubChem-121382999


 28 30  0  0  0  0  0  0  0  0999 V2000
   18.0373  -10.1562   12.5020 C   0  0  0  0  0  0  0  0  0  0  0  0
   19.0674   -9.5316   12.8740 O   0  0  0  0  0  0  0  0  0  0  0  0
   17.4154  -11.1047   13.3729 N   0  0  0  0  0  0  0  0  0  0  0  0
   16.6390  -11.6106   13.0403 H   0  0  0  0  0  0  0  0  0  0  0  0
   19.0875   -7.1911    6.6849 C   0  0  0  0  0  0  0  0  0  0  0  0
   18.6905   -7.9034    7.8889 N   0  0  0  0  0  0  0  0  0  0  0  0
   17.5009   -8.5753    7.9515 C   0  0  0  0  0  0  0  0  0  0  0  0
   16.7081   -8.6008    6.9699 O   0  0  0  0  0  0  0  0  0  0  0  0
   17.1978   -9.2147    9.1025 N   0  0  0  0  0  0  0  0  0  0  0  0
   16.1296   -9.9466    9.4735 C   0  0  0  0  0  0  0  0  0  0  0  0
   16.2729  -10.3942   10.7496 N   0  0  0  0  0  0  0  0  0  0  0  0
   17.4713   -9.9170   11.1679 C   0  0  0  0  0  0  0  0  0  0  0  0
   18.0235   -9.1942   10.1402 C   0  0  0  0  0  0  0  0  0  0  0  0
   19.1997   -8.5315   10.0834 N   0  0  0  0  0  0  0  0  0  0  0  0
   19.5120   -7.8943    8.9493 N   0  0  0  0  0  0  0  0  0  0  0  0
   17.8802  -11.3552   14.7306 C   0  0  0  0  0  0  0  0  0  0  0  0
   17.1648  -10.4725   15.6964 C   0  0  0  0  0  0  0  0  0  0  0  0
   17.3186  -10.6723   17.0723 C   0  0  0  0  0  0  0  0  0  0  0  0
   16.6611   -9.8360   17.9790 C   0  0  0  0  0  0  0  0  0  0  0  0
   15.8511   -8.7943   17.5131 C   0  0  0  0  0  0  0  0  0  0  0  0
   15.6967   -8.5957   16.1364 C   0  0  0  0  0  0  0  0  0  0  0  0
   16.3541   -9.4318   15.2293 C   0  0  0  0  0  0  0  0  0  0  0  0
   15.0171   -7.7522   18.6512 S   0  0  0  0  0  0  0  0  0  0  0  0
   14.0740   -8.5690   19.4891 O   0  0  0  0  0  0  0  0  0  0  0  0
   14.2285   -6.7142   17.9034 O   0  0  0  0  0  0  0  0  0  0  0  0
   16.1707   -6.9739   19.6740 N   0  0  0  0  0  0  0  0  0  0  0  0
   16.7056   -7.6789   20.1813 H   0  0  0  0  0  0  0  0  0  0  0  0
   15.6843   -6.3725   20.3390 H   0  0  0  0  0  0  0  0  0  0  0  0
  5  6  1  0  0  0
  6  7  1  0  0  0
  7  8  2  0  0  0
  7  9  1  0  0  0
  9 10  1  0  0  0
 10 11  2  0  0  0
 11 12  1  0  0  0
 12 13  2  0  0  0
 13 14  1  0  0  0
 14 15  2  0  0  0
 12  1  1  0  0  0
  1  2  2  0  0  0
  1  3  1  0  0  0
  3 16  1  0  0  0
 16 17  1  0  0  0
 17 18  2  0  0  0
 18 19  1  0  0  0
 19 20  2  0  0  0
 20 21  1  0  0  0
 21 22  2  0  0  0
 20 23  1  0  0  0
 23 24  2  0  0  0
 23 25  2  0  0  0
 23 26  1  0  0  0
 15  6  1  0  0  0
 13  9  1  0  0  0
 22 17  1  0  0  0
  3  4  1  0  0  0
 26 27  1  0  0  0
 26 28  1  0  0  0
M  END
>  <minimizedAffinity>
-5.04891

>  <minimizedRMSD>
2.03736

$$$$
CHEMBL1524058 8607459 ChemDiv-G357-0573 MCULE-4339552329 MolPort-007-847-243 PubChem-16027586 ZINC000008607459


 34 37  0  0  0  0  0  0  0  0999 V2000
   17.2142   -9.8244   13.9305 C   0  0  0  0  0  0  0  0  0  0  0  0
   16.4589   -8.6551   14.0860 C   0  0  0  0  0  0  0  0  0  0  0  0
   16.1231   -8.1971   15.3628 C   0  0  0  0  0  0  0  0  0  0  0  0
   16.5390   -8.9024   16.5018 C   0  0  0  0  0  0  0  0  0  0  0  0
   17.2917  -10.0706   16.3453 C   0  0  0  0  0  0  0  0  0  0  0  0
   17.6285  -10.5300   15.0689 C   0  0  0  0  0  0  0  0  0  0  0  0
   16.2104   -8.4656   17.8274 N   0  0  0  0  0  0  0  0  0  0  0  0
   15.0300   -7.7571   18.2284 C   0  0  0  0  0  0  0  0  0  0  0  0
   14.1549   -7.4170   17.3889 O   0  0  0  0  0  0  0  0  0  0  0  0
   16.8624   -8.6735   18.5351 H   0  0  0  0  0  0  0  0  0  0  0  0
   14.8303   -7.4188   19.6666 C   0  0  0  0  0  0  0  0  0  0  0  0
   13.4349   -7.8107   20.1387 C   0  0  0  0  0  0  0  0  0  0  0  0
   12.6197   -6.6164   20.5148 C   0  0  0  0  0  0  0  0  0  0  0  0
   12.8703   -5.9660   21.7279 C   0  0  0  0  0  0  0  0  0  0  0  0
   12.1000   -4.8612   22.1042 C   0  0  0  0  0  0  0  0  0  0  0  0
   11.0726   -4.4085   21.2709 C   0  0  0  0  0  0  0  0  0  0  0  0
   10.8127   -5.0625   20.0629 C   0  0  0  0  0  0  0  0  0  0  0  0
   11.5824   -6.1673   19.6868 C   0  0  0  0  0  0  0  0  0  0  0  0
   17.5657  -10.3027   12.5837 C   0  0  0  0  0  0  0  0  0  0  0  0
   18.2030  -11.3831   12.4426 O   0  0  0  0  0  0  0  0  0  0  0  0
   17.1906   -9.5555   11.4650 O   0  0  0  0  0  0  0  0  0  0  0  0
   16.5757  -10.1538   10.3335 C   0  0  0  0  0  0  0  0  0  0  0  0
   17.6852   -7.9877    6.8902 N   0  0  0  0  0  0  0  0  0  0  0  0
   18.1820   -7.3684    5.8222 N   0  0  0  0  0  0  0  0  0  0  0  0
   19.4516   -7.7583    5.5534 C   0  0  0  0  0  0  0  0  0  0  0  0
   20.0200   -8.9003    6.6734 S   0  0  0  0  0  0  0  0  0  0  0  0
   18.5434   -8.8514    7.4727 C   0  0  0  0  0  0  0  0  0  0  0  0
   18.2019   -9.5609    8.5758 N   0  0  0  0  0  0  0  0  0  0  0  0
   16.9560   -9.4050    9.1067 C   0  0  0  0  0  0  0  0  0  0  0  0
   16.0447   -8.5068    8.5269 C   0  0  0  0  0  0  0  0  0  0  0  0
   16.4364   -7.7919    7.3898 C   0  0  0  0  0  0  0  0  0  0  0  0
   15.6415   -6.9809    6.8445 O   0  0  0  0  0  0  0  0  0  0  0  0
   20.2618   -7.1939    4.4405 C   0  0  0  0  0  0  0  0  0  0  0  0
   21.6884   -6.9741    4.9023 C   0  0  0  0  0  0  0  0  0  0  0  0
 23 24  1  0  0  0
 24 25  2  0  0  0
 25 26  1  0  0  0
 26 27  1  0  0  0
 27 28  2  0  0  0
 28 29  1  0  0  0
 29 22  1  0  0  0
 22 21  1  0  0  0
 21 19  1  0  0  0
 19 20  2  0  0  0
 19  1  1  0  0  0
  1  2  2  0  0  0
  2  3  1  0  0  0
  3  4  2  0  0  0
  4  5  1  0  0  0
  5  6  2  0  0  0
  4  7  1  0  0  0
  7  8  1  0  0  0
  8 11  1  0  0  0
 11 12  1  0  0  0
 12 13  1  0  0  0
 13 14  2  0  0  0
 14 15  1  0  0  0
 15 16  2  0  0  0
 16 17  1  0  0  0
 17 18  2  0  0  0
  8  9  2  0  0  0
 29 30  2  0  0  0
 30 31  1  0  0  0
 31 32  2  0  0  0
 25 33  1  0  0  0
 33 34  1  0  0  0
 27 23  1  0  0  0
  6  1  1  0  0  0
 18 13  1  0  0  0
 31 23  1  0  0  0
  7 10  1  0  0  0
M  END
>  <minimizedAffinity>
-5.53203

>  <minimizedRMSD>
2.03962

$$$$
CHEMBL1885362


 32 34  0  0  0  0  0  0  0  0999 V2000
   16.6217   -9.2478   16.3576 N   0  0  0  0  0  0  0  0  0  0  0  0
   16.5166   -8.5029   15.1309 C   0  0  0  0  0  0  0  0  0  0  0  0
   16.7797   -7.2705   15.1139 O   0  0  0  0  0  0  0  0  0  0  0  0
   17.6044  -11.4629   16.6741 C   0  0  0  0  0  0  0  0  0  0  0  0
   16.3376  -10.6778   16.3858 C   0  0  0  0  0  0  0  0  0  0  0  0
   17.0081   -8.5887   17.6023 C   0  0  0  0  0  0  0  0  0  0  0  0
   15.8422   -7.8766   18.1990 C   0  0  0  0  0  0  0  0  0  0  0  0
   14.8998   -7.4976   17.4542 O   0  0  0  0  0  0  0  0  0  0  0  0
   15.8291   -7.5929   19.6018 N   0  0  0  0  0  0  0  0  0  0  0  0
   16.6832   -7.6703   20.0853 H   0  0  0  0  0  0  0  0  0  0  0  0
   14.6763   -7.2053   20.3625 C   0  0  0  0  0  0  0  0  0  0  0  0
   13.3786   -7.6396   20.0216 C   0  0  0  0  0  0  0  0  0  0  0  0
   13.1692   -8.4778   18.9768 F   0  0  0  0  0  0  0  0  0  0  0  0
   12.2850   -7.2559   20.8037 C   0  0  0  0  0  0  0  0  0  0  0  0
   12.4722   -6.4522   21.9298 C   0  0  0  0  0  0  0  0  0  0  0  0
   13.7576   -6.0410   22.2869 C   0  0  0  0  0  0  0  0  0  0  0  0
   14.8572   -6.4246   21.5144 C   0  0  0  0  0  0  0  0  0  0  0  0
   16.0990   -6.0190   21.8785 F   0  0  0  0  0  0  0  0  0  0  0  0
   16.1117   -9.1676   13.8518 C   0  0  0  0  0  0  0  0  0  0  0  0
   17.2984   -9.8401   13.1718 C   0  0  0  0  0  0  0  0  0  0  0  0
   17.2866   -9.6175   11.6959 C   0  0  0  0  0  0  0  0  0  0  0  0
   16.3310  -10.2136   10.9341 N   0  0  0  0  0  0  0  0  0  0  0  0
   16.2974  -10.0469    9.5856 C   0  0  0  0  0  0  0  0  0  0  0  0
   15.3013  -10.6697    8.8419 O   0  0  0  0  0  0  0  0  0  0  0  0
   17.2651   -9.2518    8.9623 C   0  0  0  0  0  0  0  0  0  0  0  0
   17.2749   -9.0470    7.5769 C   0  0  0  0  0  0  0  0  0  0  0  0
   18.2634   -8.2454    6.9973 C   0  0  0  0  0  0  0  0  0  0  0  0
   19.2429   -7.6483    7.7982 C   0  0  0  0  0  0  0  0  0  0  0  0
   19.2383   -7.8498    9.1822 C   0  0  0  0  0  0  0  0  0  0  0  0
   18.2527   -8.6495    9.7676 C   0  0  0  0  0  0  0  0  0  0  0  0
   18.2431   -8.8479   11.1103 N   0  0  0  0  0  0  0  0  0  0  0  0
   14.6586  -11.1999    9.2707 H   0  0  0  0  0  0  0  0  0  0  0  0
  4  5  1  0  0  0
  5  1  1  0  0  0
  1  6  1  0  0  0
  1  2  1  0  0  0
  6  7  1  0  0  0
  7  8  2  0  0  0
  7  9  1  0  0  0
  9 11  1  0  0  0
 11 12  2  0  0  0
 12 13  1  0  0  0
 12 14  1  0  0  0
 14 15  2  0  0  0
 15 16  1  0  0  0
 16 17  2  0  0  0
 17 18  1  0  0  0
 17 11  1  0  0  0
  2  3  2  0  0  0
  2 19  1  0  0  0
 19 20  1  0  0  0
 20 21  1  0  0  0
 21 22  2  0  0  0
 22 23  1  0  0  0
 23 24  1  0  0  0
 23 25  2  0  0  0
 25 26  1  0  0  0
 26 27  2  0  0  0
 27 28  1  0  0  0
 28 29  2  0  0  0
 29 30  1  0  0  0
 30 31  2  0  0  0
 30 25  1  0  0  0
 31 21  1  0  0  0
  9 10  1  0  0  0
 24 32  1  0  0  0
M  END
>  <minimizedAffinity>
-8.73523

>  <minimizedRMSD>
2.03968

$$$$
CHEMBL2332622 PubChem-71655332


 29 31  0  0  0  0  0  0  0  0999 V2000
   17.2048   -9.3769   13.8792 C   0  0  0  0  0  0  0  0  0  0  0  0
   15.8389   -9.0984   16.0143 N   0  0  0  0  0  0  0  0  0  0  0  0
   16.8163   -8.2181   16.6319 C   0  0  0  0  0  0  0  0  0  0  0  0
   16.1016   -7.5783   17.8084 C   0  0  0  0  0  0  0  0  0  0  0  0
   14.8268   -8.3822   18.0307 C   0  0  0  0  0  0  0  0  0  0  0  0
   14.6024   -9.1886   16.7657 C   0  0  0  0  0  0  0  0  0  0  0  0
   15.9709   -9.6404   14.6915 C   0  0  0  0  0  0  0  0  0  0  0  0
   15.0466  -10.3507   14.2093 O   0  0  0  0  0  0  0  0  0  0  0  0
   18.0757   -9.0487   17.1536 B   0  0  0  0  0  0  0  0  0  0  0  0
   17.9632  -10.4843   17.3989 O   0  0  0  0  0  0  0  0  0  0  0  0
   19.3535   -8.3744   17.3593 O   0  0  0  0  0  0  0  0  0  0  0  0
   17.0554  -10.7733   17.2164 H   0  0  0  0  0  0  0  0  0  0  0  0
   19.2582   -7.4313   17.1538 H   0  0  0  0  0  0  0  0  0  0  0  0
   16.9032   -9.4142   12.4526 N   0  0  0  0  0  0  0  0  0  0  0  0
   17.9189   -9.4436   11.4434 C   0  0  0  0  0  0  0  0  0  0  0  0
   19.1319   -9.3960   11.7845 O   0  0  0  0  0  0  0  0  0  0  0  0
   15.9598   -9.4193   12.1710 H   0  0  0  0  0  0  0  0  0  0  0  0
   17.5284   -9.5246   10.0109 C   0  0  0  0  0  0  0  0  0  0  0  0
   16.4554  -10.3608    9.6731 C   0  0  0  0  0  0  0  0  0  0  0  0
   16.0406  -10.4809    8.3478 C   0  0  0  0  0  0  0  0  0  0  0  0
   16.6741   -9.7873    7.3685 N   0  0  0  0  0  0  0  0  0  0  0  0
   17.7188   -8.9638    7.6406 C   0  0  0  0  0  0  0  0  0  0  0  0
   18.1779   -8.8081    8.9734 C   0  0  0  0  0  0  0  0  0  0  0  0
   19.2615   -7.9480    9.2156 C   0  0  0  0  0  0  0  0  0  0  0  0
   19.8754   -7.2592    8.1666 C   0  0  0  0  0  0  0  0  0  0  0  0
   19.4145   -7.4205    6.8588 C   0  0  0  0  0  0  0  0  0  0  0  0
   18.3387   -8.2710    6.5965 C   0  0  0  0  0  0  0  0  0  0  0  0
   18.3477  -10.3287   14.2415 C   0  0  0  0  0  0  0  0  0  0  0  0
   17.9667  -11.7908   14.0657 C   0  0  0  0  0  0  0  0  0  0  0  0
  2  3  1  0  0  0
  3  4  1  0  0  0
  4  5  1  0  0  0
  5  6  1  0  0  0
  3  9  1  0  0  0
  9 10  1  0  0  0
  9 11  1  0  0  0
  2  7  1  0  0  0
  7  8  2  0  0  0
  7  1  1  0  0  0
  1 14  1  0  0  0
 14 15  1  0  0  0
 15 16  2  0  0  0
 15 18  1  0  0  0
 18 19  2  0  0  0
 19 20  1  0  0  0
 20 21  2  0  0  0
 21 22  1  0  0  0
 22 23  2  0  0  0
 23 24  1  0  0  0
 24 25  2  0  0  0
 25 26  1  0  0  0
 26 27  2  0  0  0
  1 28  1  0  0  0
 28 29  1  0  0  0
  6  2  1  0  0  0
 23 18  1  0  0  0
 27 22  1  0  0  0
 10 12  1  0  0  0
 11 13  1  0  0  0
 14 17  1  0  0  0
M  END
>  <minimizedAffinity>
-3.74205

>  <minimizedRMSD>
2.04065

$$$$
CHEMBL3984793 PubChem-56948860


 37 41  0  0  0  0  0  0  0  0999 V2000
   17.3025  -10.7530   15.6944 C   0  0  0  0  0  0  0  0  0  0  0  0
   17.5881  -10.7132   17.0672 C   0  0  0  0  0  0  0  0  0  0  0  0
   16.8933   -9.8289   17.8925 C   0  0  0  0  0  0  0  0  0  0  0  0
   15.9159   -8.9860   17.3542 C   0  0  0  0  0  0  0  0  0  0  0  0
   15.6566   -9.0524   15.9806 C   0  0  0  0  0  0  0  0  0  0  0  0
   16.3452   -9.9210   15.1934 N   0  0  0  0  0  0  0  0  0  0  0  0
   15.1763   -8.0477   18.2151 C   0  0  0  0  0  0  0  0  0  0  0  0
   14.5359   -7.0900   17.7009 O   0  0  0  0  0  0  0  0  0  0  0  0
   15.1808   -8.2244   19.6353 N   0  0  0  0  0  0  0  0  0  0  0  0
   15.6695   -8.9909   20.0134 H   0  0  0  0  0  0  0  0  0  0  0  0
   14.4930   -7.3182   20.5454 C   0  0  0  0  0  0  0  0  0  0  0  0
   15.3224   -7.1006   21.7728 C   0  0  0  0  0  0  0  0  0  0  0  0
   16.6194   -6.5709   21.6878 C   0  0  0  0  0  0  0  0  0  0  0  0
   17.3774   -6.3809   22.8470 C   0  0  0  0  0  0  0  0  0  0  0  0
   16.8441   -6.7198   24.0940 C   0  0  0  0  0  0  0  0  0  0  0  0
   15.5533   -7.2495   24.1821 C   0  0  0  0  0  0  0  0  0  0  0  0
   14.7944   -7.4401   23.0234 C   0  0  0  0  0  0  0  0  0  0  0  0
   14.1888   -5.9996   19.8445 C   0  0  0  0  0  0  0  0  0  0  0  0
   13.0493   -5.4161   20.3989 O   0  0  0  0  0  0  0  0  0  0  0  0
   12.2935   -6.0140   20.2886 H   0  0  0  0  0  0  0  0  0  0  0  0
   17.9756  -13.0960   15.0660 C   0  0  0  0  0  0  0  0  0  0  0  0
   18.0099  -11.6613   14.8219 N   0  0  0  0  0  0  0  0  0  0  0  0
   18.7861  -11.2123   13.6657 C   0  0  0  0  0  0  0  0  0  0  0  0
   19.2695   -9.7769   13.8364 C   0  0  0  0  0  0  0  0  0  0  0  0
   18.9826   -9.0721   12.5237 C   0  0  0  0  0  0  0  0  0  0  0  0
   18.1653   -9.9834   11.7434 N   0  0  0  0  0  0  0  0  0  0  0  0
   17.9691  -11.2668   12.3872 C   0  0  0  0  0  0  0  0  0  0  0  0
   17.5957   -9.6772   10.4583 C   0  0  0  0  0  0  0  0  0  0  0  0
   16.3916  -10.2178   10.0998 N   0  0  0  0  0  0  0  0  0  0  0  0
   15.8134   -9.9511    8.8879 C   0  0  0  0  0  0  0  0  0  0  0  0
   16.4318   -9.1269    7.9933 N   0  0  0  0  0  0  0  0  0  0  0  0
   17.6243   -8.5831    8.3342 C   0  0  0  0  0  0  0  0  0  0  0  0
   18.3505   -7.7565    7.5708 N   0  0  0  0  0  0  0  0  0  0  0  0
   19.4435   -7.4786    8.3237 C   0  0  0  0  0  0  0  0  0  0  0  0
   19.4031   -8.1302    9.5590 C   0  0  0  0  0  0  0  0  0  0  0  0
   18.2185   -8.8325    9.5313 C   0  0  0  0  0  0  0  0  0  0  0  0
   18.1388   -7.4257    6.6680 H   0  0  0  0  0  0  0  0  0  0  0  0
 21 22  1  0  0  0
 23 22  1  0  0  0
 23 24  1  0  0  0
 24 25  1  0  0  0
 25 26  1  0  0  0
 26 27  1  0  0  0
 26 28  1  0  0  0
 28 29  2  0  0  0
 29 30  1  0  0  0
 30 31  2  0  0  0
 31 32  1  0  0  0
 32 33  1  0  0  0
 33 34  1  0  0  0
 34 35  2  0  0  0
 35 36  1  0  0  0
 22  1  1  0  0  0
  1  2  2  0  0  0
  2  3  1  0  0  0
  3  4  2  0  0  0
  4  5  1  0  0  0
  5  6  2  0  0  0
  4  7  1  0  0  0
  7  8  2  0  0  0
  7  9  1  0  0  0
  9 11  1  0  0  0
 11 18  1  0  0  0
 18 19  1  0  0  0
 11 12  1  0  0  0
 12 13  2  0  0  0
 13 14  1  0  0  0
 14 15  2  0  0  0
 15 16  1  0  0  0
 16 17  2  0  0  0
 27 23  1  0  0  0
 36 28  1  0  0  0
  6  1  1  0  0  0
 17 12  1  0  0  0
 36 32  2  0  0  0
 33 37  1  0  0  0
  9 10  1  0  0  0
 19 20  1  0  0  0
M  END
>  <minimizedAffinity>
-6.04899

>  <minimizedRMSD>
2.04428

$$$$
CHEMBL3315209 PubChem-118708044


 35 39  0  0  0  0  0  0  0  0999 V2000
   16.8882   -9.4722   12.0512 C   0  0  0  0  0  0  0  0  0  0  0  0
   15.5677   -9.6659   12.5317 C   0  0  0  0  0  0  0  0  0  0  0  0
   15.3021   -9.7635   13.9081 C   0  0  0  0  0  0  0  0  0  0  0  0
   16.3845   -9.6654   14.7806 C   0  0  0  0  0  0  0  0  0  0  0  0
   17.6595   -9.4770   14.3321 C   0  0  0  0  0  0  0  0  0  0  0  0
   17.9532   -9.3749   12.9754 C   0  0  0  0  0  0  0  0  0  0  0  0
   18.4991   -9.3987   15.4262 C   0  0  0  0  0  0  0  0  0  0  0  0
   17.6520   -9.5476   16.5291 C   0  0  0  0  0  0  0  0  0  0  0  0
   16.3736   -9.7161   16.1201 N   0  0  0  0  0  0  0  0  0  0  0  0
   17.1474   -9.3697   10.5960 C   0  0  0  0  0  0  0  0  0  0  0  0
   18.1355   -8.5056   10.1015 C   0  0  0  0  0  0  0  0  0  0  0  0
   18.3707   -8.4198    8.7303 C   0  0  0  0  0  0  0  0  0  0  0  0
   17.6047   -9.2119    7.8495 C   0  0  0  0  0  0  0  0  0  0  0  0
   16.6496  -10.0428    8.3430 N   0  0  0  0  0  0  0  0  0  0  0  0
   16.4091  -10.1356    9.6788 C   0  0  0  0  0  0  0  0  0  0  0  0
   17.8319   -9.1382    6.4722 C   0  0  0  0  0  0  0  0  0  0  0  0
   18.8164   -8.2792    5.9722 C   0  0  0  0  0  0  0  0  0  0  0  0
   19.5743   -7.4930    6.8473 C   0  0  0  0  0  0  0  0  0  0  0  0
   19.3523   -7.5625    8.2266 C   0  0  0  0  0  0  0  0  0  0  0  0
   15.2116   -9.8281   16.9910 C   0  0  0  0  0  0  0  0  0  0  0  0
   14.9961   -8.5434   17.7131 C   0  0  0  0  0  0  0  0  0  0  0  0
   15.6415   -7.5184   17.3677 O   0  0  0  0  0  0  0  0  0  0  0  0
   14.0969   -8.4983   18.8223 N   0  0  0  0  0  0  0  0  0  0  0  0
   13.5063   -9.2689   18.9857 H   0  0  0  0  0  0  0  0  0  0  0  0
   14.0216   -7.3542   19.7202 C   0  0  0  0  0  0  0  0  0  0  0  0
   13.0816   -6.3371   19.1605 C   0  0  0  0  0  0  0  0  0  0  0  0
   12.9793   -5.0682   19.5961 N   0  0  0  0  0  0  0  0  0  0  0  0
   12.0648   -4.5210   18.8123 N   0  0  0  0  0  0  0  0  0  0  0  0
   11.6321   -5.4147   17.9366 N   0  0  0  0  0  0  0  0  0  0  0  0
   12.2535   -6.5670   18.1277 N   0  0  0  0  0  0  0  0  0  0  0  0
   10.9501   -5.2470   17.2467 H   0  0  0  0  0  0  0  0  0  0  0  0
   15.4068   -6.7357   19.8963 C   0  0  0  0  0  0  0  0  0  0  0  0
   15.9648   -6.8872   21.3126 C   0  0  0  0  0  0  0  0  0  0  0  0
   17.4053   -6.4176   21.4006 C   0  0  0  0  0  0  0  0  0  0  0  0
   15.1081   -6.1763   22.3444 C   0  0  0  0  0  0  0  0  0  0  0  0
  1  2  2  0  0  0
  2  3  1  0  0  0
  3  4  2  0  0  0
  4  5  1  0  0  0
  5  6  2  0  0  0
  5  7  1  0  0  0
  7  8  2  0  0  0
  8  9  1  0  0  0
  9 20  1  0  0  0
 20 21  1  0  0  0
 21 22  2  0  0  0
 21 23  1  0  0  0
 25 23  1  0  0  0
 25 26  1  0  0  0
 26 27  1  0  0  0
 27 28  2  0  0  0
 28 29  1  0  0  0
 29 30  1  0  0  0
 25 32  1  0  0  0
 32 33  1  0  0  0
 33 34  1  0  0  0
 33 35  1  0  0  0
  1 10  1  0  0  0
 10 11  2  0  0  0
 11 12  1  0  0  0
 12 13  2  0  0  0
 13 14  1  0  0  0
 14 15  2  0  0  0
 13 16  1  0  0  0
 16 17  2  0  0  0
 17 18  1  0  0  0
 18 19  2  0  0  0
  6  1  1  0  0  0
 30 26  2  0  0  0
 15 10  1  0  0  0
  9  4  1  0  0  0
 19 12  1  0  0  0
 23 24  1  0  0  0
 29 31  1  0  0  0
M  END
>  <minimizedAffinity>
-7.52663

>  <minimizedRMSD>
2.04489

$$$$
CHEMBL3828617


 29 31  0  0  0  0  0  0  0  0999 V2000
   17.6447  -10.2062   13.0059 C   0  0  0  0  0  0  0  0  0  0  0  0
   18.0296  -11.3726   13.2889 O   0  0  0  0  0  0  0  0  0  0  0  0
   19.4508   -7.6491    7.7219 C   0  0  0  0  0  0  0  0  0  0  0  0
   18.2873   -7.9113    6.9960 C   0  0  0  0  0  0  0  0  0  0  0  0
   17.2207   -8.5789    7.6021 C   0  0  0  0  0  0  0  0  0  0  0  0
   17.3090   -8.9899    8.9411 C   0  0  0  0  0  0  0  0  0  0  0  0
   18.4832   -8.7236    9.6758 C   0  0  0  0  0  0  0  0  0  0  0  0
   19.5493   -8.0534    9.0553 C   0  0  0  0  0  0  0  0  0  0  0  0
   18.5727   -9.1234   10.9768 N   0  0  0  0  0  0  0  0  0  0  0  0
   17.5342   -9.7796   11.5856 C   0  0  0  0  0  0  0  0  0  0  0  0
   16.3586  -10.0436   10.8415 C   0  0  0  0  0  0  0  0  0  0  0  0
   16.2748   -9.6435    9.5394 N   0  0  0  0  0  0  0  0  0  0  0  0
   15.1244   -9.8990    8.8225 O   0  0  0  0  0  0  0  0  0  0  0  0
   15.1781  -10.7184   11.4720 C   0  0  0  0  0  0  0  0  0  0  0  0
   19.7462   -8.8956   11.6645 O   0  0  0  0  0  0  0  0  0  0  0  0
   17.2655   -9.2808   14.1167 C   0  0  0  0  0  0  0  0  0  0  0  0
   18.3159   -9.5618   15.5775 S   0  0  0  0  0  0  0  0  0  0  0  0
   16.8953   -9.8247   16.6863 C   0  0  0  0  0  0  0  0  0  0  0  0
   16.0382   -8.5732   16.7709 C   0  0  0  0  0  0  0  0  0  0  0  0
   15.7883   -8.2339   18.1629 N   0  0  0  0  0  0  0  0  0  0  0  0
   14.6239   -7.5093   18.5686 C   0  0  0  0  0  0  0  0  0  0  0  0
   13.7721   -7.1539   17.7084 O   0  0  0  0  0  0  0  0  0  0  0  0
   16.4403   -8.5114   18.8464 H   0  0  0  0  0  0  0  0  0  0  0  0
   14.4216   -7.1742   19.9889 C   0  0  0  0  0  0  0  0  0  0  0  0
   13.1517   -6.8050   20.4575 C   0  0  0  0  0  0  0  0  0  0  0  0
   12.9609   -6.4858   21.8053 C   0  0  0  0  0  0  0  0  0  0  0  0
   14.0382   -6.5332   22.6940 C   0  0  0  0  0  0  0  0  0  0  0  0
   15.3064   -6.8997   22.2355 C   0  0  0  0  0  0  0  0  0  0  0  0
   15.4974   -7.2189   20.8879 C   0  0  0  0  0  0  0  0  0  0  0  0
  3  4  2  0  0  0
  4  5  1  0  0  0
  5  6  2  0  0  0
  6  7  1  0  0  0
  7  8  2  0  0  0
  7  9  1  0  0  0
  9 10  2  0  0  0
 10 11  1  0  0  0
 11 12  2  0  0  0
 12 13  1  0  0  0
 11 14  1  0  0  0
 10  1  1  0  0  0
  1  2  2  0  0  0
  1 16  1  0  0  0
 16 17  1  0  0  0
 17 18  1  0  0  0
 18 19  1  0  0  0
 19 20  1  0  0  0
 20 21  1  0  0  0
 21 22  2  0  0  0
 21 24  1  0  0  0
 24 25  2  0  0  0
 25 26  1  0  0  0
 26 27  2  0  0  0
 27 28  1  0  0  0
 28 29  2  0  0  0
  9 15  1  0  0  0
  8  3  1  0  0  0
 29 24  1  0  0  0
 12  6  1  0  0  0
 20 23  1  0  0  0
M  CHG 1   9   1
M  CHG 1  12   1
M  CHG 1  13  -1
M  CHG 1  15  -1
M  END
>  <minimizedAffinity>
-7.05856

>  <minimizedRMSD>
2.04522

$$$$
CHEMBL3693599 PubChem-58293319


 27 30  0  0  0  0  0  0  0  0999 V2000
   17.7912   -8.5322   16.4308 O   0  0  0  0  0  0  0  0  0  0  0  0
   16.5858   -8.8552   16.6150 C   0  0  0  0  0  0  0  0  0  0  0  0
   15.8698   -8.3320   17.7386 N   0  0  0  0  0  0  0  0  0  0  0  0
   15.9280   -9.7431   15.6965 N   0  0  0  0  0  0  0  0  0  0  0  0
   14.5327  -10.1057   15.8448 C   0  0  0  0  0  0  0  0  0  0  0  0
   14.1737  -10.8965   14.6026 C   0  0  0  0  0  0  0  0  0  0  0  0
   15.4862  -11.2375   13.9116 C   0  0  0  0  0  0  0  0  0  0  0  0
   16.5543  -10.3406   14.5247 C   0  0  0  0  0  0  0  0  0  0  0  0
   17.7723  -11.1830   14.9398 C   0  0  0  0  0  0  0  0  0  0  0  0
   18.5351  -11.7229   13.7286 C   0  0  0  0  0  0  0  0  0  0  0  0
   18.9400  -10.5753   12.8121 C   0  0  0  0  0  0  0  0  0  0  0  0
   17.7524   -9.8111   12.4411 N   0  0  0  0  0  0  0  0  0  0  0  0
   16.9570   -9.2447   13.5282 C   0  0  0  0  0  0  0  0  0  0  0  0
   14.9230   -8.5778   17.8499 H   0  0  0  0  0  0  0  0  0  0  0  0
   17.3358   -9.6277   11.0733 C   0  0  0  0  0  0  0  0  0  0  0  0
   16.1614  -10.1799   10.6398 N   0  0  0  0  0  0  0  0  0  0  0  0
   15.7272  -10.0362    9.3498 C   0  0  0  0  0  0  0  0  0  0  0  0
   16.4650   -9.3281    8.4470 N   0  0  0  0  0  0  0  0  0  0  0  0
   17.6304   -8.7748    8.8585 C   0  0  0  0  0  0  0  0  0  0  0  0
   18.4629   -8.0557    8.0946 N   0  0  0  0  0  0  0  0  0  0  0  0
   19.4782   -7.7208    8.9281 C   0  0  0  0  0  0  0  0  0  0  0  0
   19.2829   -8.2296   10.2141 C   0  0  0  0  0  0  0  0  0  0  0  0
   18.0835   -8.9030   10.1344 C   0  0  0  0  0  0  0  0  0  0  0  0
   18.3606   -7.8230    7.1434 H   0  0  0  0  0  0  0  0  0  0  0  0
   16.4815   -7.4521   18.7238 C   0  0  0  0  0  0  0  0  0  0  0  0
   15.6344   -7.3656   19.9169 C   0  0  0  0  0  0  0  0  0  0  0  0
   14.9658   -7.2977   20.8590 N   0  0  0  0  0  0  0  0  0  0  0  0
  1  2  2  0  0  0
  2  3  1  0  0  0
  3 25  1  0  0  0
 25 26  1  0  0  0
 26 27  3  0  0  0
  2  4  1  0  0  0
  4  5  1  0  0  0
  5  6  1  0  0  0
  6  7  1  0  0  0
  7  8  1  0  0  0
  8  9  1  0  0  0
  9 10  1  0  0  0
 10 11  1  0  0  0
 11 12  1  0  0  0
 12 13  1  0  0  0
 12 15  1  0  0  0
 15 16  2  0  0  0
 16 17  1  0  0  0
 17 18  2  0  0  0
 18 19  1  0  0  0
 19 20  1  0  0  0
 20 21  1  0  0  0
 21 22  2  0  0  0
 22 23  1  0  0  0
  8  4  1  0  0  0
 23 15  1  0  0  0
 13  8  1  0  0  0
 23 19  2  0  0  0
  3 14  1  0  0  0
 20 24  1  0  0  0
M  END
>  <minimizedAffinity>
0.67221

>  <minimizedRMSD>
2.04793

$$$$
CHEMBL1682019 PubChem-46869879


 27 30  0  0  0  0  0  0  0  0999 V2000
   18.6487  -11.2335   11.2707 O   0  0  0  0  0  0  0  0  0  0  0  0
   17.6978  -10.4344   11.4901 C   0  0  0  0  0  0  0  0  0  0  0  0
   17.1210  -10.3208   12.7953 N   0  0  0  0  0  0  0  0  0  0  0  0
   16.3751   -9.6862   12.8961 H   0  0  0  0  0  0  0  0  0  0  0  0
   17.5209  -11.0391   13.9712 C   0  0  0  0  0  0  0  0  0  0  0  0
   18.3005  -12.5262   14.0070 S   0  0  0  0  0  0  0  0  0  0  0  0
   18.3879  -12.6773   15.6782 C   0  0  0  0  0  0  0  0  0  0  0  0
   17.7951  -11.5434   16.2285 C   0  0  0  0  0  0  0  0  0  0  0  0
   17.7283  -11.3383   18.1305 Br  0  0  0  0  0  0  0  0  0  0  0  0
   17.3013  -10.6147   15.2809 C   0  0  0  0  0  0  0  0  0  0  0  0
   16.6288   -9.3366   15.6173 C   0  0  0  0  0  0  0  0  0  0  0  0
   16.6368   -8.2518   14.8182 N   0  0  0  0  0  0  0  0  0  0  0  0
   15.9071   -7.3588   15.5157 C   0  0  0  0  0  0  0  0  0  0  0  0
   15.4772   -7.8817   16.6791 N   0  0  0  0  0  0  0  0  0  0  0  0
   15.9278   -9.1219   16.7434 N   0  0  0  0  0  0  0  0  0  0  0  0
   15.7788   -9.7642   17.4745 H   0  0  0  0  0  0  0  0  0  0  0  0
   17.1246   -9.6007   10.3827 C   0  0  0  0  0  0  0  0  0  0  0  0
   18.1694   -8.8579    9.6029 C   0  0  0  0  0  0  0  0  0  0  0  0
   19.2364   -8.2718   10.2946 C   0  0  0  0  0  0  0  0  0  0  0  0
   20.2380   -7.5841    9.6033 C   0  0  0  0  0  0  0  0  0  0  0  0
   20.1842   -7.4778    8.2116 C   0  0  0  0  0  0  0  0  0  0  0  0
   19.1295   -8.0594    7.5044 C   0  0  0  0  0  0  0  0  0  0  0  0
   19.0836   -7.9564    6.1492 N   0  0  0  0  0  0  0  0  0  0  0  0
   18.0755   -8.5131    5.4254 C   0  0  0  0  0  0  0  0  0  0  0  0
   17.0511   -9.2115    6.0677 C   0  0  0  0  0  0  0  0  0  0  0  0
   17.0710   -9.3314    7.4577 C   0  0  0  0  0  0  0  0  0  0  0  0
   18.1131   -8.7576    8.1976 C   0  0  0  0  0  0  0  0  0  0  0  0
  1  2  2  0  0  0
  2 17  1  0  0  0
  2  3  1  0  0  0
 17 18  1  0  0  0
 18 19  2  0  0  0
 19 20  1  0  0  0
 20 21  2  0  0  0
 21 22  1  0  0  0
 22 23  2  0  0  0
 23 24  1  0  0  0
 24 25  2  0  0  0
 25 26  1  0  0  0
 26 27  2  0  0  0
 27 18  1  0  0  0
 27 22  1  0  0  0
  3  5  1  0  0  0
  5  6  1  0  0  0
  6  7  1  0  0  0
  7  8  2  0  0  0
  8  9  1  0  0  0
  8 10  1  0  0  0
 10 11  1  0  0  0
 10  5  2  0  0  0
 11 12  2  0  0  0
 12 13  1  0  0  0
 13 14  2  0  0  0
 14 15  1  0  0  0
 15 11  1  0  0  0
  3  4  1  0  0  0
 15 16  1  0  0  0
M  END
>  <minimizedAffinity>
-1.56187

>  <minimizedRMSD>
2.04809

$$$$
CHEMBL517094


 40 43  0  0  0  0  0  0  0  0999 V2000
   18.0436   -8.5705    8.7350 C   0  0  0  0  0  0  0  0  0  0  0  0
   17.7721   -9.4486    7.7113 N   0  0  0  0  0  0  0  0  0  0  0  0
   16.6794  -10.2675    7.7380 C   0  0  0  0  0  0  0  0  0  0  0  0
   16.4131  -11.2103    6.6177 C   0  0  0  0  0  0  0  0  0  0  0  0
   15.8409  -10.1867    8.8405 C   0  0  0  0  0  0  0  0  0  0  0  0
   16.1220   -9.3169    9.8375 C   0  0  0  0  0  0  0  0  0  0  0  0
   17.2057   -8.5054    9.8176 N   0  0  0  0  0  0  0  0  0  0  0  0
   15.1911   -9.4132   10.7912 N   0  0  0  0  0  0  0  0  0  0  0  0
   14.3546  -10.3777   10.3294 C   0  0  0  0  0  0  0  0  0  0  0  0
   14.7214  -10.8830    9.1188 N   0  0  0  0  0  0  0  0  0  0  0  0
   12.9083  -10.9508   11.2198 S   0  0  0  0  0  0  0  0  0  0  0  0
   11.7594  -10.1955   10.0206 C   0  0  0  0  0  0  0  0  0  0  0  0
   11.5979  -11.0063    8.7715 C   0  0  0  0  0  0  0  0  0  0  0  0
   12.4364  -11.8961    8.4604 O   0  0  0  0  0  0  0  0  0  0  0  0
   10.4706  -10.7556    7.9302 N   0  0  0  0  0  0  0  0  0  0  0  0
    9.8390  -10.0454    8.1870 H   0  0  0  0  0  0  0  0  0  0  0  0
   10.2168  -11.5070    6.7083 C   0  0  0  0  0  0  0  0  0  0  0  0
    8.8427  -12.1549    6.7555 C   0  0  0  0  0  0  0  0  0  0  0  0
    7.8114  -11.1328    6.7204 N   0  0  0  0  0  0  0  0  0  0  0  0
    7.9165  -10.5159    7.5259 H   0  0  0  0  0  0  0  0  0  0  0  0
    6.8929  -11.5755    6.7486 H   0  0  0  0  0  0  0  0  0  0  0  0
   15.1354   -8.7010   12.0593 C   0  0  0  0  0  0  0  0  0  0  0  0
   16.2899   -9.1303   12.9429 C   0  0  0  0  0  0  0  0  0  0  0  0
   16.2641   -8.3653   14.1772 N   0  0  0  0  0  0  0  0  0  0  0  0
   16.0320   -7.4092   14.1420 H   0  0  0  0  0  0  0  0  0  0  0  0
   16.5654   -8.9593   15.4404 C   0  0  0  0  0  0  0  0  0  0  0  0
   17.4517   -9.9958   15.5469 N   0  0  0  0  0  0  0  0  0  0  0  0
   17.7387  -10.5635   16.7624 C   0  0  0  0  0  0  0  0  0  0  0  0
   17.1403  -10.1021   17.9024 N   0  0  0  0  0  0  0  0  0  0  0  0
   16.2635   -9.0755   17.7907 C   0  0  0  0  0  0  0  0  0  0  0  0
   15.9673   -8.5032   16.6067 C   0  0  0  0  0  0  0  0  0  0  0  0
   15.0772   -7.5173   16.7791 N   0  0  0  0  0  0  0  0  0  0  0  0
   14.8650   -7.5387   18.1246 C   0  0  0  0  0  0  0  0  0  0  0  0
   15.5828   -8.4906   18.7832 N   0  0  0  0  0  0  0  0  0  0  0  0
   15.5971   -8.6963   19.7459 H   0  0  0  0  0  0  0  0  0  0  0  0
   19.2073   -7.7267    8.6722 N   0  0  0  0  0  0  0  0  0  0  0  0
   19.5421   -6.8297    9.7704 C   0  0  0  0  0  0  0  0  0  0  0  0
   18.6883   -5.5769    9.7036 C   0  0  0  0  0  0  0  0  0  0  0  0
   20.1797   -7.8709    7.5970 C   0  0  0  0  0  0  0  0  0  0  0  0
   19.6408   -7.2588    6.3171 C   0  0  0  0  0  0  0  0  0  0  0  0
  1  2  2  0  0  0
  2  3  1  0  0  0
  3  4  1  0  0  0
  3  5  2  0  0  0
  5  6  1  0  0  0
  6  7  2  0  0  0
  6  8  1  0  0  0
  8  9  1  0  0  0
  9 10  2  0  0  0
  9 11  1  0  0  0
 11 12  1  0  0  0
 12 13  1  0  0  0
 13 14  2  0  0  0
 13 15  1  0  0  0
 15 17  1  0  0  0
 17 18  1  0  0  0
 18 19  1  0  0  0
  8 22  1  0  0  0
 22 23  1  0  0  0
 23 24  1  0  0  0
 24 26  1  0  0  0
 26 27  2  0  0  0
 27 28  1  0  0  0
 28 29  2  0  0  0
 29 30  1  0  0  0
 30 31  2  0  0  0
 31 32  1  0  0  0
 32 33  2  0  0  0
 33 34  1  0  0  0
  1 36  1  0  0  0
 36 37  1  0  0  0
 37 38  1  0  0  0
 36 39  1  0  0  0
 39 40  1  0  0  0
  7  1  1  0  0  0
 31 26  1  0  0  0
 10  5  1  0  0  0
 34 30  1  0  0  0
 15 16  1  0  0  0
 19 20  1  0  0  0
 19 21  1  0  0  0
 24 25  1  0  0  0
 34 35  1  0  0  0
M  END
>  <minimizedAffinity>
17.29862

>  <minimizedRMSD>
2.05304

$$$$
CHEMBL2139180


 35 37  0  0  0  0  0  0  0  0999 V2000
   16.9637   -9.6423   16.4065 N   0  0  0  0  0  0  0  0  0  0  0  0
   16.9253  -11.0713   16.6796 C   0  0  0  0  0  0  0  0  0  0  0  0
   16.7562   -9.1377   15.0774 C   0  0  0  0  0  0  0  0  0  0  0  0
   16.7749   -7.8959   14.8617 O   0  0  0  0  0  0  0  0  0  0  0  0
   17.1586   -8.7297   17.5252 C   0  0  0  0  0  0  0  0  0  0  0  0
   15.7236   -7.5760   19.2507 N   0  0  0  0  0  0  0  0  0  0  0  0
   15.8562   -8.1332   17.9367 C   0  0  0  0  0  0  0  0  0  0  0  0
   14.8856   -8.1560   17.1345 O   0  0  0  0  0  0  0  0  0  0  0  0
   16.5260   -7.5943   19.8208 H   0  0  0  0  0  0  0  0  0  0  0  0
   12.2554   -5.8638   21.0176 C   0  0  0  0  0  0  0  0  0  0  0  0
   12.3335   -6.0216   19.6240 C   0  0  0  0  0  0  0  0  0  0  0  0
   13.4653   -6.5804   19.0313 C   0  0  0  0  0  0  0  0  0  0  0  0
   14.5432   -6.9946   19.8208 C   0  0  0  0  0  0  0  0  0  0  0  0
   14.4713   -6.8424   21.2070 C   0  0  0  0  0  0  0  0  0  0  0  0
   13.3447   -6.2834   21.8215 C   0  0  0  0  0  0  0  0  0  0  0  0
   11.1094   -5.3061   21.6012 O   0  0  0  0  0  0  0  0  0  0  0  0
   10.5467   -3.7877   23.3922 C   0  0  0  0  0  0  0  0  0  0  0  0
   10.9893   -3.9298   21.9475 C   0  0  0  0  0  0  0  0  0  0  0  0
   13.3701   -6.1734   23.2199 O   0  0  0  0  0  0  0  0  0  0  0  0
   14.0032   -5.1261   23.9405 C   0  0  0  0  0  0  0  0  0  0  0  0
   13.4956   -5.1166   25.3665 C   0  0  0  0  0  0  0  0  0  0  0  0
   16.5476  -10.0664   13.9221 C   0  0  0  0  0  0  0  0  0  0  0  0
   17.8310  -10.2340   13.1191 C   0  0  0  0  0  0  0  0  0  0  0  0
   17.6280   -9.8574   11.6897 C   0  0  0  0  0  0  0  0  0  0  0  0
   16.5307  -10.2968   11.0156 N   0  0  0  0  0  0  0  0  0  0  0  0
   16.3234   -9.9658    9.7140 C   0  0  0  0  0  0  0  0  0  0  0  0
   15.1889  -10.4326    9.0595 O   0  0  0  0  0  0  0  0  0  0  0  0
   17.2533   -9.1599    9.0487 C   0  0  0  0  0  0  0  0  0  0  0  0
   17.0866   -8.7894    7.7084 C   0  0  0  0  0  0  0  0  0  0  0  0
   18.0429   -7.9827    7.0836 C   0  0  0  0  0  0  0  0  0  0  0  0
   19.1657   -7.5452    7.7943 C   0  0  0  0  0  0  0  0  0  0  0  0
   19.3374   -7.9121    9.1328 C   0  0  0  0  0  0  0  0  0  0  0  0
   18.3853   -8.7180    9.7634 C   0  0  0  0  0  0  0  0  0  0  0  0
   18.5468   -9.0766   11.0627 N   0  0  0  0  0  0  0  0  0  0  0  0
   14.5732  -10.9718    9.5158 H   0  0  0  0  0  0  0  0  0  0  0  0
 17 18  1  0  0  0
 18 16  1  0  0  0
 16 10  1  0  0  0
 10 11  2  0  0  0
 11 12  1  0  0  0
 12 13  2  0  0  0
 13  6  1  0  0  0
 13 14  1  0  0  0
  6  7  1  0  0  0
  7  8  2  0  0  0
  7  5  1  0  0  0
  5  1  1  0  0  0
  1  2  1  0  0  0
  1  3  1  0  0  0
  3  4  2  0  0  0
  3 22  1  0  0  0
 22 23  1  0  0  0
 23 24  1  0  0  0
 24 25  2  0  0  0
 25 26  1  0  0  0
 26 27  1  0  0  0
 26 28  2  0  0  0
 28 29  1  0  0  0
 29 30  2  0  0  0
 30 31  1  0  0  0
 31 32  2  0  0  0
 32 33  1  0  0  0
 33 34  2  0  0  0
 33 28  1  0  0  0
 34 24  1  0  0  0
 14 15  2  0  0  0
 15 19  1  0  0  0
 15 10  1  0  0  0
 19 20  1  0  0  0
 20 21  1  0  0  0
  6  9  1  0  0  0
 27 35  1  0  0  0
M  END
>  <minimizedAffinity>
-9.14491

>  <minimizedRMSD>
2.05395

$$$$
CHEMBL33815 PubChem-44281312


 41 43  0  0  0  0  0  0  0  0999 V2000
   17.1446  -10.5488   12.9574 C   0  0  0  0  0  0  0  0  0  0  0  0
   18.1764  -11.0279   13.7705 C   0  0  0  0  0  0  0  0  0  0  0  0
   18.5050  -10.3588   14.9531 C   0  0  0  0  0  0  0  0  0  0  0  0
   17.7989   -9.2096   15.3383 C   0  0  0  0  0  0  0  0  0  0  0  0
   16.7767   -8.7252   14.5088 C   0  0  0  0  0  0  0  0  0  0  0  0
   16.4496   -9.3923   13.3251 C   0  0  0  0  0  0  0  0  0  0  0  0
   18.1775   -8.4913   16.5731 C   0  0  0  0  0  0  0  0  0  0  0  0
   19.3934   -8.2440   16.7925 O   0  0  0  0  0  0  0  0  0  0  0  0
   17.2028   -8.0236   17.5152 N   0  0  0  0  0  0  0  0  0  0  0  0
   15.9730   -8.6853   17.8364 C   0  0  0  0  0  0  0  0  0  0  0  0
   15.7648   -9.8716   17.4671 O   0  0  0  0  0  0  0  0  0  0  0  0
   17.3946   -7.1773   17.9802 H   0  0  0  0  0  0  0  0  0  0  0  0
   14.9555   -7.9985   18.6880 C   0  0  0  0  0  0  0  0  0  0  0  0
   14.2763   -6.9746   17.9141 N   0  0  0  0  0  0  0  0  0  0  0  0
   14.9543   -6.2807   17.5993 H   0  0  0  0  0  0  0  0  0  0  0  0
   13.5707   -6.5215   18.4949 H   0  0  0  0  0  0  0  0  0  0  0  0
   15.6073   -7.3657   19.9079 C   0  0  0  0  0  0  0  0  0  0  0  0
   14.7728   -7.6244   21.1516 C   0  0  0  0  0  0  0  0  0  0  0  0
   15.4485   -7.0541   22.3488 C   0  0  0  0  0  0  0  0  0  0  0  0
   15.3167   -7.6145   23.4675 O   0  0  0  0  0  0  0  0  0  0  0  0
   16.2156   -5.9017   22.2382 O   0  0  0  0  0  0  0  0  0  0  0  0
   16.3148   -5.4830   21.4059 H   0  0  0  0  0  0  0  0  0  0  0  0
   16.8097  -11.2452   11.6804 C   0  0  0  0  0  0  0  0  0  0  0  0
   14.7028  -10.0498   11.0982 C   0  0  0  0  0  0  0  0  0  0  0  0
   16.0920  -10.3464   10.7815 N   0  0  0  0  0  0  0  0  0  0  0  0
   16.7040   -9.8248    9.5854 C   0  0  0  0  0  0  0  0  0  0  0  0
   16.1200  -10.0380    8.3260 C   0  0  0  0  0  0  0  0  0  0  0  0
   16.6998   -9.5424    7.1994 N   0  0  0  0  0  0  0  0  0  0  0  0
   17.8547   -8.8281    7.2485 C   0  0  0  0  0  0  0  0  0  0  0  0
   18.4074   -8.3445    6.1062 N   0  0  0  0  0  0  0  0  0  0  0  0
   19.5607   -7.6262    6.1412 C   0  0  0  0  0  0  0  0  0  0  0  0
   20.1249   -7.1333    4.9324 N   0  0  0  0  0  0  0  0  0  0  0  0
   20.1792   -7.3819    7.3279 N   0  0  0  0  0  0  0  0  0  0  0  0
   19.6658   -7.8457    8.4980 C   0  0  0  0  0  0  0  0  0  0  0  0
   20.3417   -7.5671    9.7215 N   0  0  0  0  0  0  0  0  0  0  0  0
   18.4790   -8.5870    8.4848 C   0  0  0  0  0  0  0  0  0  0  0  0
   17.8976   -9.0925    9.6502 C   0  0  0  0  0  0  0  0  0  0  0  0
   19.6782   -7.3094    4.0729 H   0  0  0  0  0  0  0  0  0  0  0  0
   20.9622   -6.6159    4.9550 H   0  0  0  0  0  0  0  0  0  0  0  0
   21.1758   -7.0442    9.7152 H   0  0  0  0  0  0  0  0  0  0  0  0
   19.9743   -7.8976   10.5730 H   0  0  0  0  0  0  0  0  0  0  0  0
 24 25  1  0  0  0
 25 23  1  0  0  0
 25 26  1  0  0  0
 23  1  1  0  0  0
  1  2  2  0  0  0
  2  3  1  0  0  0
  3  4  2  0  0  0
  4  7  1  0  0  0
  4  5  1  0  0  0
  7  8  2  0  0  0
  7  9  1  0  0  0
  9 10  1  0  0  0
 10 11  2  0  0  0
 13 10  1  0  0  0
 13 14  1  0  0  0
 13 17  1  0  0  0
 17 18  1  0  0  0
 18 19  1  0  0  0
 19 20  2  0  0  0
 19 21  1  0  0  0
  5  6  2  0  0  0
  6  1  1  0  0  0
 26 27  2  0  0  0
 27 28  1  0  0  0
 28 29  2  0  0  0
 29 30  1  0  0  0
 30 31  2  0  0  0
 31 32  1  0  0  0
 31 33  1  0  0  0
 33 34  2  0  0  0
 34 35  1  0  0  0
 34 36  1  0  0  0
 36 37  2  0  0  0
 36 29  1  0  0  0
 37 26  1  0  0  0
  9 12  1  0  0  0
 14 15  1  0  0  0
 14 16  1  0  0  0
 21 22  1  0  0  0
 32 38  1  0  0  0
 32 39  1  0  0  0
 35 40  1  0  0  0
 35 41  1  0  0  0
M  END
>  <minimizedAffinity>
-4.67501

>  <minimizedRMSD>
2.05449

$$$$
CHEMBL2153636 PubChem-71453141


 38 41  0  0  0  0  0  0  0  0999 V2000
   17.1060  -10.0740   14.6339 C   0  0  0  0  0  0  0  0  0  0  0  0
   16.6213   -9.3172   15.7132 C   0  0  0  0  0  0  0  0  0  0  0  0
   16.9186   -9.6603   17.0385 C   0  0  0  0  0  0  0  0  0  0  0  0
   17.7151  -10.7776   17.2907 C   0  0  0  0  0  0  0  0  0  0  0  0
   18.2143  -11.5392   16.2343 C   0  0  0  0  0  0  0  0  0  0  0  0
   17.9210  -11.2010   14.9096 C   0  0  0  0  0  0  0  0  0  0  0  0
   18.5252  -12.0478   13.8410 C   0  0  0  0  0  0  0  0  0  0  0  0
   17.4185  -10.1665   12.1151 N   0  0  0  0  0  0  0  0  0  0  0  0
   16.7323   -9.6435   13.2625 C   0  0  0  0  0  0  0  0  0  0  0  0
   15.7731   -8.8380   13.1114 O   0  0  0  0  0  0  0  0  0  0  0  0
   18.1174  -10.8378   12.2888 H   0  0  0  0  0  0  0  0  0  0  0  0
   18.4679   -8.1493    7.6582 C   0  0  0  0  0  0  0  0  0  0  0  0
   17.6820   -8.1593    6.5536 N   0  0  0  0  0  0  0  0  0  0  0  0
   16.5560   -8.8125    6.8380 N   0  0  0  0  0  0  0  0  0  0  0  0
   16.6475   -9.2070    8.1199 C   0  0  0  0  0  0  0  0  0  0  0  0
   15.7216   -9.9060    8.8201 N   0  0  0  0  0  0  0  0  0  0  0  0
   15.9833  -10.2153   10.1272 C   0  0  0  0  0  0  0  0  0  0  0  0
   17.1944   -9.8152   10.7428 C   0  0  0  0  0  0  0  0  0  0  0  0
   18.1483   -9.0945    9.9906 C   0  0  0  0  0  0  0  0  0  0  0  0
   17.8255   -8.8121    8.6703 C   0  0  0  0  0  0  0  0  0  0  0  0
   15.8017   -8.9751    6.2266 H   0  0  0  0  0  0  0  0  0  0  0  0
   20.4505   -7.1935    6.5755 C   0  0  0  0  0  0  0  0  0  0  0  0
   19.7277   -7.5585    7.7397 O   0  0  0  0  0  0  0  0  0  0  0  0
   16.4212   -8.9016   18.1490 N   0  0  0  0  0  0  0  0  0  0  0  0
   15.3582   -7.9356   18.1251 C   0  0  0  0  0  0  0  0  0  0  0  0
   14.7719   -7.6522   17.0445 O   0  0  0  0  0  0  0  0  0  0  0  0
   16.8536   -9.0593   19.0193 H   0  0  0  0  0  0  0  0  0  0  0  0
   14.9516   -7.2665   19.3733 C   0  0  0  0  0  0  0  0  0  0  0  0
   15.8103   -7.2478   20.4792 C   0  0  0  0  0  0  0  0  0  0  0  0
   15.4202   -6.6241   21.6658 C   0  0  0  0  0  0  0  0  0  0  0  0
   14.1695   -6.0094   21.7532 C   0  0  0  0  0  0  0  0  0  0  0  0
   13.2966   -5.9972   20.6507 C   0  0  0  0  0  0  0  0  0  0  0  0
   13.6981   -6.6462   19.4692 C   0  0  0  0  0  0  0  0  0  0  0  0
   11.9140   -5.3775   20.7452 C   0  0  0  0  0  0  0  0  0  0  0  0
   11.2981   -5.5519   22.1265 C   0  0  0  0  0  0  0  0  0  0  0  0
   11.9773   -3.8848   20.4604 C   0  0  0  0  0  0  0  0  0  0  0  0
   11.0265   -6.0073   19.7602 C   0  0  0  0  0  0  0  0  0  0  0  0
   10.3265   -6.5032   18.9830 N   0  0  0  0  0  0  0  0  0  0  0  0
 22 23  1  0  0  0
 23 12  1  0  0  0
 12 13  2  0  0  0
 13 14  1  0  0  0
 14 15  1  0  0  0
 15 16  2  0  0  0
 16 17  1  0  0  0
 17 18  2  0  0  0
 18  8  1  0  0  0
 18 19  1  0  0  0
  8  9  1  0  0  0
  9 10  2  0  0  0
  9  1  1  0  0  0
  1  2  2  0  0  0
  2  3  1  0  0  0
  3 24  1  0  0  0
  3  4  2  0  0  0
 24 25  1  0  0  0
 25 26  2  0  0  0
 25 28  1  0  0  0
 28 29  2  0  0  0
 29 30  1  0  0  0
 30 31  2  0  0  0
 31 32  1  0  0  0
 32 34  1  0  0  0
 32 33  2  0  0  0
 34 35  1  0  0  0
 34 36  1  0  0  0
 34 37  1  0  0  0
 37 38  3  0  0  0
 33 28  1  0  0  0
  4  5  1  0  0  0
  5  6  2  0  0  0
  6  7  1  0  0  0
  6  1  1  0  0  0
 19 20  2  0  0  0
 20 12  1  0  0  0
 20 15  1  0  0  0
 14 21  1  0  0  0
  8 11  1  0  0  0
 24 27  1  0  0  0
M  END
>  <minimizedAffinity>
-9.15253

>  <minimizedRMSD>
2.06078

$$$$
CHEMBL144050 PubChem-10789529


 33 36  0  0  0  0  0  0  0  0999 V2000
   18.2117   -9.7284   12.1103 C   0  0  0  0  0  0  0  0  0  0  0  0
   17.1920   -8.5975   12.2283 C   0  0  0  0  0  0  0  0  0  0  0  0
   16.2924   -8.8539   13.4344 C   0  0  0  0  0  0  0  0  0  0  0  0
   17.0776   -9.2016   14.6236 N   0  0  0  0  0  0  0  0  0  0  0  0
   16.4022   -9.5348   15.8460 C   0  0  0  0  0  0  0  0  0  0  0  0
   15.1459   -9.4568   15.9157 O   0  0  0  0  0  0  0  0  0  0  0  0
   18.5391   -9.1226   14.5859 C   0  0  0  0  0  0  0  0  0  0  0  0
   19.0975   -9.8503   13.3581 C   0  0  0  0  0  0  0  0  0  0  0  0
   19.0867   -9.5418   10.8810 C   0  0  0  0  0  0  0  0  0  0  0  0
   18.2773   -9.1623    9.7284 N   0  0  0  0  0  0  0  0  0  0  0  0
   18.6317   -8.3688    8.6863 C   0  0  0  0  0  0  0  0  0  0  0  0
   17.6328   -8.1828    7.7828 N   0  0  0  0  0  0  0  0  0  0  0  0
   16.6227   -8.9001    8.3103 C   0  0  0  0  0  0  0  0  0  0  0  0
   17.0023   -9.4883    9.4770 C   0  0  0  0  0  0  0  0  0  0  0  0
   16.1344  -10.2800   10.2241 C   0  0  0  0  0  0  0  0  0  0  0  0
   14.8359  -10.4445    9.7075 C   0  0  0  0  0  0  0  0  0  0  0  0
   14.4713   -9.8445    8.5288 N   0  0  0  0  0  0  0  0  0  0  0  0
   15.3378   -9.0690    7.8100 C   0  0  0  0  0  0  0  0  0  0  0  0
   19.9802   -7.7537    8.5328 C   0  0  0  0  0  0  0  0  0  0  0  0
   17.1715   -9.9852   17.0546 C   0  0  0  0  0  0  0  0  0  0  0  0
   17.3768  -11.5103   17.1411 C   0  0  0  0  0  0  0  0  0  0  0  0
   16.1245  -12.1388   17.1133 O   0  0  0  0  0  0  0  0  0  0  0  0
   15.6830  -11.9429   16.2721 H   0  0  0  0  0  0  0  0  0  0  0  0
   18.0699  -11.8163   18.4584 C   0  0  0  0  0  0  0  0  0  0  0  0
   19.4742  -11.8209   18.5409 C   0  0  0  0  0  0  0  0  0  0  0  0
   20.1163  -12.1016   19.7500 C   0  0  0  0  0  0  0  0  0  0  0  0
   19.3631  -12.3808   20.8924 C   0  0  0  0  0  0  0  0  0  0  0  0
   17.9680  -12.3792   20.8264 C   0  0  0  0  0  0  0  0  0  0  0  0
   17.3256  -12.0985   19.6173 C   0  0  0  0  0  0  0  0  0  0  0  0
   18.2197  -12.0431   15.9589 C   0  0  0  0  0  0  0  0  0  0  0  0
   19.2725  -11.1886   15.6793 F   0  0  0  0  0  0  0  0  0  0  0  0
   17.4377  -12.1690   14.8238 F   0  0  0  0  0  0  0  0  0  0  0  0
   18.7317  -13.2917   16.2693 F   0  0  0  0  0  0  0  0  0  0  0  0
 10 11  1  0  0  0
 11 12  2  0  0  0
 12 13  1  0  0  0
 13 14  2  0  0  0
 14 15  1  0  0  0
 15 16  2  0  0  0
 16 17  1  0  0  0
 17 18  2  0  0  0
 11 19  1  0  0  0
 10  9  1  0  0  0
  9  1  1  0  0  0
  1  2  1  0  0  0
  2  3  1  0  0  0
  3  4  1  0  0  0
  4  5  1  0  0  0
  5  6  2  0  0  0
  5 20  1  0  0  0
 20 21  1  0  0  0
 21 30  1  0  0  0
 30 31  1  0  0  0
 30 32  1  0  0  0
 30 33  1  0  0  0
 21 24  1  0  0  0
 24 25  2  0  0  0
 25 26  1  0  0  0
 26 27  2  0  0  0
 27 28  1  0  0  0
 28 29  2  0  0  0
 21 22  1  0  0  0
  4  7  1  0  0  0
  7  8  1  0  0  0
 14 10  1  0  0  0
  8  1  1  0  0  0
 18 13  1  0  0  0
 29 24  1  0  0  0
 22 23  1  0  0  0
M  END
>  <minimizedAffinity>
17.29854

>  <minimizedRMSD>
2.06304

$$$$
CHEMBL142211 PubChem-67839903 PubChem-9844458


 32 35  0  0  0  0  0  0  0  0999 V2000
   17.6235   -9.0753   15.4431 C   0  0  0  0  0  0  0  0  0  0  0  0
   17.0284   -9.7524   12.0861 N   0  0  0  0  0  0  0  0  0  0  0  0
   18.2059  -10.2686   12.7735 C   0  0  0  0  0  0  0  0  0  0  0  0
   17.7765  -11.0159   14.0391 C   0  0  0  0  0  0  0  0  0  0  0  0
   16.8897  -10.2129   14.8925 N   0  0  0  0  0  0  0  0  0  0  0  0
   15.7119   -9.7485   14.1440 C   0  0  0  0  0  0  0  0  0  0  0  0
   16.0903   -8.9698   12.8812 C   0  0  0  0  0  0  0  0  0  0  0  0
   16.9331   -9.7335   10.6495 C   0  0  0  0  0  0  0  0  0  0  0  0
   15.9810  -10.4659   10.0015 N   0  0  0  0  0  0  0  0  0  0  0  0
   16.2081  -10.1921    8.3727 S   0  0  0  0  0  0  0  0  0  0  0  0
   17.5050   -9.1601    8.4538 C   0  0  0  0  0  0  0  0  0  0  0  0
   17.8026   -8.9990    9.7978 C   0  0  0  0  0  0  0  0  0  0  0  0
   18.8835   -8.1910   10.1673 C   0  0  0  0  0  0  0  0  0  0  0  0
   19.6326   -7.5542    9.1628 C   0  0  0  0  0  0  0  0  0  0  0  0
   19.3043   -7.7305    7.8046 C   0  0  0  0  0  0  0  0  0  0  0  0
   18.2255   -8.5473    7.4341 C   0  0  0  0  0  0  0  0  0  0  0  0
   16.7027   -7.8721   15.5945 C   0  0  0  0  0  0  0  0  0  0  0  0
   15.4667   -8.2206   16.4151 C   0  0  0  0  0  0  0  0  0  0  0  0
   15.8047   -8.3677   17.8910 C   0  0  0  0  0  0  0  0  0  0  0  0
   15.1426   -7.3266   18.6617 N   0  0  0  0  0  0  0  0  0  0  0  0
   13.7270   -7.3163   18.8617 C   0  0  0  0  0  0  0  0  0  0  0  0
   13.0186   -8.2287   18.3556 O   0  0  0  0  0  0  0  0  0  0  0  0
   15.6858   -6.6072   19.0575 H   0  0  0  0  0  0  0  0  0  0  0  0
   13.1162   -6.2338   19.6655 C   0  0  0  0  0  0  0  0  0  0  0  0
   13.6189   -5.9922   20.9098 N   0  0  0  0  0  0  0  0  0  0  0  0
   13.1220   -5.0202   21.7198 C   0  0  0  0  0  0  0  0  0  0  0  0
   12.0605   -4.2267   21.2893 C   0  0  0  0  0  0  0  0  0  0  0  0
   11.5202   -4.4445   20.0233 C   0  0  0  0  0  0  0  0  0  0  0  0
   12.0386   -5.4456   19.1998 C   0  0  0  0  0  0  0  0  0  0  0  0
   11.4622   -5.6416   17.9116 N   0  0  0  0  0  0  0  0  0  0  0  0
   10.7124   -5.0759   17.6166 H   0  0  0  0  0  0  0  0  0  0  0  0
   11.8136   -6.3428   17.3166 H   0  0  0  0  0  0  0  0  0  0  0  0
  8  9  2  0  0  0
  9 10  1  0  0  0
 10 11  1  0  0  0
 11 12  2  0  0  0
 12 13  1  0  0  0
 13 14  2  0  0  0
 14 15  1  0  0  0
 15 16  2  0  0  0
  8  2  1  0  0  0
  2  3  1  0  0  0
  3  4  1  0  0  0
  4  5  1  0  0  0
  5  6  1  0  0  0
  6  7  1  0  0  0
  5  1  1  0  0  0
  1 17  1  0  0  0
 17 18  1  0  0  0
 18 19  1  0  0  0
 19 20  1  0  0  0
 20 21  1  0  0  0
 21 22  2  0  0  0
 21 24  1  0  0  0
 24 25  2  0  0  0
 25 26  1  0  0  0
 26 27  2  0  0  0
 27 28  1  0  0  0
 28 29  2  0  0  0
 29 30  1  0  0  0
 12  8  1  0  0  0
  7  2  1  0  0  0
 29 24  1  0  0  0
 16 11  1  0  0  0
 20 23  1  0  0  0
 30 31  1  0  0  0
 30 32  1  0  0  0
M  END
>  <minimizedAffinity>
-8.67587

>  <minimizedRMSD>
2.06334

$$$$
CHEMBL4453070 PubChem-155522720


 30 31  0  0  0  0  0  0  0  0999 V2000
   18.1080  -10.3188   11.7372 C   0  0  0  0  0  0  0  0  0  0  0  0
   17.8715   -8.8925   11.2517 C   0  0  0  0  0  0  0  0  0  0  0  0
   20.0477   -7.4561    5.6761 C   0  0  0  0  0  0  0  0  0  0  0  0
   19.0148   -8.0894    4.9616 C   0  0  0  0  0  0  0  0  0  0  0  0
   17.9862   -8.7377    5.6526 C   0  0  0  0  0  0  0  0  0  0  0  0
   17.9798   -8.7596    7.0491 C   0  0  0  0  0  0  0  0  0  0  0  0
   19.0116   -8.1271    7.7677 C   0  0  0  0  0  0  0  0  0  0  0  0
   20.0415   -7.4776    7.0744 C   0  0  0  0  0  0  0  0  0  0  0  0
   18.9709   -8.1702    9.1686 C   0  0  0  0  0  0  0  0  0  0  0  0
   19.8785   -7.6108    9.8462 O   0  0  0  0  0  0  0  0  0  0  0  0
   17.9430   -8.8201    9.7957 N   0  0  0  0  0  0  0  0  0  0  0  0
   16.9586   -9.4210    9.0724 C   0  0  0  0  0  0  0  0  0  0  0  0
   16.9801   -9.3891    7.7149 N   0  0  0  0  0  0  0  0  0  0  0  0
   18.9678   -8.0945    3.0493 Br  0  0  0  0  0  0  0  0  0  0  0  0
   21.3611   -6.6289    4.8559 Cl  0  0  0  0  0  0  0  0  0  0  0  0
   16.9378  -10.8254   12.5708 C   0  0  0  0  0  0  0  0  0  0  0  0
   15.6636  -10.0424   12.2766 C   0  0  0  0  0  0  0  0  0  0  0  0
   15.4428   -8.9405   13.3016 C   0  0  0  0  0  0  0  0  0  0  0  0
   16.0853   -9.2932   14.5578 N   0  0  0  0  0  0  0  0  0  0  0  0
   16.7438   -8.3179   15.3696 C   0  0  0  0  0  0  0  0  0  0  0  0
   16.7572   -7.1062   15.0245 O   0  0  0  0  0  0  0  0  0  0  0  0
   16.0663  -10.2307   14.8578 H   0  0  0  0  0  0  0  0  0  0  0  0
   17.4595   -8.7320   16.6194 C   0  0  0  0  0  0  0  0  0  0  0  0
   16.5165   -8.9510   17.7048 N   0  0  0  0  0  0  0  0  0  0  0  0
   15.8942   -9.7224   17.4640 H   0  0  0  0  0  0  0  0  0  0  0  0
   15.9671   -8.1047   17.8538 H   0  0  0  0  0  0  0  0  0  0  0  0
   18.3551   -9.9591   16.4228 C   0  0  0  0  0  0  0  0  0  0  0  0
   17.6179  -11.2698   16.6522 C   0  0  0  0  0  0  0  0  0  0  0  0
   18.9182   -9.9503   15.1462 O   0  0  0  0  0  0  0  0  0  0  0  0
   18.2139  -10.0076   14.4817 H   0  0  0  0  0  0  0  0  0  0  0  0
  3  4  2  0  0  0
  4  5  1  0  0  0
  5  6  2  0  0  0
  6  7  1  0  0  0
  7  8  2  0  0  0
  7  9  1  0  0  0
  9 10  2  0  0  0
  9 11  1  0  0  0
 11 12  1  0  0  0
 12 13  2  0  0  0
 11  2  1  0  0  0
  2  1  1  0  0  0
  1 16  1  0  0  0
 16 17  1  0  0  0
 17 18  1  0  0  0
 18 19  1  0  0  0
 19 20  1  0  0  0
 20 21  2  0  0  0
 20 23  1  0  0  0
 23 27  1  0  0  0
 27 28  1  0  0  0
 27 29  1  0  0  0
 23 24  1  0  0  0
  4 14  1  0  0  0
  3 15  1  0  0  0
  8  3  1  0  0  0
 13  6  1  0  0  0
 19 22  1  0  0  0
 29 30  1  0  0  0
 24 25  1  0  0  0
 24 26  1  0  0  0
M  END
>  <minimizedAffinity>
-5.71263

>  <minimizedRMSD>
2.06750

$$$$
CHEMBL2357184 ChemDiv-G357-4001 MCULE-2593683930 MolPort-007-848-111 PubChem-16027391 ZINC000008606919


 33 35  0  0  0  0  0  0  0  0999 V2000
   17.9681   -9.4224   12.9474 O   0  0  0  0  0  0  0  0  0  0  0  0
   18.3956   -9.4834   14.2756 C   0  0  0  0  0  0  0  0  0  0  0  0
   19.5691   -9.8591   14.5497 O   0  0  0  0  0  0  0  0  0  0  0  0
   17.4710   -9.1068   15.3568 C   0  0  0  0  0  0  0  0  0  0  0  0
   16.6799   -7.9573   15.2365 C   0  0  0  0  0  0  0  0  0  0  0  0
   15.8003   -7.5960   16.2607 C   0  0  0  0  0  0  0  0  0  0  0  0
   15.7012   -8.3790   17.4200 C   0  0  0  0  0  0  0  0  0  0  0  0
   16.4907   -9.5272   17.5386 C   0  0  0  0  0  0  0  0  0  0  0  0
   17.3703   -9.8903   16.5147 C   0  0  0  0  0  0  0  0  0  0  0  0
   14.8102   -8.0412   18.4917 N   0  0  0  0  0  0  0  0  0  0  0  0
   13.5321   -7.3947   18.3797 C   0  0  0  0  0  0  0  0  0  0  0  0
   13.0986   -7.0252   17.2535 O   0  0  0  0  0  0  0  0  0  0  0  0
   15.1056   -8.2774   19.4006 H   0  0  0  0  0  0  0  0  0  0  0  0
   12.7368   -7.1163   19.6288 C   0  0  0  0  0  0  0  0  0  0  0  0
   11.7866   -8.2666   19.9047 C   0  0  0  0  0  0  0  0  0  0  0  0
   13.6826   -6.9678   20.8038 C   0  0  0  0  0  0  0  0  0  0  0  0
   11.9164   -5.8420   19.5028 C   0  0  0  0  0  0  0  0  0  0  0  0
   18.3953  -10.3660   11.9758 C   0  0  0  0  0  0  0  0  0  0  0  0
   17.7104   -8.7614    8.1372 N   0  0  0  0  0  0  0  0  0  0  0  0
   17.6504   -8.2123    6.9263 N   0  0  0  0  0  0  0  0  0  0  0  0
   18.8715   -7.8279    6.4815 C   0  0  0  0  0  0  0  0  0  0  0  0
   20.0939   -8.1460    7.6154 S   0  0  0  0  0  0  0  0  0  0  0  0
   18.9545   -8.8063    8.6586 C   0  0  0  0  0  0  0  0  0  0  0  0
   19.1941   -9.3243    9.8878 N   0  0  0  0  0  0  0  0  0  0  0  0
   18.1530   -9.8220   10.6136 C   0  0  0  0  0  0  0  0  0  0  0  0
   16.8461   -9.7820   10.0995 C   0  0  0  0  0  0  0  0  0  0  0  0
   16.6404   -9.2367    8.8274 C   0  0  0  0  0  0  0  0  0  0  0  0
   15.4810   -9.1881    8.3373 O   0  0  0  0  0  0  0  0  0  0  0  0
   19.0867   -7.1348    5.1831 C   0  0  0  0  0  0  0  0  0  0  0  0
   20.5068   -6.6099    5.1129 C   0  0  0  0  0  0  0  0  0  0  0  0
   20.7765   -6.1656    3.8195 O   0  0  0  0  0  0  0  0  0  0  0  0
   21.5087   -4.9929    3.9985 C   0  0  0  0  0  0  0  0  0  0  0  0
   21.8628   -4.4074    2.6474 C   0  0  0  0  0  0  0  0  0  0  0  0
 19 20  1  0  0  0
 20 21  2  0  0  0
 21 22  1  0  0  0
 22 23  1  0  0  0
 23 24  2  0  0  0
 24 25  1  0  0  0
 25 18  1  0  0  0
 18  1  1  0  0  0
  1  2  1  0  0  0
  2  3  2  0  0  0
  2  4  1  0  0  0
  4  5  2  0  0  0
  5  6  1  0  0  0
  6  7  2  0  0  0
  7  8  1  0  0  0
  8  9  2  0  0  0
  7 10  1  0  0  0
 10 11  1  0  0  0
 11 12  2  0  0  0
 11 14  1  0  0  0
 14 15  1  0  0  0
 14 16  1  0  0  0
 14 17  1  0  0  0
 25 26  2  0  0  0
 26 27  1  0  0  0
 27 28  2  0  0  0
 21 29  1  0  0  0
 29 30  1  0  0  0
 30 31  1  0  0  0
 31 32  1  0  0  0
 32 33  1  0  0  0
 23 19  1  0  0  0
  9  4  1  0  0  0
 27 19  1  0  0  0
 10 13  1  0  0  0
M  END
>  <minimizedAffinity>
-3.30436

>  <minimizedRMSD>
2.07192

$$$$
CHEMBL313108 PubChem-44318607


 33 36  0  0  0  0  0  0  0  0999 V2000
   16.1577   -7.3349   14.7832 C   0  0  0  0  0  0  0  0  0  0  0  0
   16.8597   -8.5385   14.3640 N   0  0  0  0  0  0  0  0  0  0  0  0
   16.9313   -9.0351   13.1178 C   0  0  0  0  0  0  0  0  0  0  0  0
   17.7198  -10.1727   13.0893 C   0  0  0  0  0  0  0  0  0  0  0  0
   18.1493  -10.3753   14.3953 C   0  0  0  0  0  0  0  0  0  0  0  0
   17.5926   -9.3525   15.1413 C   0  0  0  0  0  0  0  0  0  0  0  0
   16.2799   -8.4177   11.9207 C   0  0  0  0  0  0  0  0  0  0  0  0
   16.6337   -9.1752   10.6777 C   0  0  0  0  0  0  0  0  0  0  0  0
   16.0779  -10.3987   10.4751 N   0  0  0  0  0  0  0  0  0  0  0  0
   16.3641  -11.1452    9.4065 N   0  0  0  0  0  0  0  0  0  0  0  0
   15.7135  -12.4403    9.2766 C   0  0  0  0  0  0  0  0  0  0  0  0
   17.2443  -10.7103    8.4565 C   0  0  0  0  0  0  0  0  0  0  0  0
   17.5084  -11.4314    7.4534 O   0  0  0  0  0  0  0  0  0  0  0  0
   17.8536   -9.4568    8.6053 C   0  0  0  0  0  0  0  0  0  0  0  0
   18.7642   -8.9723    7.6535 C   0  0  0  0  0  0  0  0  0  0  0  0
   19.3601   -7.7197    7.8212 C   0  0  0  0  0  0  0  0  0  0  0  0
   19.0515   -6.9422    8.9397 C   0  0  0  0  0  0  0  0  0  0  0  0
   18.1469   -7.4156    9.8933 C   0  0  0  0  0  0  0  0  0  0  0  0
   17.5441   -8.6731    9.7369 C   0  0  0  0  0  0  0  0  0  0  0  0
   17.8447   -9.1251   16.9023 S   0  0  0  0  0  0  0  0  0  0  0  0
   16.1042   -9.4803   17.2981 C   0  0  0  0  0  0  0  0  0  0  0  0
   15.4939   -8.3516   18.0536 C   0  0  0  0  0  0  0  0  0  0  0  0
   14.9536   -7.4011   17.4282 O   0  0  0  0  0  0  0  0  0  0  0  0
   15.5149   -8.3812   19.4863 N   0  0  0  0  0  0  0  0  0  0  0  0
   15.9601   -9.1536   19.9040 H   0  0  0  0  0  0  0  0  0  0  0  0
   14.9554   -7.4034   20.3774 C   0  0  0  0  0  0  0  0  0  0  0  0
   13.5667   -7.2469   20.5138 C   0  0  0  0  0  0  0  0  0  0  0  0
   13.0413   -6.2937   21.3895 C   0  0  0  0  0  0  0  0  0  0  0  0
   13.9000   -5.4878   22.1393 C   0  0  0  0  0  0  0  0  0  0  0  0
   13.2437   -4.2944   23.2384 Cl  0  0  0  0  0  0  0  0  0  0  0  0
   15.2831   -5.6348   22.0127 C   0  0  0  0  0  0  0  0  0  0  0  0
   15.8132   -6.5871   21.1362 C   0  0  0  0  0  0  0  0  0  0  0  0
   17.5575   -6.7398   21.0102 Cl  0  0  0  0  0  0  0  0  0  0  0  0
  1  2  1  0  0  0
  2  3  1  0  0  0
  3  7  1  0  0  0
  3  4  2  0  0  0
  7  8  1  0  0  0
  8  9  2  0  0  0
  9 10  1  0  0  0
 10 11  1  0  0  0
 10 12  1  0  0  0
 12 13  2  0  0  0
 12 14  1  0  0  0
 14 15  2  0  0  0
 15 16  1  0  0  0
 16 17  2  0  0  0
 17 18  1  0  0  0
 18 19  2  0  0  0
 19  8  1  0  0  0
 19 14  1  0  0  0
  4  5  1  0  0  0
  5  6  2  0  0  0
  6 20  1  0  0  0
  6  2  1  0  0  0
 20 21  1  0  0  0
 21 22  1  0  0  0
 22 23  2  0  0  0
 22 24  1  0  0  0
 24 26  1  0  0  0
 26 27  2  0  0  0
 27 28  1  0  0  0
 28 29  2  0  0  0
 29 30  1  0  0  0
 29 31  1  0  0  0
 31 32  2  0  0  0
 32 33  1  0  0  0
 32 26  1  0  0  0
 24 25  1  0  0  0
M  END
>  <minimizedAffinity>
1.38946

>  <minimizedRMSD>
2.07265

$$$$
CHEMBL1727206 919760 MCULE-3119644727 MolPort-000-039-771 PubChem-1165925 ZINC000000919760 ZINC00919760


 32 35  0  0  0  0  0  0  0  0999 V2000
   18.1011   -9.0178   15.7493 S   0  0  0  0  0  0  0  0  0  0  0  0
   17.5042   -9.6398   14.1802 C   0  0  0  0  0  0  0  0  0  0  0  0
   18.0147  -10.7184   13.5566 N   0  0  0  0  0  0  0  0  0  0  0  0
   17.3320  -10.8700   12.4289 N   0  0  0  0  0  0  0  0  0  0  0  0
   16.4183   -9.8813   12.3880 C   0  0  0  0  0  0  0  0  0  0  0  0
   16.5044   -9.0916   13.4711 N   0  0  0  0  0  0  0  0  0  0  0  0
   15.7088   -7.9175   13.7972 C   0  0  0  0  0  0  0  0  0  0  0  0
   15.4718   -9.6662   11.2518 C   0  0  0  0  0  0  0  0  0  0  0  0
   16.1843   -9.7578    9.9858 N   0  0  0  0  0  0  0  0  0  0  0  0
   15.9308  -10.6528    9.0368 N   0  0  0  0  0  0  0  0  0  0  0  0
   16.8003  -10.5399    8.0327 N   0  0  0  0  0  0  0  0  0  0  0  0
   17.6309   -9.5396    8.3796 C   0  0  0  0  0  0  0  0  0  0  0  0
   18.7292   -9.0387    7.6895 C   0  0  0  0  0  0  0  0  0  0  0  0
   19.4473   -7.9913    8.3038 C   0  0  0  0  0  0  0  0  0  0  0  0
   19.0533   -7.4873    9.5680 C   0  0  0  0  0  0  0  0  0  0  0  0
   17.9356   -8.0224   10.2370 C   0  0  0  0  0  0  0  0  0  0  0  0
   17.2535   -9.0535    9.5927 C   0  0  0  0  0  0  0  0  0  0  0  0
   16.6717   -9.6955   16.6393 C   0  0  0  0  0  0  0  0  0  0  0  0
   15.6124   -8.6169   18.6579 N   0  0  0  0  0  0  0  0  0  0  0  0
   15.8881   -8.5921   17.2513 C   0  0  0  0  0  0  0  0  0  0  0  0
   15.5035   -7.6366   16.5273 O   0  0  0  0  0  0  0  0  0  0  0  0
   16.0269   -9.3427   19.1780 H   0  0  0  0  0  0  0  0  0  0  0  0
   13.4173   -5.6757   19.4666 C   0  0  0  0  0  0  0  0  0  0  0  0
   13.1910   -5.8945   20.8327 C   0  0  0  0  0  0  0  0  0  0  0  0
   13.7541   -7.0017   21.4702 C   0  0  0  0  0  0  0  0  0  0  0  0
   14.5546   -7.9062   20.7519 C   0  0  0  0  0  0  0  0  0  0  0  0
   14.7915   -7.6881   19.3841 C   0  0  0  0  0  0  0  0  0  0  0  0
   14.2152   -6.5743   18.7531 C   0  0  0  0  0  0  0  0  0  0  0  0
   12.8674   -3.2674   19.3448 C   0  0  0  0  0  0  0  0  0  0  0  0
   12.8674   -4.5784   18.7973 O   0  0  0  0  0  0  0  0  0  0  0  0
   15.1259   -9.0210   21.3775 O   0  0  0  0  0  0  0  0  0  0  0  0
   14.9377   -9.3123   22.7549 C   0  0  0  0  0  0  0  0  0  0  0  0
 29 30  1  0  0  0
 30 23  1  0  0  0
 23 24  2  0  0  0
 24 25  1  0  0  0
 25 26  2  0  0  0
 26 31  1  0  0  0
 31 32  1  0  0  0
 26 27  1  0  0  0
 27 19  1  0  0  0
 19 20  1  0  0  0
 20 21  2  0  0  0
 20 18  1  0  0  0
 18  1  1  0  0  0
  1  2  1  0  0  0
  2  3  2  0  0  0
  3  4  1  0  0  0
  4  5  2  0  0  0
  5  8  1  0  0  0
  8  9  1  0  0  0
  9 10  1  0  0  0
 10 11  2  0  0  0
 11 12  1  0  0  0
 12 13  2  0  0  0
 13 14  1  0  0  0
 14 15  2  0  0  0
 15 16  1  0  0  0
 16 17  2  0  0  0
  5  6  1  0  0  0
  6  7  1  0  0  0
 27 28  2  0  0  0
 28 23  1  0  0  0
  6  2  1  0  0  0
 17  9  1  0  0  0
 17 12  1  0  0  0
 19 22  1  0  0  0
M  END
>  <minimizedAffinity>
-0.91424

>  <minimizedRMSD>
2.07418

$$$$
CHEMBL5175536 PubChem-122432200


 27 29  0  0  0  0  0  0  0  0999 V2000
   17.9504   -9.9699   14.0545 N   0  0  0  0  0  0  0  0  0  0  0  0
   19.2899   -9.7036   14.5859 C   0  0  0  0  0  0  0  0  0  0  0  0
   19.1850   -8.8851   15.8674 C   0  0  0  0  0  0  0  0  0  0  0  0
   18.3668   -9.6556   16.9010 C   0  0  0  0  0  0  0  0  0  0  0  0
   17.0036  -10.0685   16.3381 C   0  0  0  0  0  0  0  0  0  0  0  0
   17.1800  -10.7922   14.9953 C   0  0  0  0  0  0  0  0  0  0  0  0
   16.0585   -8.9000   16.2716 C   0  0  0  0  0  0  0  0  0  0  0  0
   15.7795   -8.3559   15.1676 O   0  0  0  0  0  0  0  0  0  0  0  0
   15.4716   -8.4113   17.4802 N   0  0  0  0  0  0  0  0  0  0  0  0
   15.7353   -8.8253   18.3336 H   0  0  0  0  0  0  0  0  0  0  0  0
   14.4995   -7.3261   17.5019 C   0  0  0  0  0  0  0  0  0  0  0  0
   13.9320   -7.1294   18.9012 C   0  0  0  0  0  0  0  0  0  0  0  0
   13.3220   -5.8918   18.9697 F   0  0  0  0  0  0  0  0  0  0  0  0
   12.9976   -8.1088   19.1827 F   0  0  0  0  0  0  0  0  0  0  0  0
   14.9512   -7.1833   19.8343 F   0  0  0  0  0  0  0  0  0  0  0  0
   18.8386  -11.8844   12.8400 C   0  0  0  0  0  0  0  0  0  0  0  0
   18.0636  -10.6526   12.8240 N   0  0  0  0  0  0  0  0  0  0  0  0
   17.4493  -10.1658   11.5993 C   0  0  0  0  0  0  0  0  0  0  0  0
   16.1511  -10.4872   11.3077 N   0  0  0  0  0  0  0  0  0  0  0  0
   15.5319  -10.0519   10.1678 C   0  0  0  0  0  0  0  0  0  0  0  0
   16.2019   -9.2711    9.2731 N   0  0  0  0  0  0  0  0  0  0  0  0
   17.4870   -8.9409    9.5411 C   0  0  0  0  0  0  0  0  0  0  0  0
   18.1249   -9.3613   10.6675 C   0  0  0  0  0  0  0  0  0  0  0  0
   19.4045   -8.8507   10.6257 C   0  0  0  0  0  0  0  0  0  0  0  0
   19.4518   -8.1299    9.4307 C   0  0  0  0  0  0  0  0  0  0  0  0
   18.2732   -8.1851    8.7637 N   0  0  0  0  0  0  0  0  0  0  0  0
   18.0464   -7.7649    7.9028 H   0  0  0  0  0  0  0  0  0  0  0  0
 16 17  1  0  0  0
 17 18  1  0  0  0
 18 19  2  0  0  0
 19 20  1  0  0  0
 20 21  2  0  0  0
 21 22  1  0  0  0
 22 23  2  0  0  0
 23 24  1  0  0  0
 24 25  2  0  0  0
 25 26  1  0  0  0
 17  1  1  0  0  0
  1  2  1  0  0  0
  2  3  1  0  0  0
  3  4  1  0  0  0
  4  5  1  0  0  0
  5  6  1  0  0  0
  5  7  1  0  0  0
  7  8  2  0  0  0
  7  9  1  0  0  0
  9 11  1  0  0  0
 11 12  1  0  0  0
 12 13  1  0  0  0
 12 14  1  0  0  0
 12 15  1  0  0  0
 23 18  1  0  0  0
 26 22  1  0  0  0
  6  1  1  0  0  0
 26 27  1  0  0  0
  9 10  1  0  0  0
M  END
>  <minimizedAffinity>
-6.48313

>  <minimizedRMSD>
2.07495

$$$$
CHEMBL3685248 PubChem-66762943


 34 37  0  0  0  0  0  0  0  0999 V2000
   18.1360   -9.9802   13.1635 C   0  0  0  0  0  0  0  0  0  0  0  0
   16.2232   -9.0558   16.3040 C   0  0  0  0  0  0  0  0  0  0  0  0
   16.6893  -10.0302   17.1938 C   0  0  0  0  0  0  0  0  0  0  0  0
   17.6235  -10.9827   16.7751 C   0  0  0  0  0  0  0  0  0  0  0  0
   18.1001  -10.9639   15.4617 C   0  0  0  0  0  0  0  0  0  0  0  0
   17.6468   -9.9890   14.5680 C   0  0  0  0  0  0  0  0  0  0  0  0
   16.7069   -9.0422   14.9868 C   0  0  0  0  0  0  0  0  0  0  0  0
   14.9731   -7.7686   18.1368 C   0  0  0  0  0  0  0  0  0  0  0  0
   15.6132   -8.3087   19.0803 O   0  0  0  0  0  0  0  0  0  0  0  0
   15.2654   -8.0961   16.7712 N   0  0  0  0  0  0  0  0  0  0  0  0
   14.7553   -7.6114   16.0827 H   0  0  0  0  0  0  0  0  0  0  0  0
   11.5485   -7.9692   19.7263 C   0  0  0  0  0  0  0  0  0  0  0  0
   12.8389   -7.7408   20.5055 C   0  0  0  0  0  0  0  0  0  0  0  0
   13.6116   -6.5576   19.9206 C   0  0  0  0  0  0  0  0  0  0  0  0
   13.9005   -6.7527   18.4236 C   0  0  0  0  0  0  0  0  0  0  0  0
   12.6118   -7.0596   17.6525 C   0  0  0  0  0  0  0  0  0  0  0  0
   11.8663   -8.2462   18.2613 C   0  0  0  0  0  0  0  0  0  0  0  0
   17.0272  -10.2316   12.2548 N   0  0  0  0  0  0  0  0  0  0  0  0
   16.2478  -10.7009   12.6310 H   0  0  0  0  0  0  0  0  0  0  0  0
   16.9491   -9.8674   10.8661 C   0  0  0  0  0  0  0  0  0  0  0  0
   15.8333  -10.2388   10.1862 N   0  0  0  0  0  0  0  0  0  0  0  0
   15.6620   -9.9448    8.8743 C   0  0  0  0  0  0  0  0  0  0  0  0
   16.6173   -9.2605    8.1999 N   0  0  0  0  0  0  0  0  0  0  0  0
   17.7628   -8.8514    8.8067 C   0  0  0  0  0  0  0  0  0  0  0  0
   17.9608   -9.1498   10.1803 C   0  0  0  0  0  0  0  0  0  0  0  0
   19.1391   -8.7271   10.8069 C   0  0  0  0  0  0  0  0  0  0  0  0
   20.1106   -8.0236   10.1008 C   0  0  0  0  0  0  0  0  0  0  0  0
   19.9165   -7.7317    8.7532 C   0  0  0  0  0  0  0  0  0  0  0  0
   18.7515   -8.1347    8.0841 C   0  0  0  0  0  0  0  0  0  0  0  0
   18.6215   -7.7832    6.6451 C   0  0  0  0  0  0  0  0  0  0  0  0
   19.0001   -6.6514    6.2399 O   0  0  0  0  0  0  0  0  0  0  0  0
   18.0758   -8.6972    5.6984 N   0  0  0  0  0  0  0  0  0  0  0  0
   17.7732   -9.5871    5.9913 H   0  0  0  0  0  0  0  0  0  0  0  0
   18.0012   -8.4389    4.7514 H   0  0  0  0  0  0  0  0  0  0  0  0
 12 13  1  0  0  0
 13 14  1  0  0  0
 14 15  1  0  0  0
 15 16  1  0  0  0
 15  8  1  0  0  0
 16 17  1  0  0  0
 17 12  1  0  0  0
  8  9  2  0  0  0
  8 10  1  0  0  0
 10  2  1  0  0  0
  2  3  2  0  0  0
  3  4  1  0  0  0
  4  5  2  0  0  0
  5  6  1  0  0  0
  6  7  2  0  0  0
  6  1  1  0  0  0
  7  2  1  0  0  0
  1 18  1  0  0  0
 18 20  1  0  0  0
 20 21  2  0  0  0
 21 22  1  0  0  0
 22 23  2  0  0  0
 23 24  1  0  0  0
 24 25  2  0  0  0
 25 26  1  0  0  0
 25 20  1  0  0  0
 26 27  2  0  0  0
 27 28  1  0  0  0
 28 29  2  0  0  0
 29 30  1  0  0  0
 29 24  1  0  0  0
 30 31  2  0  0  0
 30 32  1  0  0  0
 10 11  1  0  0  0
 18 19  1  0  0  0
 32 33  1  0  0  0
 32 34  1  0  0  0
M  END
>  <minimizedAffinity>
-8.75579

>  <minimizedRMSD>
2.08179

$$$$
CHEMBL4215842


 38 41  0  0  0  0  0  0  0  0999 V2000
   16.2084  -10.5772    9.4481 C   0  0  0  0  0  0  0  0  0  0  0  0
   17.1368   -9.7611    8.6011 C   0  0  0  0  0  0  0  0  0  0  0  0
   18.0800   -8.9276    9.1162 N   0  0  0  0  0  0  0  0  0  0  0  0
   18.6547   -8.4267    8.0146 C   0  0  0  0  0  0  0  0  0  0  0  0
   18.0712   -8.9467    6.9011 C   0  0  0  0  0  0  0  0  0  0  0  0
   17.0983   -9.8024    7.2438 N   0  0  0  0  0  0  0  0  0  0  0  0
   18.4792   -8.5942    5.6176 C   0  0  0  0  0  0  0  0  0  0  0  0
   19.5323   -7.6670    5.4961 C   0  0  0  0  0  0  0  0  0  0  0  0
   20.1369   -7.1284    6.6623 C   0  0  0  0  0  0  0  0  0  0  0  0
   19.6978   -7.5084    7.9436 C   0  0  0  0  0  0  0  0  0  0  0  0
   18.2878   -8.7397   10.0600 H   0  0  0  0  0  0  0  0  0  0  0  0
   19.9586   -7.2982    4.2175 O   0  0  0  0  0  0  0  0  0  0  0  0
   20.7673   -6.1545    3.9788 C   0  0  0  0  0  0  0  0  0  0  0  0
   16.9800   -9.7799   11.7707 C   0  0  0  0  0  0  0  0  0  0  0  0
   16.6508   -8.5888   11.5294 O   0  0  0  0  0  0  0  0  0  0  0  0
   16.7619  -10.7974   10.7826 N   0  0  0  0  0  0  0  0  0  0  0  0
   17.0054  -11.7203   11.0236 H   0  0  0  0  0  0  0  0  0  0  0  0
   18.9931  -10.8644   15.4351 C   0  0  0  0  0  0  0  0  0  0  0  0
   19.2959  -11.4985   14.2233 C   0  0  0  0  0  0  0  0  0  0  0  0
   18.6205  -11.1384   13.0446 C   0  0  0  0  0  0  0  0  0  0  0  0
   17.6298  -10.1376   13.0490 C   0  0  0  0  0  0  0  0  0  0  0  0
   17.3385   -9.5241   14.2872 C   0  0  0  0  0  0  0  0  0  0  0  0
   18.0105   -9.8777   15.4407 C   0  0  0  0  0  0  0  0  0  0  0  0
   17.5197   -9.1134   16.6299 C   0  0  0  0  0  0  0  0  0  0  0  0
   16.4531   -8.2718   16.0886 N   0  0  0  0  0  0  0  0  0  0  0  0
   16.3537   -8.5375   14.6954 C   0  0  0  0  0  0  0  0  0  0  0  0
   15.4801   -8.0084   13.9615 O   0  0  0  0  0  0  0  0  0  0  0  0
   15.9021   -7.6346   16.5982 H   0  0  0  0  0  0  0  0  0  0  0  0
   14.8044   -9.9873    9.5147 C   0  0  0  0  0  0  0  0  0  0  0  0
   13.9188  -10.8247   10.4172 C   0  0  0  0  0  0  0  0  0  0  0  0
   13.1905   -9.9197   11.3877 C   0  0  0  0  0  0  0  0  0  0  0  0
   12.2678   -9.0672   10.6562 N   0  0  0  0  0  0  0  0  0  0  0  0
   12.5583   -8.1609   10.4041 H   0  0  0  0  0  0  0  0  0  0  0  0
   10.9550   -9.4954   10.2897 C   0  0  0  0  0  0  0  0  0  0  0  0
    9.9443   -9.2600   11.0608 N   0  0  0  0  0  0  0  0  0  0  0  0
   10.0863   -8.8668   11.9522 H   0  0  0  0  0  0  0  0  0  0  0  0
   10.7288  -10.0894    8.9455 C   0  0  0  0  0  0  0  0  0  0  0  0
    9.4044   -9.9303    8.5838 F   0  0  0  0  0  0  0  0  0  0  0  0
 18 19  2  0  0  0
 19 20  1  0  0  0
 20 21  2  0  0  0
 21 22  1  0  0  0
 22 23  2  0  0  0
 23 24  1  0  0  0
 24 25  1  0  0  0
 25 26  1  0  0  0
 26 27  2  0  0  0
 21 14  1  0  0  0
 14 15  2  0  0  0
 14 16  1  0  0  0
 16  1  1  0  0  0
  1  2  1  0  0  0
  2  3  1  0  0  0
  3  4  1  0  0  0
  4  5  2  0  0  0
  5  6  1  0  0  0
  5  7  1  0  0  0
  7  8  2  0  0  0
  8  9  1  0  0  0
  9 10  2  0  0  0
  8 12  1  0  0  0
 12 13  1  0  0  0
  1 29  1  0  0  0
 29 30  1  0  0  0
 30 31  1  0  0  0
 31 32  1  0  0  0
 32 34  1  0  0  0
 34 35  2  0  0  0
 34 37  1  0  0  0
 37 38  1  0  0  0
 23 18  1  0  0  0
  6  2  2  0  0  0
 26 22  1  0  0  0
 10  4  1  0  0  0
 25 28  1  0  0  0
 16 17  1  0  0  0
  3 11  1  0  0  0
 32 33  1  0  0  0
 35 36  1  0  0  0
M  END
>  <minimizedAffinity>
4.74892

>  <minimizedRMSD>
2.08528

$$$$
CHEMBL3792621 PubChem-127028483


 39 43  0  0  0  0  0  0  0  0999 V2000
   16.4484   -9.3626   16.5233 C   0  0  0  0  0  0  0  0  0  0  0  0
   17.1729  -10.4366   17.0895 C   0  0  0  0  0  0  0  0  0  0  0  0
   17.8551  -11.3332   16.2624 C   0  0  0  0  0  0  0  0  0  0  0  0
   17.8276  -11.1794   14.8762 C   0  0  0  0  0  0  0  0  0  0  0  0
   17.1167  -10.1232   14.2964 C   0  0  0  0  0  0  0  0  0  0  0  0
   16.4328   -9.2236   15.1261 C   0  0  0  0  0  0  0  0  0  0  0  0
   17.2250  -10.6349   18.4640 O   0  0  0  0  0  0  0  0  0  0  0  0
   16.7759  -10.0474   19.0395 H   0  0  0  0  0  0  0  0  0  0  0  0
   17.0866   -9.9696   12.8699 N   0  0  0  0  0  0  0  0  0  0  0  0
   18.1633   -9.9108   12.1015 N   0  0  0  0  0  0  0  0  0  0  0  0
   17.8138   -9.7719   10.8330 N   0  0  0  0  0  0  0  0  0  0  0  0
   16.4677   -9.7357   10.8151 C   0  0  0  0  0  0  0  0  0  0  0  0
   15.9846   -9.8663   12.0998 C   0  0  0  0  0  0  0  0  0  0  0  0
   15.6387   -9.6332    9.5799 C   0  0  0  0  0  0  0  0  0  0  0  0
   16.3340  -10.2172    8.4414 N   0  0  0  0  0  0  0  0  0  0  0  0
   16.1349  -11.1479    8.1893 H   0  0  0  0  0  0  0  0  0  0  0  0
   17.2941   -9.4872    7.6785 C   0  0  0  0  0  0  0  0  0  0  0  0
   18.1981   -8.6846    8.2183 O   0  0  0  0  0  0  0  0  0  0  0  0
   18.8836   -8.2118    7.2134 C   0  0  0  0  0  0  0  0  0  0  0  0
   18.3844   -8.7345    6.0573 C   0  0  0  0  0  0  0  0  0  0  0  0
   17.3582   -9.5607    6.3240 N   0  0  0  0  0  0  0  0  0  0  0  0
   18.9132   -8.4057    4.8119 C   0  0  0  0  0  0  0  0  0  0  0  0
   19.9973   -7.5066    4.7865 C   0  0  0  0  0  0  0  0  0  0  0  0
   20.5151   -6.9702    5.9875 C   0  0  0  0  0  0  0  0  0  0  0  0
   19.9547   -7.3225    7.2297 C   0  0  0  0  0  0  0  0  0  0  0  0
   15.7819   -8.4027   18.7746 N   0  0  0  0  0  0  0  0  0  0  0  0
   15.6975   -8.3788   17.3413 C   0  0  0  0  0  0  0  0  0  0  0  0
   14.9857   -7.5111   16.7636 O   0  0  0  0  0  0  0  0  0  0  0  0
   16.3748   -9.0828   19.1686 H   0  0  0  0  0  0  0  0  0  0  0  0
   13.1345   -6.2677   20.3832 C   0  0  0  0  0  0  0  0  0  0  0  0
   13.7854   -7.0980   19.4593 C   0  0  0  0  0  0  0  0  0  0  0  0
   15.0954   -7.5426   19.6935 C   0  0  0  0  0  0  0  0  0  0  0  0
   15.7503   -7.1517   20.8654 C   0  0  0  0  0  0  0  0  0  0  0  0
   15.1098   -6.3239   21.7914 C   0  0  0  0  0  0  0  0  0  0  0  0
   13.8062   -5.8833   21.5508 C   0  0  0  0  0  0  0  0  0  0  0  0
   11.7592   -5.8056   20.1345 C   0  0  0  0  0  0  0  0  0  0  0  0
   11.2267   -5.9866   19.0045 O   0  0  0  0  0  0  0  0  0  0  0  0
   11.0472   -5.1685   21.1540 O   0  0  0  0  0  0  0  0  0  0  0  0
   11.2304   -3.7921   21.4500 C   0  0  0  0  0  0  0  0  0  0  0  0
 36 37  2  0  0  0
 36 30  1  0  0  0
 30 31  2  0  0  0
 31 32  1  0  0  0
 32 33  2  0  0  0
 33 34  1  0  0  0
 34 35  2  0  0  0
 32 26  1  0  0  0
 26 27  1  0  0  0
 27 28  2  0  0  0
 27  1  1  0  0  0
  1  2  2  0  0  0
  2  3  1  0  0  0
  3  4  2  0  0  0
  4  5  1  0  0  0
  5  6  2  0  0  0
  5  9  1  0  0  0
  9 10  1  0  0  0
 10 11  2  0  0  0
 11 12  1  0  0  0
 12 13  2  0  0  0
 12 14  1  0  0  0
 14 15  1  0  0  0
 15 17  1  0  0  0
 17 18  1  0  0  0
 18 19  1  0  0  0
 19 20  2  0  0  0
 20 21  1  0  0  0
 20 22  1  0  0  0
 22 23  2  0  0  0
 23 24  1  0  0  0
 24 25  2  0  0  0
  2  7  1  0  0  0
 36 38  1  0  0  0
 38 39  1  0  0  0
 35 30  1  0  0  0
  6  1  1  0  0  0
 13  9  1  0  0  0
 21 17  2  0  0  0
 25 19  1  0  0  0
 26 29  1  0  0  0
 15 16  1  0  0  0
  7  8  1  0  0  0
M  END
>  <minimizedAffinity>
-7.74118

>  <minimizedRMSD>
2.08679

$$$$
CHEMBL3397320 PubChem-118726589


 41 44  0  0  0  0  0  0  0  0999 V2000
   18.0634   -8.4610   11.6092 C   0  0  0  0  0  0  0  0  0  0  0  0
   16.5760   -8.6797   11.8080 C   0  0  0  0  0  0  0  0  0  0  0  0
   16.5045  -10.0735   12.3680 C   0  0  0  0  0  0  0  0  0  0  0  0
   17.8866  -10.2942   12.9209 C   0  0  0  0  0  0  0  0  0  0  0  0
   18.7940   -9.5305   12.1672 O   0  0  0  0  0  0  0  0  0  0  0  0
   15.5475  -10.1869   13.3803 O   0  0  0  0  0  0  0  0  0  0  0  0
   16.1025   -7.7379   12.7257 O   0  0  0  0  0  0  0  0  0  0  0  0
   15.7510   -9.5574   14.0896 H   0  0  0  0  0  0  0  0  0  0  0  0
   16.6121   -7.8034   13.5484 H   0  0  0  0  0  0  0  0  0  0  0  0
   18.3720   -8.3289   10.1905 N   0  0  0  0  0  0  0  0  0  0  0  0
   17.7878   -8.9226    9.1426 C   0  0  0  0  0  0  0  0  0  0  0  0
   18.3636   -8.4837    8.0033 C   0  0  0  0  0  0  0  0  0  0  0  0
   19.3314   -7.5895    8.2790 N   0  0  0  0  0  0  0  0  0  0  0  0
   19.3074   -7.5144    9.6408 C   0  0  0  0  0  0  0  0  0  0  0  0
   17.9206   -8.9585    6.7772 C   0  0  0  0  0  0  0  0  0  0  0  0
   16.9005   -9.8670    6.7768 N   0  0  0  0  0  0  0  0  0  0  0  0
   16.3302  -10.2970    7.9488 C   0  0  0  0  0  0  0  0  0  0  0  0
   16.7737   -9.8221    9.1524 N   0  0  0  0  0  0  0  0  0  0  0  0
   18.5005   -8.5160    5.5552 N   0  0  0  0  0  0  0  0  0  0  0  0
   19.2353   -7.8608    5.5679 H   0  0  0  0  0  0  0  0  0  0  0  0
   18.1670   -8.8650    4.6972 H   0  0  0  0  0  0  0  0  0  0  0  0
   18.2458  -11.7672   12.8315 C   0  0  0  0  0  0  0  0  0  0  0  0
   18.6441  -12.4316   14.4780 S   0  0  0  0  0  0  0  0  0  0  0  0
   18.9922  -10.7833   15.1645 C   0  0  0  0  0  0  0  0  0  0  0  0
   18.5444  -10.6792   16.6202 C   0  0  0  0  0  0  0  0  0  0  0  0
   17.0241  -10.6313   16.8005 C   0  0  0  0  0  0  0  0  0  0  0  0
   16.3664  -11.5692   15.9035 N   0  0  0  0  0  0  0  0  0  0  0  0
   16.5503  -11.3009   14.9367 H   0  0  0  0  0  0  0  0  0  0  0  0
   15.3610  -11.5554   16.0748 H   0  0  0  0  0  0  0  0  0  0  0  0
   16.4680   -9.2425   16.6590 C   0  0  0  0  0  0  0  0  0  0  0  0
   16.6291   -8.5947   15.5881 O   0  0  0  0  0  0  0  0  0  0  0  0
   15.7559   -8.6586   17.7531 N   0  0  0  0  0  0  0  0  0  0  0  0
   15.6512   -9.1818   18.5805 H   0  0  0  0  0  0  0  0  0  0  0  0
   15.1790   -7.3228   17.6949 C   0  0  0  0  0  0  0  0  0  0  0  0
   13.9685   -7.2424   18.5606 C   0  0  0  0  0  0  0  0  0  0  0  0
   12.7470   -6.7112   18.2069 C   0  0  0  0  0  0  0  0  0  0  0  0
   11.9458   -6.8853   19.2720 N   0  0  0  0  0  0  0  0  0  0  0  0
   12.5911   -7.4854   20.2588 N   0  0  0  0  0  0  0  0  0  0  0  0
   13.8509   -7.7292   19.8484 C   0  0  0  0  0  0  0  0  0  0  0  0
   10.5642   -6.4459   19.3599 C   0  0  0  0  0  0  0  0  0  0  0  0
   10.4914   -5.1089   20.0714 C   0  0  0  0  0  0  0  0  0  0  0  0
  1 10  1  0  0  0
  1  2  1  0  0  0
  2  3  1  0  0  0
  3  4  1  0  0  0
  4  5  1  0  0  0
  4 22  1  0  0  0
 22 23  1  0  0  0
 23 24  1  0  0  0
 24 25  1  0  0  0
 25 26  1  0  0  0
 26 30  1  0  0  0
 30 31  2  0  0  0
 30 32  1  0  0  0
 32 34  1  0  0  0
 34 35  1  0  0  0
 35 36  2  0  0  0
 36 37  1  0  0  0
 37 38  1  0  0  0
 38 39  2  0  0  0
 37 40  1  0  0  0
 40 41  1  0  0  0
 26 27  1  0  0  0
  3  6  1  0  0  0
  2  7  1  0  0  0
 10 11  1  0  0  0
 11 12  2  0  0  0
 12 13  1  0  0  0
 13 14  2  0  0  0
 12 15  1  0  0  0
 15 16  2  0  0  0
 16 17  1  0  0  0
 17 18  2  0  0  0
 15 19  1  0  0  0
 14 10  1  0  0  0
  5  1  1  0  0  0
 39 35  1  0  0  0
 18 11  1  0  0  0
 32 33  1  0  0  0
 27 28  1  0  0  0
 27 29  1  0  0  0
  6  8  1  0  0  0
  7  9  1  0  0  0
 19 20  1  0  0  0
 19 21  1  0  0  0
M  END
>  <minimizedAffinity>
-2.28294

>  <minimizedRMSD>
2.08796

$$$$
CHEMBL3261267 PubChem-90675913


 33 34  0  0  0  0  0  0  0  0999 V2000
   17.9993  -10.4101   13.1532 S   0  0  0  0  0  0  0  0  0  0  0  0
   19.1921   -9.9874   13.9659 O   0  0  0  0  0  0  0  0  0  0  0  0
   17.7384  -11.8740   13.3770 O   0  0  0  0  0  0  0  0  0  0  0  0
   18.3410  -10.1343   11.4591 C   0  0  0  0  0  0  0  0  0  0  0  0
   17.6645   -9.2152   10.7810 C   0  0  0  0  0  0  0  0  0  0  0  0
   17.8488   -8.8937    9.3457 C   0  0  0  0  0  0  0  0  0  0  0  0
   18.9154   -8.0676    8.8977 C   0  0  0  0  0  0  0  0  0  0  0  0
   19.0989   -7.8521    7.5241 C   0  0  0  0  0  0  0  0  0  0  0  0
   18.2575   -8.4367    6.5850 C   0  0  0  0  0  0  0  0  0  0  0  0
   17.2030   -9.2423    7.0214 C   0  0  0  0  0  0  0  0  0  0  0  0
   16.9740   -9.4710    8.3805 C   0  0  0  0  0  0  0  0  0  0  0  0
   19.7908   -7.4724    9.8154 O   0  0  0  0  0  0  0  0  0  0  0  0
   21.0210   -8.0652   10.2131 C   0  0  0  0  0  0  0  0  0  0  0  0
   18.4893   -8.2010    5.2271 O   0  0  0  0  0  0  0  0  0  0  0  0
   19.7576   -7.8000    4.7228 C   0  0  0  0  0  0  0  0  0  0  0  0
   15.8725  -10.2875    8.6912 O   0  0  0  0  0  0  0  0  0  0  0  0
   15.0646  -10.1750    9.8553 C   0  0  0  0  0  0  0  0  0  0  0  0
   16.5796   -9.4477   13.6483 C   0  0  0  0  0  0  0  0  0  0  0  0
   15.7731   -8.2772   17.1633 C   0  0  0  0  0  0  0  0  0  0  0  0
   15.8604   -8.3284   15.7659 C   0  0  0  0  0  0  0  0  0  0  0  0
   16.4597   -9.4137   15.1328 C   0  0  0  0  0  0  0  0  0  0  0  0
   16.9779  -10.4487   15.9077 C   0  0  0  0  0  0  0  0  0  0  0  0
   16.8924  -10.3931   17.2625 N   0  0  0  0  0  0  0  0  0  0  0  0
   16.3140   -9.3500   17.9192 C   0  0  0  0  0  0  0  0  0  0  0  0
   15.1484   -7.1558   17.7979 N   0  0  0  0  0  0  0  0  0  0  0  0
   15.7275   -6.4433   18.1532 H   0  0  0  0  0  0  0  0  0  0  0  0
   13.4330   -6.9774   17.9781 S   0  0  0  0  0  0  0  0  0  0  0  0
   12.8287   -8.2895   18.3949 O   0  0  0  0  0  0  0  0  0  0  0  0
   12.8287   -6.5261   16.6769 O   0  0  0  0  0  0  0  0  0  0  0  0
   12.8287   -6.4344   20.5571 C   0  0  0  0  0  0  0  0  0  0  0  0
   13.1143   -5.7565   19.2321 C   0  0  0  0  0  0  0  0  0  0  0  0
   16.2918   -9.4081   19.3225 O   0  0  0  0  0  0  0  0  0  0  0  0
   15.7322   -8.4214   20.1772 C   0  0  0  0  0  0  0  0  0  0  0  0
 30 31  1  0  0  0
 31 27  1  0  0  0
 27 28  2  0  0  0
 27 29  2  0  0  0
 27 25  1  0  0  0
 25 19  1  0  0  0
 19 20  2  0  0  0
 20 21  1  0  0  0
 21 18  1  0  0  0
 21 22  2  0  0  0
 18  1  1  0  0  0
  1  2  2  0  0  0
  1  3  2  0  0  0
  1  4  1  0  0  0
  4  5  2  0  0  0
  5  6  1  0  0  0
  6  7  2  0  0  0
  7 12  1  0  0  0
  7  8  1  0  0  0
 12 13  1  0  0  0
  8  9  2  0  0  0
  9 14  1  0  0  0
  9 10  1  0  0  0
 14 15  1  0  0  0
 10 11  2  0  0  0
 11 16  1  0  0  0
 11  6  1  0  0  0
 16 17  1  0  0  0
 22 23  1  0  0  0
 23 24  2  0  0  0
 24 32  1  0  0  0
 24 19  1  0  0  0
 32 33  1  0  0  0
 25 26  1  0  0  0
M  END
>  <minimizedAffinity>
-1.29121

>  <minimizedRMSD>
2.09050

$$$$
CHEMBL260531 PubChem-11224593 PubChem-69446942


 36 39  0  0  0  0  0  0  0  0999 V2000
   18.5920  -10.4451   14.1251 C   0  0  0  0  0  0  0  0  0  0  0  0
   18.8070  -10.4583   15.5010 C   0  0  0  0  0  0  0  0  0  0  0  0
   17.9429   -9.7672   16.3506 C   0  0  0  0  0  0  0  0  0  0  0  0
   16.8458   -9.0483   15.8497 C   0  0  0  0  0  0  0  0  0  0  0  0
   16.6260   -9.0342   14.4455 C   0  0  0  0  0  0  0  0  0  0  0  0
   17.5128   -9.7410   13.5926 C   0  0  0  0  0  0  0  0  0  0  0  0
   17.3152   -9.7372   12.2102 C   0  0  0  0  0  0  0  0  0  0  0  0
   16.2451   -9.0279   11.6453 C   0  0  0  0  0  0  0  0  0  0  0  0
   15.3624   -8.3405   12.4807 C   0  0  0  0  0  0  0  0  0  0  0  0
   15.5517   -8.3414   13.8646 C   0  0  0  0  0  0  0  0  0  0  0  0
   15.9789   -8.3413   16.8304 C   0  0  0  0  0  0  0  0  0  0  0  0
   15.0670   -7.5596   16.4466 O   0  0  0  0  0  0  0  0  0  0  0  0
   16.1788   -8.5525   18.2331 N   0  0  0  0  0  0  0  0  0  0  0  0
   16.8776   -9.1841   18.5194 H   0  0  0  0  0  0  0  0  0  0  0  0
   15.3934   -7.8736   19.2530 C   0  0  0  0  0  0  0  0  0  0  0  0
   16.3046   -7.0711   20.1624 C   0  0  0  0  0  0  0  0  0  0  0  0
   15.7157   -6.9475   21.4196 O   0  0  0  0  0  0  0  0  0  0  0  0
   16.7345   -6.4597   22.2364 C   0  0  0  0  0  0  0  0  0  0  0  0
   16.0208   -9.0111   10.2622 O   0  0  0  0  0  0  0  0  0  0  0  0
   16.8201   -9.6718    9.3184 C   0  0  0  0  0  0  0  0  0  0  0  0
   16.7843  -11.0677    9.2792 C   0  0  0  0  0  0  0  0  0  0  0  0
   17.5680  -11.7578    8.3528 C   0  0  0  0  0  0  0  0  0  0  0  0
   18.3578  -11.0762    7.4816 N   0  0  0  0  0  0  0  0  0  0  0  0
   18.4032   -9.7178    7.4755 C   0  0  0  0  0  0  0  0  0  0  0  0
   17.6255   -8.9792    8.3906 C   0  0  0  0  0  0  0  0  0  0  0  0
   17.6499   -7.5820    8.3332 C   0  0  0  0  0  0  0  0  0  0  0  0
   18.4545   -6.9010    7.4073 C   0  0  0  0  0  0  0  0  0  0  0  0
   19.2493   -7.6497    6.5060 C   0  0  0  0  0  0  0  0  0  0  0  0
   19.2077   -9.0537    6.5505 C   0  0  0  0  0  0  0  0  0  0  0  0
   18.4354   -5.4174    7.4244 C   0  0  0  0  0  0  0  0  0  0  0  0
   18.0343   -4.8064    8.4513 O   0  0  0  0  0  0  0  0  0  0  0  0
   18.8618   -4.6548    6.2994 N   0  0  0  0  0  0  0  0  0  0  0  0
   19.1790   -5.1113    5.4869 H   0  0  0  0  0  0  0  0  0  0  0  0
   18.8394   -3.6711    6.3344 H   0  0  0  0  0  0  0  0  0  0  0  0
   20.0693   -7.0002    5.5752 O   0  0  0  0  0  0  0  0  0  0  0  0
   21.3017   -7.5414    5.1181 C   0  0  0  0  0  0  0  0  0  0  0  0
  1  2  2  0  0  0
  2  3  1  0  0  0
  3  4  2  0  0  0
  4  5  1  0  0  0
  5  6  2  0  0  0
  6  7  1  0  0  0
  7  8  2  0  0  0
  8  9  1  0  0  0
  9 10  2  0  0  0
  8 19  1  0  0  0
 19 20  1  0  0  0
 20 21  2  0  0  0
 21 22  1  0  0  0
 22 23  2  0  0  0
 23 24  1  0  0  0
 24 25  2  0  0  0
 25 26  1  0  0  0
 26 27  2  0  0  0
 27 28  1  0  0  0
 28 29  2  0  0  0
 28 35  1  0  0  0
 35 36  1  0  0  0
 27 30  1  0  0  0
 30 31  2  0  0  0
 30 32  1  0  0  0
  4 11  1  0  0  0
 11 12  2  0  0  0
 11 13  1  0  0  0
 13 15  1  0  0  0
 15 16  1  0  0  0
 16 17  1  0  0  0
 17 18  1  0  0  0
  6  1  1  0  0  0
 25 20  1  0  0  0
 10  5  1  0  0  0
 29 24  1  0  0  0
 32 33  1  0  0  0
 32 34  1  0  0  0
 13 14  1  0  0  0
M  END
>  <minimizedAffinity>
4.62187

>  <minimizedRMSD>
2.09444

$$$$
CHEMBL3775154 PubChem-127032658


 28 30  0  0  0  0  0  0  0  0999 V2000
   17.1574  -10.2448   14.2733 C   0  0  0  0  0  0  0  0  0  0  0  0
   17.7180  -11.3719   14.2550 O   0  0  0  0  0  0  0  0  0  0  0  0
   16.8073   -9.6307   15.5621 C   0  0  0  0  0  0  0  0  0  0  0  0
   15.7005   -8.9622   15.7686 O   0  0  0  0  0  0  0  0  0  0  0  0
   15.7043   -8.5540   17.0114 C   0  0  0  0  0  0  0  0  0  0  0  0
   16.8554   -8.9554   17.6604 C   0  0  0  0  0  0  0  0  0  0  0  0
   17.5778   -9.6625   16.7124 C   0  0  0  0  0  0  0  0  0  0  0  0
   14.6183   -7.7351   17.6206 C   0  0  0  0  0  0  0  0  0  0  0  0
   15.0194   -7.2720   18.9413 N   0  0  0  0  0  0  0  0  0  0  0  0
   14.0906   -7.0998   20.0172 C   0  0  0  0  0  0  0  0  0  0  0  0
   12.8760   -7.3984   19.8659 O   0  0  0  0  0  0  0  0  0  0  0  0
   15.9693   -7.0686   19.1013 H   0  0  0  0  0  0  0  0  0  0  0  0
   14.5524   -6.5662   21.3322 C   0  0  0  0  0  0  0  0  0  0  0  0
   13.4099   -5.8855   22.0605 C   0  0  0  0  0  0  0  0  0  0  0  0
   15.1173   -7.6832   22.1881 C   0  0  0  0  0  0  0  0  0  0  0  0
   16.8439   -9.5712   12.9762 C   0  0  0  0  0  0  0  0  0  0  0  0
   18.3214   -9.4717   11.9140 S   0  0  0  0  0  0  0  0  0  0  0  0
   15.8035   -9.9779    8.1384 N   0  0  0  0  0  0  0  0  0  0  0  0
   15.4187  -10.4961    9.3359 C   0  0  0  0  0  0  0  0  0  0  0  0
   16.1977  -10.3264   10.4431 N   0  0  0  0  0  0  0  0  0  0  0  0
   17.3752   -9.6394   10.3975 C   0  0  0  0  0  0  0  0  0  0  0  0
   17.7910   -9.1011    9.1653 C   0  0  0  0  0  0  0  0  0  0  0  0
   16.9698   -9.2952    8.0664 C   0  0  0  0  0  0  0  0  0  0  0  0
   17.6204   -8.5846    6.6949 S   0  0  0  0  0  0  0  0  0  0  0  0
   18.9908   -8.0039    7.4920 C   0  0  0  0  0  0  0  0  0  0  0  0
   18.9500   -8.3629    8.8424 C   0  0  0  0  0  0  0  0  0  0  0  0
   20.0335   -7.9899    9.7988 C   0  0  0  0  0  0  0  0  0  0  0  0
   20.0735   -7.2251    6.8290 C   0  0  0  0  0  0  0  0  0  0  0  0
 18 19  2  0  0  0
 19 20  1  0  0  0
 20 21  2  0  0  0
 21 22  1  0  0  0
 22 23  2  0  0  0
 23 24  1  0  0  0
 24 25  1  0  0  0
 25 26  2  0  0  0
 26 27  1  0  0  0
 25 28  1  0  0  0
 21 17  1  0  0  0
 17 16  1  0  0  0
 16  1  1  0  0  0
  1  2  2  0  0  0
  1  3  1  0  0  0
  3  4  1  0  0  0
  4  5  1  0  0  0
  5  6  2  0  0  0
  6  7  1  0  0  0
  5  8  1  0  0  0
  8  9  1  0  0  0
  9 10  1  0  0  0
 10 11  2  0  0  0
 10 13  1  0  0  0
 13 14  1  0  0  0
 13 15  1  0  0  0
 23 18  1  0  0  0
  7  3  2  0  0  0
 26 22  1  0  0  0
  9 12  1  0  0  0
M  END
>  <minimizedAffinity>
-5.61504

>  <minimizedRMSD>
2.09554

$$$$
CHEMBL4456285 PubChem-129052704


 33 36  0  0  0  0  0  0  0  0999 V2000
   18.1132  -10.1075   15.0170 C   0  0  0  0  0  0  0  0  0  0  0  0
   17.3910   -8.9917   15.2345 N   0  0  0  0  0  0  0  0  0  0  0  0
   16.7491   -9.2789   16.3825 C   0  0  0  0  0  0  0  0  0  0  0  0
   17.0940  -10.5398   16.8286 C   0  0  0  0  0  0  0  0  0  0  0  0
   17.9434  -11.0153   15.9497 O   0  0  0  0  0  0  0  0  0  0  0  0
   15.8133   -8.3651   17.0472 C   0  0  0  0  0  0  0  0  0  0  0  0
   15.0631   -7.6253   16.3555 O   0  0  0  0  0  0  0  0  0  0  0  0
   15.7571   -8.3185   18.4761 N   0  0  0  0  0  0  0  0  0  0  0  0
   16.3420   -8.9229   18.9878 H   0  0  0  0  0  0  0  0  0  0  0  0
   14.8760   -7.4199   19.2106 C   0  0  0  0  0  0  0  0  0  0  0  0
   15.4407   -7.1163   20.5618 C   0  0  0  0  0  0  0  0  0  0  0  0
   14.6728   -7.2709   21.7301 C   0  0  0  0  0  0  0  0  0  0  0  0
   15.2553   -6.9883   22.9668 C   0  0  0  0  0  0  0  0  0  0  0  0
   16.5808   -6.5582   23.0339 C   0  0  0  0  0  0  0  0  0  0  0  0
   17.3119   -6.4182   21.8536 C   0  0  0  0  0  0  0  0  0  0  0  0
   16.7331   -6.6989   20.6557 N   0  0  0  0  0  0  0  0  0  0  0  0
   13.0006   -7.8102   21.6821 Cl  0  0  0  0  0  0  0  0  0  0  0  0
   19.0246  -10.2916   13.8497 C   0  0  0  0  0  0  0  0  0  0  0  0
   18.3073  -10.9722   12.6954 C   0  0  0  0  0  0  0  0  0  0  0  0
   17.1862  -10.1592   12.2568 N   0  0  0  0  0  0  0  0  0  0  0  0
   16.5991   -9.9116   13.0533 H   0  0  0  0  0  0  0  0  0  0  0  0
   16.4315  -10.9615   11.3094 C   0  0  0  0  0  0  0  0  0  0  0  0
   15.6884  -10.0602   10.3370 C   0  0  0  0  0  0  0  0  0  0  0  0
   19.8418   -7.4195    7.0569 C   0  0  0  0  0  0  0  0  0  0  0  0
   19.1894   -8.0881    5.9969 C   0  0  0  0  0  0  0  0  0  0  0  0
   18.0611   -8.8921    6.2453 C   0  0  0  0  0  0  0  0  0  0  0  0
   17.6259   -8.9938    7.5644 C   0  0  0  0  0  0  0  0  0  0  0  0
   18.2542   -8.3494    8.5862 C   0  0  0  0  0  0  0  0  0  0  0  0
   19.3734   -7.5464    8.3785 C   0  0  0  0  0  0  0  0  0  0  0  0
   17.6469   -8.6217    9.7493 N   0  0  0  0  0  0  0  0  0  0  0  0
   16.6356   -9.4437    9.3637 C   0  0  0  0  0  0  0  0  0  0  0  0
   16.5903   -9.7051    8.0310 N   0  0  0  0  0  0  0  0  0  0  0  0
   17.8753   -8.3064   10.6535 H   0  0  0  0  0  0  0  0  0  0  0  0
 24 25  2  0  0  0
 25 26  1  0  0  0
 26 27  2  0  0  0
 27 28  1  0  0  0
 28 29  2  0  0  0
 28 30  1  0  0  0
 30 31  1  0  0  0
 31 32  2  0  0  0
 31 23  1  0  0  0
 23 22  1  0  0  0
 22 20  1  0  0  0
 20 19  1  0  0  0
 19 18  1  0  0  0
 18  1  1  0  0  0
  1  2  2  0  0  0
  2  3  1  0  0  0
  3  4  2  0  0  0
  4  5  1  0  0  0
  3  6  1  0  0  0
  6  7  2  0  0  0
  6  8  1  0  0  0
  8 10  1  0  0  0
 10 11  1  0  0  0
 11 12  2  0  0  0
 12 13  1  0  0  0
 13 14  2  0  0  0
 14 15  1  0  0  0
 15 16  2  0  0  0
 12 17  1  0  0  0
 29 24  1  0  0  0
 32 27  1  0  0  0
  5  1  1  0  0  0
 16 11  1  0  0  0
 30 33  1  0  0  0
 20 21  1  0  0  0
  8  9  1  0  0  0
M  END
>  <minimizedAffinity>
-8.03293

>  <minimizedRMSD>
2.09876

$$$$
CHEMBL1221819 PubChem-9543552


 29 31  0  0  0  0  0  0  0  0999 V2000
   17.2623  -10.5301   14.5283 C   0  0  0  0  0  0  0  0  0  0  0  0
   17.6768  -10.4114   13.1001 C   0  0  0  0  0  0  0  0  0  0  0  0
   18.8030  -10.8520   12.7488 O   0  0  0  0  0  0  0  0  0  0  0  0
   16.7830   -9.8127   12.1512 N   0  0  0  0  0  0  0  0  0  0  0  0
   15.9049   -9.5256   12.4914 H   0  0  0  0  0  0  0  0  0  0  0  0
   17.0378   -9.5898   10.7580 C   0  0  0  0  0  0  0  0  0  0  0  0
   16.2561  -10.2592    9.8104 C   0  0  0  0  0  0  0  0  0  0  0  0
   16.4670  -10.0679    8.4797 N   0  0  0  0  0  0  0  0  0  0  0  0
   17.4345   -9.2270    8.0277 C   0  0  0  0  0  0  0  0  0  0  0  0
   17.6290   -9.0487    6.6551 C   0  0  0  0  0  0  0  0  0  0  0  0
   18.6260   -8.1799    6.1988 C   0  0  0  0  0  0  0  0  0  0  0  0
   19.4295   -7.4886    7.1125 C   0  0  0  0  0  0  0  0  0  0  0  0
   19.2403   -7.6628    8.4874 C   0  0  0  0  0  0  0  0  0  0  0  0
   18.2458   -8.5294    8.9477 C   0  0  0  0  0  0  0  0  0  0  0  0
   18.0398   -8.7167   10.3137 C   0  0  0  0  0  0  0  0  0  0  0  0
   16.0182   -9.7012   14.8064 C   0  0  0  0  0  0  0  0  0  0  0  0
   16.3870   -8.4105   15.5130 C   0  0  0  0  0  0  0  0  0  0  0  0
   15.9955   -8.5053   16.9717 C   0  0  0  0  0  0  0  0  0  0  0  0
   14.6338   -7.8708   17.1709 C   0  0  0  0  0  0  0  0  0  0  0  0
   13.6921   -6.3994   18.7785 O   0  0  0  0  0  0  0  0  0  0  0  0
   14.5380   -7.3022   18.5420 C   0  0  0  0  0  0  0  0  0  0  0  0
   15.3889   -7.8149   19.5756 N   0  0  0  0  0  0  0  0  0  0  0  0
   16.0161   -8.5285   19.3175 H   0  0  0  0  0  0  0  0  0  0  0  0
   15.4210   -7.3959   20.9467 C   0  0  0  0  0  0  0  0  0  0  0  0
   16.5303   -6.6761   21.4052 C   0  0  0  0  0  0  0  0  0  0  0  0
   16.5980   -6.2510   22.7354 C   0  0  0  0  0  0  0  0  0  0  0  0
   15.5540   -6.5445   23.6170 C   0  0  0  0  0  0  0  0  0  0  0  0
   14.4424   -7.2626   23.1679 C   0  0  0  0  0  0  0  0  0  0  0  0
   14.3760   -7.6869   21.8376 C   0  0  0  0  0  0  0  0  0  0  0  0
 20 21  2  0  0  0
 21 19  1  0  0  0
 21 22  1  0  0  0
 19 18  1  0  0  0
 18 17  1  0  0  0
 17 16  1  0  0  0
 16  1  1  0  0  0
  1  2  1  0  0  0
  2  3  2  0  0  0
  2  4  1  0  0  0
  4  6  1  0  0  0
  6  7  2  0  0  0
  7  8  1  0  0  0
  8  9  2  0  0  0
  9 10  1  0  0  0
 10 11  2  0  0  0
 11 12  1  0  0  0
 12 13  2  0  0  0
 13 14  1  0  0  0
 14 15  2  0  0  0
 14  9  1  0  0  0
 15  6  1  0  0  0
 22 24  1  0  0  0
 24 25  2  0  0  0
 25 26  1  0  0  0
 26 27  2  0  0  0
 27 28  1  0  0  0
 28 29  2  0  0  0
 29 24  1  0  0  0
  4  5  1  0  0  0
 22 23  1  0  0  0
M  END
>  <minimizedAffinity>
-9.62016

>  <minimizedRMSD>
2.09953

$$$$
CHEMBL1445818 8607113 ChemDiv-G357-1280 MCULE-4445101629 MolPort-007-847-478 PubChem-16027472 ZINC000008607113 ZINC08607113


 36 40  0  0  0  0  0  0  0  0999 V2000
   16.2607   -8.7994   16.6701 C   0  0  0  0  0  0  0  0  0  0  0  0
   16.7631  -10.0809   16.4232 C   0  0  0  0  0  0  0  0  0  0  0  0
   16.9892  -10.5121   15.1130 C   0  0  0  0  0  0  0  0  0  0  0  0
   16.7139   -9.6642   14.0311 C   0  0  0  0  0  0  0  0  0  0  0  0
   16.2100   -8.3807   14.2773 C   0  0  0  0  0  0  0  0  0  0  0  0
   15.9849   -7.9508   15.5878 C   0  0  0  0  0  0  0  0  0  0  0  0
   14.9050   -7.6849   18.5382 C   0  0  0  0  0  0  0  0  0  0  0  0
   13.9703   -7.3135   17.7803 O   0  0  0  0  0  0  0  0  0  0  0  0
   16.0410   -8.3946   18.0281 N   0  0  0  0  0  0  0  0  0  0  0  0
   16.7432   -8.6284   18.6773 H   0  0  0  0  0  0  0  0  0  0  0  0
   14.8495   -7.3445   19.9839 C   0  0  0  0  0  0  0  0  0  0  0  0
   16.1615   -7.0753   20.4602 O   0  0  0  0  0  0  0  0  0  0  0  0
   17.2489   -5.0425   25.5148 F   0  0  0  0  0  0  0  0  0  0  0  0
   16.9746   -5.5377   24.2844 C   0  0  0  0  0  0  0  0  0  0  0  0
   15.6497   -5.7653   23.9022 C   0  0  0  0  0  0  0  0  0  0  0  0
   15.3671   -6.2765   22.6321 C   0  0  0  0  0  0  0  0  0  0  0  0
   16.4107   -6.5627   21.7360 C   0  0  0  0  0  0  0  0  0  0  0  0
   17.7341   -6.3319   22.1265 C   0  0  0  0  0  0  0  0  0  0  0  0
   18.0165   -5.8207   23.3969 C   0  0  0  0  0  0  0  0  0  0  0  0
   16.9483  -10.1130   12.6493 C   0  0  0  0  0  0  0  0  0  0  0  0
   17.7888  -11.0252   12.4146 O   0  0  0  0  0  0  0  0  0  0  0  0
   16.2352   -9.5267   11.6012 O   0  0  0  0  0  0  0  0  0  0  0  0
   16.1973  -10.1029   10.3037 C   0  0  0  0  0  0  0  0  0  0  0  0
   17.1818   -9.4174    9.4255 C   0  0  0  0  0  0  0  0  0  0  0  0
   18.2835   -8.7571    9.9943 C   0  0  0  0  0  0  0  0  0  0  0  0
   19.2105   -8.1422    9.1456 C   0  0  0  0  0  0  0  0  0  0  0  0
   20.2065   -7.5378    9.6246 O   0  0  0  0  0  0  0  0  0  0  0  0
   19.0161   -8.2118    7.8022 N   0  0  0  0  0  0  0  0  0  0  0  0
   19.8183   -7.6687    6.8896 N   0  0  0  0  0  0  0  0  0  0  0  0
   19.3874   -7.9035    5.6250 C   0  0  0  0  0  0  0  0  0  0  0  0
   17.9414   -8.7964    5.6048 S   0  0  0  0  0  0  0  0  0  0  0  0
   17.9525   -8.8600    7.2828 C   0  0  0  0  0  0  0  0  0  0  0  0
   17.0325   -9.4670    8.0714 N   0  0  0  0  0  0  0  0  0  0  0  0
   20.0670   -7.3635    4.4096 C   0  0  0  0  0  0  0  0  0  0  0  0
   21.5194   -7.0587    4.7264 C   0  0  0  0  0  0  0  0  0  0  0  0
   20.5122   -5.9337    4.6571 C   0  0  0  0  0  0  0  0  0  0  0  0
 13 14  1  0  0  0
 14 15  2  0  0  0
 15 16  1  0  0  0
 16 17  2  0  0  0
 17 12  1  0  0  0
 17 18  1  0  0  0
 12 11  1  0  0  0
 11  7  1  0  0  0
  7  8  2  0  0  0
  7  9  1  0  0  0
  9  1  1  0  0  0
  1  2  2  0  0  0
  2  3  1  0  0  0
  3  4  2  0  0  0
  4  5  1  0  0  0
  4 20  1  0  0  0
  5  6  2  0  0  0
  6  1  1  0  0  0
 20 21  2  0  0  0
 20 22  1  0  0  0
 22 23  1  0  0  0
 23 24  1  0  0  0
 24 25  2  0  0  0
 25 26  1  0  0  0
 26 27  2  0  0  0
 26 28  1  0  0  0
 28 29  1  0  0  0
 29 30  2  0  0  0
 30 31  1  0  0  0
 30 34  1  0  0  0
 31 32  1  0  0  0
 32 33  2  0  0  0
 32 28  1  0  0  0
 33 24  1  0  0  0
 34 35  1  0  0  0
 35 36  1  0  0  0
 36 34  1  0  0  0
 18 19  2  0  0  0
 19 14  1  0  0  0
  9 10  1  0  0  0
M  END
>  <minimizedAffinity>
-9.36513

>  <minimizedRMSD>
2.10364

$$$$
CHEMBL2311926 PubChem-71574572


 35 38  0  0  0  0  0  0  0  0999 V2000
   15.6616   -8.6714   16.5302 C   0  0  0  0  0  0  0  0  0  0  0  0
   16.7667   -9.3195   17.0949 C   0  0  0  0  0  0  0  0  0  0  0  0
   17.7323   -9.9109   16.2745 C   0  0  0  0  0  0  0  0  0  0  0  0
   17.5963   -9.8537   14.8852 C   0  0  0  0  0  0  0  0  0  0  0  0
   16.4836   -9.1980   14.3132 C   0  0  0  0  0  0  0  0  0  0  0  0
   15.5224   -8.6096   15.1387 C   0  0  0  0  0  0  0  0  0  0  0  0
   16.3494   -9.1391   12.9242 C   0  0  0  0  0  0  0  0  0  0  0  0
   17.3106   -9.7274   12.0862 C   0  0  0  0  0  0  0  0  0  0  0  0
   18.4119  -10.3768   12.6695 C   0  0  0  0  0  0  0  0  0  0  0  0
   18.5554  -10.4404   14.0586 C   0  0  0  0  0  0  0  0  0  0  0  0
   17.1417   -9.6481   10.6126 C   0  0  0  0  0  0  0  0  0  0  0  0
   16.1161  -10.3290   10.0144 N   0  0  0  0  0  0  0  0  0  0  0  0
   15.9125  -10.2923    8.6614 C   0  0  0  0  0  0  0  0  0  0  0  0
   16.7397   -9.5642    7.8577 N   0  0  0  0  0  0  0  0  0  0  0  0
   17.7604   -8.8835    8.4306 C   0  0  0  0  0  0  0  0  0  0  0  0
   17.9833   -8.9042    9.7721 C   0  0  0  0  0  0  0  0  0  0  0  0
   19.0883   -8.1171   10.0170 C   0  0  0  0  0  0  0  0  0  0  0  0
   19.4702   -7.6574    8.7548 C   0  0  0  0  0  0  0  0  0  0  0  0
   18.6543   -8.1280    7.7795 N   0  0  0  0  0  0  0  0  0  0  0  0
   18.7070   -7.9539    6.8120 H   0  0  0  0  0  0  0  0  0  0  0  0
   14.4687   -7.9185   17.5726 S   0  0  0  0  0  0  0  0  0  0  0  0
   13.7724   -6.7985   16.8510 O   0  0  0  0  0  0  0  0  0  0  0  0
   13.4488   -8.9451   17.9765 O   0  0  0  0  0  0  0  0  0  0  0  0
   15.2471   -7.2933   18.9863 N   0  0  0  0  0  0  0  0  0  0  0  0
   14.5223   -6.6464   20.0356 C   0  0  0  0  0  0  0  0  0  0  0  0
   13.2664   -6.5593   19.9866 O   0  0  0  0  0  0  0  0  0  0  0  0
   16.2235   -7.3863   19.0710 H   0  0  0  0  0  0  0  0  0  0  0  0
   15.2523   -6.0601   21.2010 C   0  0  0  0  0  0  0  0  0  0  0  0
   14.2976   -5.4315   22.0999 N   0  0  0  0  0  0  0  0  0  0  0  0
   13.6420   -6.1331   22.4442 H   0  0  0  0  0  0  0  0  0  0  0  0
   13.7861   -4.7051   21.5988 H   0  0  0  0  0  0  0  0  0  0  0  0
   16.0592   -7.1248   21.9448 C   0  0  0  0  0  0  0  0  0  0  0  0
   15.2220   -7.8602   22.7854 O   0  0  0  0  0  0  0  0  0  0  0  0
   17.1507   -6.4819   22.7830 C   0  0  0  0  0  0  0  0  0  0  0  0
   14.8220   -7.2684   23.4416 H   0  0  0  0  0  0  0  0  0  0  0  0
 21 22  2  0  0  0
 21 23  2  0  0  0
 21 24  1  0  0  0
 24 25  1  0  0  0
 25 26  2  0  0  0
 25 28  1  0  0  0
 28 29  1  0  0  0
 28 32  1  0  0  0
 32 33  1  0  0  0
 32 34  1  0  0  0
 21  1  1  0  0  0
  1  2  2  0  0  0
  2  3  1  0  0  0
  3  4  2  0  0  0
  4  5  1  0  0  0
  5  6  2  0  0  0
  5  7  1  0  0  0
  7  8  2  0  0  0
  8  9  1  0  0  0
  9 10  2  0  0  0
  8 11  1  0  0  0
 11 12  2  0  0  0
 12 13  1  0  0  0
 13 14  2  0  0  0
 14 15  1  0  0  0
 15 16  2  0  0  0
 16 17  1  0  0  0
 17 18  2  0  0  0
 18 19  1  0  0  0
  6  1  1  0  0  0
 16 11  1  0  0  0
 10  4  1  0  0  0
 19 15  1  0  0  0
 24 27  1  0  0  0
 29 30  1  0  0  0
 29 31  1  0  0  0
 33 35  1  0  0  0
 19 20  1  0  0  0
M  END
>  <minimizedAffinity>
-6.97328

>  <minimizedRMSD>
2.10490

$$$$
CHEMBL1193293 CHEMBL544674 PubChem-10717919 PubChem-45259374


 34 37  0  0  0  0  0  0  0  0999 V2000
   16.6831   -7.9336   15.5450 C   0  0  0  0  0  0  0  0  0  0  0  0
   17.6512   -9.1035   15.4323 C   0  0  0  0  0  0  0  0  0  0  0  0
   17.0568   -9.7700   12.0732 N   0  0  0  0  0  0  0  0  0  0  0  0
   16.0860   -9.0505   12.8882 C   0  0  0  0  0  0  0  0  0  0  0  0
   15.7651   -9.8649   14.1446 C   0  0  0  0  0  0  0  0  0  0  0  0
   16.9751  -10.2729   14.8744 N   0  0  0  0  0  0  0  0  0  0  0  0
   17.8952  -11.0148   14.0012 C   0  0  0  0  0  0  0  0  0  0  0  0
   18.2685  -10.2290   12.7412 C   0  0  0  0  0  0  0  0  0  0  0  0
   16.9444   -9.7388   10.6380 C   0  0  0  0  0  0  0  0  0  0  0  0
   15.9840  -10.4651    9.9953 N   0  0  0  0  0  0  0  0  0  0  0  0
   16.1919  -10.1778    8.3662 S   0  0  0  0  0  0  0  0  0  0  0  0
   17.4905   -9.1475    8.4404 C   0  0  0  0  0  0  0  0  0  0  0  0
   17.8043   -8.9979    9.7821 C   0  0  0  0  0  0  0  0  0  0  0  0
   18.8903   -8.1939   10.1454 C   0  0  0  0  0  0  0  0  0  0  0  0
   19.6280   -7.5493    9.1375 C   0  0  0  0  0  0  0  0  0  0  0  0
   19.2833   -7.7139    7.7818 C   0  0  0  0  0  0  0  0  0  0  0  0
   18.1994   -8.5267    7.4175 C   0  0  0  0  0  0  0  0  0  0  0  0
   15.5912   -8.2150   16.5701 C   0  0  0  0  0  0  0  0  0  0  0  0
   16.1713   -8.3805   17.9665 C   0  0  0  0  0  0  0  0  0  0  0  0
   15.3490   -7.6738   18.9365 N   0  0  0  0  0  0  0  0  0  0  0  0
   14.0571   -7.1573   18.6027 C   0  0  0  0  0  0  0  0  0  0  0  0
   13.6119   -7.3078   17.4324 O   0  0  0  0  0  0  0  0  0  0  0  0
   15.6919   -7.5471   19.8505 H   0  0  0  0  0  0  0  0  0  0  0  0
   13.2564   -6.4561   19.6358 C   0  0  0  0  0  0  0  0  0  0  0  0
   12.0783   -5.7300   19.3367 C   0  0  0  0  0  0  0  0  0  0  0  0
   11.3715   -5.0936   20.3612 C   0  0  0  0  0  0  0  0  0  0  0  0
   11.8173   -5.1674   21.6809 C   0  0  0  0  0  0  0  0  0  0  0  0
   12.9812   -5.8823   21.9928 C   0  0  0  0  0  0  0  0  0  0  0  0
   13.6886   -6.5187   20.9700 C   0  0  0  0  0  0  0  0  0  0  0  0
   11.5825   -5.6256   18.0049 N   0  0  0  0  0  0  0  0  0  0  0  0
   12.0617   -6.0646   17.2654 H   0  0  0  0  0  0  0  0  0  0  0  0
   10.7607   -5.1144   17.8243 H   0  0  0  0  0  0  0  0  0  0  0  0
   13.4557   -5.9764   23.3040 O   0  0  0  0  0  0  0  0  0  0  0  0
   14.7613   -5.5599   23.6800 C   0  0  0  0  0  0  0  0  0  0  0  0
  9 10  2  0  0  0
 10 11  1  0  0  0
 11 12  1  0  0  0
 12 13  2  0  0  0
 13 14  1  0  0  0
 14 15  2  0  0  0
 15 16  1  0  0  0
 16 17  2  0  0  0
  9  3  1  0  0  0
  3  4  1  0  0  0
  4  5  1  0  0  0
  5  6  1  0  0  0
  6  7  1  0  0  0
  7  8  1  0  0  0
  6  2  1  0  0  0
  2  1  1  0  0  0
  1 18  1  0  0  0
 18 19  1  0  0  0
 19 20  1  0  0  0
 20 21  1  0  0  0
 21 22  2  0  0  0
 21 24  1  0  0  0
 24 25  2  0  0  0
 25 26  1  0  0  0
 26 27  2  0  0  0
 27 28  1  0  0  0
 28 29  2  0  0  0
 28 33  1  0  0  0
 33 34  1  0  0  0
 25 30  1  0  0  0
 13  9  1  0  0  0
  8  3  1  0  0  0
 29 24  1  0  0  0
 17 12  1  0  0  0
 20 23  1  0  0  0
 30 31  1  0  0  0
 30 32  1  0  0  0
M  END
>  <minimizedAffinity>
-9.16582

>  <minimizedRMSD>
2.10908

$$$$
CHEMBL5089433 PubChem-156898657


 36 40  0  0  0  0  0  0  0  0999 V2000
   13.6607  -10.7224   15.5886 C   0  0  0  0  0  0  0  0  0  0  0  0
   14.7724  -10.1704   14.7586 C   0  0  0  0  0  0  0  0  0  0  0  0
   15.7695   -9.4204   15.2792 C   0  0  0  0  0  0  0  0  0  0  0  0
   16.8142   -8.8060   14.3551 C   0  0  0  0  0  0  0  0  0  0  0  0
   16.6832   -9.1781   12.9433 N   0  0  0  0  0  0  0  0  0  0  0  0
   15.7202   -9.9088   12.4730 C   0  0  0  0  0  0  0  0  0  0  0  0
   14.7242  -10.4217   13.3536 N   0  0  0  0  0  0  0  0  0  0  0  0
   13.9872  -10.9608   12.9855 H   0  0  0  0  0  0  0  0  0  0  0  0
   18.2267   -9.0293   14.8208 C   0  0  0  0  0  0  0  0  0  0  0  0
   18.7697   -8.0991   15.7150 C   0  0  0  0  0  0  0  0  0  0  0  0
   20.0770   -8.2446   16.1846 C   0  0  0  0  0  0  0  0  0  0  0  0
   20.8549   -9.3228   15.7601 C   0  0  0  0  0  0  0  0  0  0  0  0
   20.3266  -10.2548   14.8644 C   0  0  0  0  0  0  0  0  0  0  0  0
   19.0187  -10.1174   14.3883 C   0  0  0  0  0  0  0  0  0  0  0  0
   18.4250  -11.3242   13.2572 Cl  0  0  0  0  0  0  0  0  0  0  0  0
   15.8445   -9.0891   16.7258 C   0  0  0  0  0  0  0  0  0  0  0  0
   16.5060   -9.8338   17.4996 O   0  0  0  0  0  0  0  0  0  0  0  0
   15.1371   -7.9670   17.2584 N   0  0  0  0  0  0  0  0  0  0  0  0
   14.6119   -7.4016   16.6471 H   0  0  0  0  0  0  0  0  0  0  0  0
   15.1676   -7.6330   18.6725 C   0  0  0  0  0  0  0  0  0  0  0  0
   13.8358   -7.1222   19.0913 C   0  0  0  0  0  0  0  0  0  0  0  0
   13.5229   -6.6090   20.3391 C   0  0  0  0  0  0  0  0  0  0  0  0
   12.2457   -6.1514   20.4418 N   0  0  0  0  0  0  0  0  0  0  0  0
   11.5361   -6.2770   19.2956 C   0  0  0  0  0  0  0  0  0  0  0  0
   12.4936   -6.9725   18.0984 S   0  0  0  0  0  0  0  0  0  0  0  0
   15.6542  -10.2294   11.0796 N   0  0  0  0  0  0  0  0  0  0  0  0
   14.9868  -10.8955   10.7966 H   0  0  0  0  0  0  0  0  0  0  0  0
   16.4859   -9.6542   10.0672 C   0  0  0  0  0  0  0  0  0  0  0  0
   16.3019   -9.9079    8.7453 N   0  0  0  0  0  0  0  0  0  0  0  0
   17.2850   -9.1802    8.1890 C   0  0  0  0  0  0  0  0  0  0  0  0
   17.5906   -9.0517    6.8367 C   0  0  0  0  0  0  0  0  0  0  0  0
   18.6781   -8.2248    6.4960 C   0  0  0  0  0  0  0  0  0  0  0  0
   19.4188   -7.5598    7.5002 C   0  0  0  0  0  0  0  0  0  0  0  0
   19.0818   -7.7127    8.8585 C   0  0  0  0  0  0  0  0  0  0  0  0
   18.0009   -8.5378    9.1550 C   0  0  0  0  0  0  0  0  0  0  0  0
   17.4971   -8.8383   10.3202 O   0  0  0  0  0  0  0  0  0  0  0  0
  1  2  1  0  0  0
  2  3  2  0  0  0
  3  4  1  0  0  0
  4  5  1  0  0  0
  5  6  2  0  0  0
  6  7  1  0  0  0
  6 26  1  0  0  0
 26 28  1  0  0  0
 28 29  2  0  0  0
 29 30  1  0  0  0
 30 31  2  0  0  0
 31 32  1  0  0  0
 32 33  2  0  0  0
 33 34  1  0  0  0
 34 35  2  0  0  0
 35 36  1  0  0  0
  4  9  1  0  0  0
  9 10  2  0  0  0
 10 11  1  0  0  0
 11 12  2  0  0  0
 12 13  1  0  0  0
 13 14  2  0  0  0
 14 15  1  0  0  0
  3 16  1  0  0  0
 16 17  2  0  0  0
 16 18  1  0  0  0
 18 20  1  0  0  0
 20 21  1  0  0  0
 21 22  2  0  0  0
 22 23  1  0  0  0
 23 24  2  0  0  0
 24 25  1  0  0  0
  7  2  1  0  0  0
 36 28  1  0  0  0
 35 30  1  0  0  0
 14  9  1  0  0  0
 25 21  1  0  0  0
  7  8  1  0  0  0
 26 27  1  0  0  0
 18 19  1  0  0  0
M  END
>  <minimizedAffinity>
-1.69283

>  <minimizedRMSD>
2.10919

$$$$
CHEMBL1494478 8829443 MCULE-3955858127 MolPort-000-039-815 PubChem-3184406 ZINC000008829443 ZINC08829443


 27 30  0  0  0  0  0  0  0  0999 V2000
   15.6961   -9.0472   13.8301 C   0  0  0  0  0  0  0  0  0  0  0  0
   16.7765   -9.7261   13.1323 N   0  0  0  0  0  0  0  0  0  0  0  0
   16.8835   -9.9902   11.8193 C   0  0  0  0  0  0  0  0  0  0  0  0
   18.0175  -10.6640   11.5453 N   0  0  0  0  0  0  0  0  0  0  0  0
   18.6586  -10.8244   12.6957 N   0  0  0  0  0  0  0  0  0  0  0  0
   17.8995  -10.2513   13.6496 C   0  0  0  0  0  0  0  0  0  0  0  0
   15.8461   -9.6633   10.7969 C   0  0  0  0  0  0  0  0  0  0  0  0
   16.4430   -9.6514    9.4703 N   0  0  0  0  0  0  0  0  0  0  0  0
   16.1159  -10.4794    8.4834 N   0  0  0  0  0  0  0  0  0  0  0  0
   16.8766  -10.2635    7.4100 N   0  0  0  0  0  0  0  0  0  0  0  0
   17.7137   -9.2661    7.7512 C   0  0  0  0  0  0  0  0  0  0  0  0
   18.7182   -8.6729    6.9934 C   0  0  0  0  0  0  0  0  0  0  0  0
   19.4638   -7.6483    7.6104 C   0  0  0  0  0  0  0  0  0  0  0  0
   19.1896   -7.2568    8.9431 C   0  0  0  0  0  0  0  0  0  0  0  0
   18.1646   -7.8828    9.6795 C   0  0  0  0  0  0  0  0  0  0  0  0
   17.4505   -8.8868    9.0306 C   0  0  0  0  0  0  0  0  0  0  0  0
   18.3346  -10.2244   15.3876 S   0  0  0  0  0  0  0  0  0  0  0  0
   17.4488   -8.6630   15.6792 C   0  0  0  0  0  0  0  0  0  0  0  0
   16.5521   -8.7845   16.8625 C   0  0  0  0  0  0  0  0  0  0  0  0
   16.5665   -9.8372   17.5548 O   0  0  0  0  0  0  0  0  0  0  0  0
   15.6970   -7.6895   17.2047 N   0  0  0  0  0  0  0  0  0  0  0  0
   15.7373   -6.8859   16.6375 H   0  0  0  0  0  0  0  0  0  0  0  0
   14.7878   -7.6748   18.3093 C   0  0  0  0  0  0  0  0  0  0  0  0
   15.1509   -7.8400   19.5970 N   0  0  0  0  0  0  0  0  0  0  0  0
   14.0795   -7.7815   20.4341 C   0  0  0  0  0  0  0  0  0  0  0  0
   12.8463   -7.5682   19.8160 C   0  0  0  0  0  0  0  0  0  0  0  0
   13.1374   -7.4523   18.1597 S   0  0  0  0  0  0  0  0  0  0  0  0
  1  2  1  0  0  0
  2  3  1  0  0  0
  3  7  1  0  0  0
  3  4  2  0  0  0
  7  8  1  0  0  0
  8  9  1  0  0  0
  9 10  2  0  0  0
 10 11  1  0  0  0
 11 12  2  0  0  0
 12 13  1  0  0  0
 13 14  2  0  0  0
 14 15  1  0  0  0
 15 16  2  0  0  0
 16  8  1  0  0  0
 16 11  1  0  0  0
  4  5  1  0  0  0
  5  6  2  0  0  0
  6 17  1  0  0  0
  6  2  1  0  0  0
 17 18  1  0  0  0
 18 19  1  0  0  0
 19 20  2  0  0  0
 19 21  1  0  0  0
 21 23  1  0  0  0
 23 24  2  0  0  0
 24 25  1  0  0  0
 25 26  2  0  0  0
 26 27  1  0  0  0
 27 23  1  0  0  0
 21 22  1  0  0  0
M  END
>  <minimizedAffinity>
-6.70406

>  <minimizedRMSD>
2.11145

$$$$
CHEMBL4104373 PubChem-129906444


 31 35  0  0  0  0  0  0  0  0999 V2000
   17.0630   -8.8047   10.1954 N   0  0  0  0  0  0  0  0  0  0  0  0
   16.6702   -7.6747   11.0479 C   0  0  0  0  0  0  0  0  0  0  0  0
   15.6595   -8.1047   12.1082 C   0  0  0  0  0  0  0  0  0  0  0  0
   16.1003   -9.3550   12.7246 N   0  0  0  0  0  0  0  0  0  0  0  0
   16.4690  -10.4921   11.8727 C   0  0  0  0  0  0  0  0  0  0  0  0
   16.4410  -10.1153   10.3911 C   0  0  0  0  0  0  0  0  0  0  0  0
   16.1335   -9.4603   14.1594 C   0  0  0  0  0  0  0  0  0  0  0  0
   15.4460   -8.6591   14.8500 O   0  0  0  0  0  0  0  0  0  0  0  0
   19.3203   -8.0542    4.2345 C   0  0  0  0  0  0  0  0  0  0  0  0
   17.9543   -8.3473    4.2194 C   0  0  0  0  0  0  0  0  0  0  0  0
   17.2687   -8.5529    5.4193 C   0  0  0  0  0  0  0  0  0  0  0  0
   17.9458   -8.4658    6.6393 C   0  0  0  0  0  0  0  0  0  0  0  0
   19.3261   -8.1701    6.6638 C   0  0  0  0  0  0  0  0  0  0  0  0
   20.0045   -7.9664    5.4499 C   0  0  0  0  0  0  0  0  0  0  0  0
   19.9841   -8.0991    7.9049 C   0  0  0  0  0  0  0  0  0  0  0  0
   19.2493   -8.3133    9.0992 C   0  0  0  0  0  0  0  0  0  0  0  0
   17.8638   -8.5857    9.0208 C   0  0  0  0  0  0  0  0  0  0  0  0
   17.2689   -8.6643    7.7984 N   0  0  0  0  0  0  0  0  0  0  0  0
   19.9214   -8.2815   10.3311 C   0  0  0  0  0  0  0  0  0  0  0  0
   21.2913   -8.0200   10.3906 C   0  0  0  0  0  0  0  0  0  0  0  0
   22.0105   -7.7931    9.2173 C   0  0  0  0  0  0  0  0  0  0  0  0
   21.3624   -7.8344    7.9818 C   0  0  0  0  0  0  0  0  0  0  0  0
   16.9771  -10.4681   14.8497 C   0  0  0  0  0  0  0  0  0  0  0  0
   17.2014  -10.4239   16.2448 C   0  0  0  0  0  0  0  0  0  0  0  0
   18.0297  -11.3743   16.8506 C   0  0  0  0  0  0  0  0  0  0  0  0
   18.6464  -12.3654   16.0849 C   0  0  0  0  0  0  0  0  0  0  0  0
   18.4367  -12.4120   14.7063 C   0  0  0  0  0  0  0  0  0  0  0  0
   17.6099  -11.4676   14.0943 C   0  0  0  0  0  0  0  0  0  0  0  0
   16.5720   -9.4423   17.0640 N   0  0  0  0  0  0  0  0  0  0  0  0
   15.9852   -8.7645   16.6573 H   0  0  0  0  0  0  0  0  0  0  0  0
   16.7239   -9.4421   18.0367 H   0  0  0  0  0  0  0  0  0  0  0  0
  9 10  2  0  0  0
 10 11  1  0  0  0
 11 12  2  0  0  0
 12 13  1  0  0  0
 13 14  2  0  0  0
 13 15  1  0  0  0
 15 16  2  0  0  0
 16 17  1  0  0  0
 17 18  2  0  0  0
 17  1  1  0  0  0
  1  2  1  0  0  0
  2  3  1  0  0  0
  3  4  1  0  0  0
  4  5  1  0  0  0
  5  6  1  0  0  0
  4  7  1  0  0  0
  7  8  2  0  0  0
  7 23  1  0  0  0
 23 24  2  0  0  0
 24 25  1  0  0  0
 25 26  2  0  0  0
 26 27  1  0  0  0
 27 28  2  0  0  0
 24 29  1  0  0  0
 16 19  1  0  0  0
 19 20  2  0  0  0
 20 21  1  0  0  0
 21 22  2  0  0  0
 14  9  1  0  0  0
 22 15  1  0  0  0
 18 12  1  0  0  0
  6  1  1  0  0  0
 28 23  1  0  0  0
 29 30  1  0  0  0
 29 31  1  0  0  0
M  END
>  <minimizedAffinity>
7.16808

>  <minimizedRMSD>
2.11281

$$$$
CHEMBL3977452 PubChem-68029231


 38 42  0  0  0  0  0  0  0  0999 V2000
   17.2653  -10.8385   15.4480 C   0  0  0  0  0  0  0  0  0  0  0  0
   16.3173  -10.0055   14.8307 C   0  0  0  0  0  0  0  0  0  0  0  0
   15.5711   -9.0889   15.5714 C   0  0  0  0  0  0  0  0  0  0  0  0
   15.7549   -8.9821   16.9538 C   0  0  0  0  0  0  0  0  0  0  0  0
   16.7009   -9.8005   17.5813 C   0  0  0  0  0  0  0  0  0  0  0  0
   17.4509  -10.7224   16.8446 C   0  0  0  0  0  0  0  0  0  0  0  0
   18.3759  -11.4657   17.5003 F   0  0  0  0  0  0  0  0  0  0  0  0
   14.9687   -8.0144   17.7377 C   0  0  0  0  0  0  0  0  0  0  0  0
   14.3192   -7.1067   17.1495 O   0  0  0  0  0  0  0  0  0  0  0  0
   14.9409   -8.1033   19.1666 N   0  0  0  0  0  0  0  0  0  0  0  0
   15.4559   -8.8193   19.6041 H   0  0  0  0  0  0  0  0  0  0  0  0
   14.1834   -7.1796   20.0011 C   0  0  0  0  0  0  0  0  0  0  0  0
   15.0576   -6.5868   21.0667 C   0  0  0  0  0  0  0  0  0  0  0  0
   14.5276   -5.7449   22.0567 C   0  0  0  0  0  0  0  0  0  0  0  0
   15.3630   -5.2089   23.0413 C   0  0  0  0  0  0  0  0  0  0  0  0
   16.7281   -5.5115   23.0413 C   0  0  0  0  0  0  0  0  0  0  0  0
   17.2593   -6.3507   22.0577 C   0  0  0  0  0  0  0  0  0  0  0  0
   16.4244   -6.8873   21.0728 C   0  0  0  0  0  0  0  0  0  0  0  0
   12.9907   -7.9023   20.6077 C   0  0  0  0  0  0  0  0  0  0  0  0
   12.0615   -8.2071   19.6129 O   0  0  0  0  0  0  0  0  0  0  0  0
   11.7551   -7.3874   19.1945 H   0  0  0  0  0  0  0  0  0  0  0  0
   18.0109  -13.2035   14.9536 C   0  0  0  0  0  0  0  0  0  0  0  0
   18.0293  -11.7801   14.6528 N   0  0  0  0  0  0  0  0  0  0  0  0
   18.8576  -11.3811   13.5116 C   0  0  0  0  0  0  0  0  0  0  0  0
   19.4253   -9.9773   13.6928 C   0  0  0  0  0  0  0  0  0  0  0  0
   19.0889   -9.2074   12.4286 C   0  0  0  0  0  0  0  0  0  0  0  0
   18.2626  -10.0871   11.6220 N   0  0  0  0  0  0  0  0  0  0  0  0
   18.0759  -11.3983   12.2101 C   0  0  0  0  0  0  0  0  0  0  0  0
   17.6593   -9.7207   10.3689 C   0  0  0  0  0  0  0  0  0  0  0  0
   16.4359  -10.2273   10.0270 N   0  0  0  0  0  0  0  0  0  0  0  0
   15.8220   -9.8960    8.8492 C   0  0  0  0  0  0  0  0  0  0  0  0
   16.4200   -9.0349    7.9759 N   0  0  0  0  0  0  0  0  0  0  0  0
   17.6303   -8.5223    8.3023 C   0  0  0  0  0  0  0  0  0  0  0  0
   18.3369   -7.6593    7.5612 N   0  0  0  0  0  0  0  0  0  0  0  0
   19.4575   -7.4312    8.2904 C   0  0  0  0  0  0  0  0  0  0  0  0
   19.4537   -8.1495    9.4885 C   0  0  0  0  0  0  0  0  0  0  0  0
   18.2632   -8.8414    9.4624 C   0  0  0  0  0  0  0  0  0  0  0  0
   18.0974   -7.2772    6.6861 H   0  0  0  0  0  0  0  0  0  0  0  0
 22 23  1  0  0  0
 24 23  1  0  0  0
 24 25  1  0  0  0
 25 26  1  0  0  0
 26 27  1  0  0  0
 27 28  1  0  0  0
 27 29  1  0  0  0
 29 30  2  0  0  0
 30 31  1  0  0  0
 31 32  2  0  0  0
 32 33  1  0  0  0
 33 34  1  0  0  0
 34 35  1  0  0  0
 35 36  2  0  0  0
 36 37  1  0  0  0
 23  1  1  0  0  0
  1  2  2  0  0  0
  2  3  1  0  0  0
  3  4  2  0  0  0
  4  5  1  0  0  0
  5  6  2  0  0  0
  6  7  1  0  0  0
  4  8  1  0  0  0
  8  9  2  0  0  0
  8 10  1  0  0  0
 10 12  1  0  0  0
 12 19  1  0  0  0
 19 20  1  0  0  0
 12 13  1  0  0  0
 13 14  2  0  0  0
 14 15  1  0  0  0
 15 16  2  0  0  0
 16 17  1  0  0  0
 17 18  2  0  0  0
 28 24  1  0  0  0
 37 29  1  0  0  0
  6  1  1  0  0  0
 18 13  1  0  0  0
 37 33  2  0  0  0
 34 38  1  0  0  0
 10 11  1  0  0  0
 20 21  1  0  0  0
M  END
>  <minimizedAffinity>
-5.84522

>  <minimizedRMSD>
2.11289

$$$$
CHEMBL1374741 919823 MCULE-7865407302 MolPort-000-039-806 PubChem-1165978 ZINC000000919823 ZINC00919823


 32 35  0  0  0  0  0  0  0  0999 V2000
   17.8081  -10.7148   15.5131 S   0  0  0  0  0  0  0  0  0  0  0  0
   17.5749  -10.3728   13.7691 C   0  0  0  0  0  0  0  0  0  0  0  0
   18.5374  -10.5326   12.8410 N   0  0  0  0  0  0  0  0  0  0  0  0
   18.0080  -10.1893   11.6734 N   0  0  0  0  0  0  0  0  0  0  0  0
   16.7338   -9.8230   11.9142 C   0  0  0  0  0  0  0  0  0  0  0  0
   16.4306   -9.9337   13.2183 N   0  0  0  0  0  0  0  0  0  0  0  0
   15.1547   -9.6823   13.8702 C   0  0  0  0  0  0  0  0  0  0  0  0
   15.7686   -9.4283   10.8455 C   0  0  0  0  0  0  0  0  0  0  0  0
   16.3954   -9.5589    9.5383 N   0  0  0  0  0  0  0  0  0  0  0  0
   16.0871  -10.4853    8.6360 N   0  0  0  0  0  0  0  0  0  0  0  0
   16.8732  -10.3850    7.5637 N   0  0  0  0  0  0  0  0  0  0  0  0
   17.7057   -9.3577    7.8172 C   0  0  0  0  0  0  0  0  0  0  0  0
   18.7265   -8.8454    7.0217 C   0  0  0  0  0  0  0  0  0  0  0  0
   19.4554   -7.7556    7.5395 C   0  0  0  0  0  0  0  0  0  0  0  0
   19.1497   -7.2231    8.8158 C   0  0  0  0  0  0  0  0  0  0  0  0
   18.1105   -7.7714    9.5941 C   0  0  0  0  0  0  0  0  0  0  0  0
   17.4153   -8.8455    9.0437 C   0  0  0  0  0  0  0  0  0  0  0  0
   18.2051   -8.9825   15.9028 C   0  0  0  0  0  0  0  0  0  0  0  0
   16.5106   -8.5084   17.7089 N   0  0  0  0  0  0  0  0  0  0  0  0
   16.9941   -8.2625   16.3829 C   0  0  0  0  0  0  0  0  0  0  0  0
   16.4173   -7.4459   15.6169 O   0  0  0  0  0  0  0  0  0  0  0  0
   17.0375   -9.1272   18.2647 H   0  0  0  0  0  0  0  0  0  0  0  0
   13.0276   -7.1856   18.1878 C   0  0  0  0  0  0  0  0  0  0  0  0
   13.0830   -6.8247   19.5441 C   0  0  0  0  0  0  0  0  0  0  0  0
   14.2528   -7.0195   20.2841 C   0  0  0  0  0  0  0  0  0  0  0  0
   15.3760   -7.5851   19.6591 C   0  0  0  0  0  0  0  0  0  0  0  0
   15.3368   -7.9440   18.3078 C   0  0  0  0  0  0  0  0  0  0  0  0
   14.1560   -7.7426   17.5783 C   0  0  0  0  0  0  0  0  0  0  0  0
   10.6519   -7.6784   17.7070 C   0  0  0  0  0  0  0  0  0  0  0  0
   11.8699   -7.0027   17.4267 O   0  0  0  0  0  0  0  0  0  0  0  0
   14.2737   -6.6441   21.6311 O   0  0  0  0  0  0  0  0  0  0  0  0
   15.4805   -6.4021   22.3425 C   0  0  0  0  0  0  0  0  0  0  0  0
 29 30  1  0  0  0
 30 23  1  0  0  0
 23 24  2  0  0  0
 24 25  1  0  0  0
 25 31  1  0  0  0
 25 26  2  0  0  0
 31 32  1  0  0  0
 26 27  1  0  0  0
 27 19  1  0  0  0
 27 28  2  0  0  0
 19 20  1  0  0  0
 20 21  2  0  0  0
 20 18  1  0  0  0
 18  1  1  0  0  0
  1  2  1  0  0  0
  2  3  2  0  0  0
  3  4  1  0  0  0
  4  5  2  0  0  0
  5  8  1  0  0  0
  5  6  1  0  0  0
  8  9  1  0  0  0
  9 10  1  0  0  0
 10 11  2  0  0  0
 11 12  1  0  0  0
 12 13  2  0  0  0
 13 14  1  0  0  0
 14 15  2  0  0  0
 15 16  1  0  0  0
 16 17  2  0  0  0
 17  9  1  0  0  0
 17 12  1  0  0  0
  6  7  1  0  0  0
  6  2  1  0  0  0
 28 23  1  0  0  0
 19 22  1  0  0  0
M  END
>  <minimizedAffinity>
-7.04165

>  <minimizedRMSD>
2.11307

$$$$
CHEMBL4436213 PubChem-140868210


 28 30  0  0  0  0  0  0  0  0999 V2000
   16.0506   -9.2005   13.5071 C   0  0  0  0  0  0  0  0  0  0  0  0
   16.8077   -9.9594   12.6972 C   0  0  0  0  0  0  0  0  0  0  0  0
   16.3560  -10.2299   11.3086 C   0  0  0  0  0  0  0  0  0  0  0  0
   15.4822  -11.1222   11.1217 O   0  0  0  0  0  0  0  0  0  0  0  0
   16.8710   -9.5060   10.1728 N   0  0  0  0  0  0  0  0  0  0  0  0
   18.1640   -9.0427   10.1727 C   0  0  0  0  0  0  0  0  0  0  0  0
   18.6101   -8.3813    9.0458 C   0  0  0  0  0  0  0  0  0  0  0  0
   17.7554   -8.2137    7.9498 C   0  0  0  0  0  0  0  0  0  0  0  0
   16.4917   -8.6862    7.9477 N   0  0  0  0  0  0  0  0  0  0  0  0
   16.0568   -9.3377    9.0702 C   0  0  0  0  0  0  0  0  0  0  0  0
   18.3903   -7.5614    6.9709 N   0  0  0  0  0  0  0  0  0  0  0  0
   19.6286   -7.3458    7.5055 C   0  0  0  0  0  0  0  0  0  0  0  0
   19.7986   -7.8340    8.7702 N   0  0  0  0  0  0  0  0  0  0  0  0
   17.7138   -8.4396   16.8429 C   0  0  0  0  0  0  0  0  0  0  0  0
   16.6027   -8.0554   17.6051 C   0  0  0  0  0  0  0  0  0  0  0  0
   15.3155   -8.0492   17.0204 C   0  0  0  0  0  0  0  0  0  0  0  0
   15.1807   -8.4326   15.6777 C   0  0  0  0  0  0  0  0  0  0  0  0
   16.2864   -8.8184   14.9157 C   0  0  0  0  0  0  0  0  0  0  0  0
   17.5539   -8.8166   15.5091 C   0  0  0  0  0  0  0  0  0  0  0  0
   16.7908   -7.6844   18.9326 O   0  0  0  0  0  0  0  0  0  0  0  0
   18.9829   -8.4480   17.4083 O   0  0  0  0  0  0  0  0  0  0  0  0
   17.6508   -7.6942   19.3044 H   0  0  0  0  0  0  0  0  0  0  0  0
   19.0987   -8.1962   18.3034 H   0  0  0  0  0  0  0  0  0  0  0  0
   14.1395   -7.6623   17.7556 N   0  0  0  0  0  0  0  0  0  0  0  0
   13.9881   -7.9794   18.9532 O   0  0  0  0  0  0  0  0  0  0  0  0
   13.1543   -6.9271   17.1368 O   0  0  0  0  0  0  0  0  0  0  0  0
   18.0266  -10.5881   13.1521 C   0  0  0  0  0  0  0  0  0  0  0  0
   19.0036  -11.0941   13.5116 N   0  0  0  0  0  0  0  0  0  0  0  0
 14 15  2  0  0  0
 15 16  1  0  0  0
 16 17  2  0  0  0
 17 18  1  0  0  0
 18 19  2  0  0  0
 18  1  1  0  0  0
  1  2  2  0  0  0
  2 27  1  0  0  0
 27 28  3  0  0  0
  2  3  1  0  0  0
  3  4  2  0  0  0
  3  5  1  0  0  0
  5  6  1  0  0  0
  6  7  2  0  0  0
  7  8  1  0  0  0
  8  9  1  0  0  0
  9 10  2  0  0  0
  8 11  2  0  0  0
 11 12  1  0  0  0
 12 13  2  0  0  0
 16 24  1  0  0  0
 24 25  2  0  0  0
 24 26  1  0  0  0
 15 20  1  0  0  0
 14 21  1  0  0  0
 19 14  1  0  0  0
 10  5  1  0  0  0
 13  7  1  0  0  0
 20 22  1  0  0  0
 21 23  1  0  0  0
M  CHG 1  24   1
M  CHG 1  26  -1
M  END
>  <minimizedAffinity>
-4.75429

>  <minimizedRMSD>
2.11322

$$$$
CHEMBL44882 PubChem-44290970


 36 39  0  0  0  0  0  0  0  0999 V2000
   17.4021   -9.9937   13.5696 C   0  0  0  0  0  0  0  0  0  0  0  0
   16.3891  -10.7110   14.2234 C   0  0  0  0  0  0  0  0  0  0  0  0
   16.2245  -10.6007   15.6067 C   0  0  0  0  0  0  0  0  0  0  0  0
   17.0747   -9.7750   16.3487 C   0  0  0  0  0  0  0  0  0  0  0  0
   18.0820   -9.0525   15.7015 C   0  0  0  0  0  0  0  0  0  0  0  0
   18.2450   -9.1644   14.3176 C   0  0  0  0  0  0  0  0  0  0  0  0
   16.6725   -9.7235   11.1205 C   0  0  0  0  0  0  0  0  0  0  0  0
   15.5424   -9.2558   11.4303 O   0  0  0  0  0  0  0  0  0  0  0  0
   17.6037  -10.0828   12.1525 N   0  0  0  0  0  0  0  0  0  0  0  0
   18.4763  -10.4282   11.8548 H   0  0  0  0  0  0  0  0  0  0  0  0
   17.0151   -9.8934    9.6806 C   0  0  0  0  0  0  0  0  0  0  0  0
   17.8681   -9.0211    8.9539 C   0  0  0  0  0  0  0  0  0  0  0  0
   18.1189   -9.2911    7.5837 C   0  0  0  0  0  0  0  0  0  0  0  0
   17.5486  -10.3665    6.9819 N   0  0  0  0  0  0  0  0  0  0  0  0
   16.7304  -11.2109    7.6590 C   0  0  0  0  0  0  0  0  0  0  0  0
   16.4545  -10.9885    9.0064 C   0  0  0  0  0  0  0  0  0  0  0  0
   18.9527   -8.4508    6.8403 C   0  0  0  0  0  0  0  0  0  0  0  0
   19.5450   -7.3379    7.4405 C   0  0  0  0  0  0  0  0  0  0  0  0
   19.3056   -7.0605    8.7872 C   0  0  0  0  0  0  0  0  0  0  0  0
   18.4741   -7.8962    9.5366 C   0  0  0  0  0  0  0  0  0  0  0  0
   16.8805   -9.6298   17.8204 C   0  0  0  0  0  0  0  0  0  0  0  0
   15.9278   -8.4827   18.1276 C   0  0  0  0  0  0  0  0  0  0  0  0
   16.0315   -7.4554   17.0991 N   0  0  0  0  0  0  0  0  0  0  0  0
   15.3600   -7.5685   15.8423 C   0  0  0  0  0  0  0  0  0  0  0  0
   14.6341   -8.5724   15.6048 O   0  0  0  0  0  0  0  0  0  0  0  0
   16.5816   -6.6582   17.2755 H   0  0  0  0  0  0  0  0  0  0  0  0
   15.5202   -6.5170   14.8237 C   0  0  0  0  0  0  0  0  0  0  0  0
   16.1438   -5.3035   15.1493 C   0  0  0  0  0  0  0  0  0  0  0  0
   16.2967   -4.3059   14.1821 C   0  0  0  0  0  0  0  0  0  0  0  0
   15.8253   -4.5142   12.8824 C   0  0  0  0  0  0  0  0  0  0  0  0
   15.2025   -5.7200   12.5493 C   0  0  0  0  0  0  0  0  0  0  0  0
   15.0512   -6.7183   13.5163 C   0  0  0  0  0  0  0  0  0  0  0  0
   16.2402   -7.9133   19.4737 C   0  0  0  0  0  0  0  0  0  0  0  0
   17.2937   -7.2473   19.6653 O   0  0  0  0  0  0  0  0  0  0  0  0
   15.3748   -8.1511   20.5343 O   0  0  0  0  0  0  0  0  0  0  0  0
   14.5906   -8.6454   20.3974 H   0  0  0  0  0  0  0  0  0  0  0  0
  7  8  2  0  0  0
  7 11  1  0  0  0
 11 12  2  0  0  0
 12 13  1  0  0  0
 13 14  2  0  0  0
 14 15  1  0  0  0
 15 16  2  0  0  0
 13 17  1  0  0  0
 17 18  2  0  0  0
 18 19  1  0  0  0
 19 20  2  0  0  0
  7  9  1  0  0  0
  9  1  1  0  0  0
  1  2  2  0  0  0
  2  3  1  0  0  0
  3  4  2  0  0  0
  4 21  1  0  0  0
 22 21  1  0  0  0
 22 23  1  0  0  0
 23 24  1  0  0  0
 24 25  2  0  0  0
 24 27  1  0  0  0
 27 28  2  0  0  0
 28 29  1  0  0  0
 29 30  2  0  0  0
 30 31  1  0  0  0
 31 32  2  0  0  0
 22 33  1  0  0  0
 33 34  2  0  0  0
 33 35  1  0  0  0
  4  5  1  0  0  0
  5  6  2  0  0  0
 16 11  1  0  0  0
  6  1  1  0  0  0
 20 12  1  0  0  0
 32 27  1  0  0  0
  9 10  1  0  0  0
 23 26  1  0  0  0
 35 36  1  0  0  0
M  END
>  <minimizedAffinity>
19.75068

>  <minimizedRMSD>
2.11579

$$$$
CHEMBL2164426 PubChem-59744353


 29 32  0  0  0  0  0  0  0  0999 V2000
   17.9192   -9.1292   14.7748 C   0  0  0  0  0  0  0  0  0  0  0  0
   16.6585   -8.7079   14.3433 C   0  0  0  0  0  0  0  0  0  0  0  0
   16.2707   -8.9056   13.0156 C   0  0  0  0  0  0  0  0  0  0  0  0
   17.1346   -9.5295   12.0989 C   0  0  0  0  0  0  0  0  0  0  0  0
   18.3972   -9.9499   12.5482 C   0  0  0  0  0  0  0  0  0  0  0  0
   18.7870   -9.7531   13.8753 C   0  0  0  0  0  0  0  0  0  0  0  0
   16.7043   -9.7317   10.6873 C   0  0  0  0  0  0  0  0  0  0  0  0
   15.5752  -10.5296   10.4002 C   0  0  0  0  0  0  0  0  0  0  0  0
   15.1575  -10.7302    9.0695 C   0  0  0  0  0  0  0  0  0  0  0  0
   15.8378  -10.1562    8.0359 N   0  0  0  0  0  0  0  0  0  0  0  0
   16.9215   -9.3876    8.3037 C   0  0  0  0  0  0  0  0  0  0  0  0
   17.3636   -9.1657    9.5802 C   0  0  0  0  0  0  0  0  0  0  0  0
   18.4793   -8.3579    9.4924 C   0  0  0  0  0  0  0  0  0  0  0  0
   18.6214   -8.1370    8.1217 C   0  0  0  0  0  0  0  0  0  0  0  0
   17.6794   -8.7735    7.3847 N   0  0  0  0  0  0  0  0  0  0  0  0
   17.5761   -8.7827    6.4057 H   0  0  0  0  0  0  0  0  0  0  0  0
   19.7344   -7.3457    7.5132 C   0  0  0  0  0  0  0  0  0  0  0  0
   19.2174   -6.5552    6.3246 C   0  0  0  0  0  0  0  0  0  0  0  0
   20.0023   -7.8272    6.0986 C   0  0  0  0  0  0  0  0  0  0  0  0
   19.7235   -8.1813   16.4831 O   0  0  0  0  0  0  0  0  0  0  0  0
   18.4063   -8.9033   16.4465 S   0  0  0  0  0  0  0  0  0  0  0  0
   17.3813   -8.0743   17.1704 O   0  0  0  0  0  0  0  0  0  0  0  0
   18.5714  -10.4394   17.2311 N   0  0  0  0  0  0  0  0  0  0  0  0
   18.4250  -10.3330   18.2349 H   0  0  0  0  0  0  0  0  0  0  0  0
   17.5679  -11.3364   16.6779 C   0  0  0  0  0  0  0  0  0  0  0  0
   18.2266  -12.2890   15.7010 C   0  0  0  0  0  0  0  0  0  0  0  0
   16.9200  -12.1337   17.7937 C   0  0  0  0  0  0  0  0  0  0  0  0
   17.5518  -11.8547   19.0058 O   0  0  0  0  0  0  0  0  0  0  0  0
   18.4889  -12.0975   18.9453 H   0  0  0  0  0  0  0  0  0  0  0  0
 20 21  2  0  0  0
 21 22  2  0  0  0
 21  1  1  0  0  0
  1  2  2  0  0  0
  2  3  1  0  0  0
  3  4  2  0  0  0
  4  5  1  0  0  0
  5  6  2  0  0  0
  4  7  1  0  0  0
  7  8  2  0  0  0
  8  9  1  0  0  0
  9 10  2  0  0  0
 10 11  1  0  0  0
 11 12  2  0  0  0
 12 13  1  0  0  0
 13 14  2  0  0  0
 14 15  1  0  0  0
 14 17  1  0  0  0
 17 18  1  0  0  0
 18 19  1  0  0  0
 21 23  1  0  0  0
 23 25  1  0  0  0
 25 27  1  0  0  0
 27 28  1  0  0  0
 25 26  1  0  0  0
  6  1  1  0  0  0
 12  7  1  0  0  0
 19 17  1  0  0  0
 15 11  1  0  0  0
 15 16  1  0  0  0
 23 24  1  0  0  0
 28 29  1  0  0  0
M  END
>  <minimizedAffinity>
-2.44272

>  <minimizedRMSD>
2.12261

$$$$
CHEMBL198404 PubChem-11692037 PubChem-11692038


 36 40  0  0  0  0  0  0  0  0999 V2000
   17.4372  -11.0543   14.8525 C   0  0  0  0  0  0  0  0  0  0  0  0
   17.1563   -9.6003   11.4487 N   0  0  0  0  0  0  0  0  0  0  0  0
   16.2726   -8.7994   12.2881 C   0  0  0  0  0  0  0  0  0  0  0  0
   16.1539   -9.4643   13.6580 C   0  0  0  0  0  0  0  0  0  0  0  0
   17.4543   -9.7001   14.3145 N   0  0  0  0  0  0  0  0  0  0  0  0
   18.6255   -9.5806   13.4287 C   0  0  0  0  0  0  0  0  0  0  0  0
   18.3813  -10.1518   12.0276 C   0  0  0  0  0  0  0  0  0  0  0  0
   18.9982   -8.1340    7.4990 C   0  0  0  0  0  0  0  0  0  0  0  0
   18.2684   -8.6445    6.3925 C   0  0  0  0  0  0  0  0  0  0  0  0
   17.1502   -9.4769    6.5855 C   0  0  0  0  0  0  0  0  0  0  0  0
   16.7950   -9.7737    7.8973 C   0  0  0  0  0  0  0  0  0  0  0  0
   15.8047  -10.5191    8.3238 O   0  0  0  0  0  0  0  0  0  0  0  0
   15.7957  -10.5568    9.6310 N   0  0  0  0  0  0  0  0  0  0  0  0
   16.8319   -9.7984   10.0640 C   0  0  0  0  0  0  0  0  0  0  0  0
   17.4908   -9.2848    8.9653 C   0  0  0  0  0  0  0  0  0  0  0  0
   18.6037   -8.4614    8.8109 C   0  0  0  0  0  0  0  0  0  0  0  0
   20.7505   -7.1434    6.0633 C   0  0  0  0  0  0  0  0  0  0  0  0
   20.1091   -7.3055    7.3197 O   0  0  0  0  0  0  0  0  0  0  0  0
   17.0222  -11.0448   16.3187 C   0  0  0  0  0  0  0  0  0  0  0  0
   17.5238   -9.7936   17.0227 C   0  0  0  0  0  0  0  0  0  0  0  0
   16.4507   -8.7223   17.0312 C   0  0  0  0  0  0  0  0  0  0  0  0
   16.1568   -8.3400   18.4017 N   0  0  0  0  0  0  0  0  0  0  0  0
   15.0138   -7.5510   18.7357 C   0  0  0  0  0  0  0  0  0  0  0  0
   14.2293   -7.1540   17.8322 O   0  0  0  0  0  0  0  0  0  0  0  0
   16.7624   -8.6331   19.1205 H   0  0  0  0  0  0  0  0  0  0  0  0
   14.7508   -7.1950   20.1336 C   0  0  0  0  0  0  0  0  0  0  0  0
   15.4442   -7.7102   21.2313 C   0  0  0  0  0  0  0  0  0  0  0  0
   14.8368   -7.0800   22.2964 C   0  0  0  0  0  0  0  0  0  0  0  0
   15.0951   -7.1865   23.6609 C   0  0  0  0  0  0  0  0  0  0  0  0
   14.3105   -6.4127   24.5344 C   0  0  0  0  0  0  0  0  0  0  0  0
   13.2998   -5.5649   24.0320 C   0  0  0  0  0  0  0  0  0  0  0  0
   13.0610   -5.4788   22.6427 C   0  0  0  0  0  0  0  0  0  0  0  0
   13.8588   -6.2581   21.8056 C   0  0  0  0  0  0  0  0  0  0  0  0
   13.8171   -6.3370   20.5018 O   0  0  0  0  0  0  0  0  0  0  0  0
   12.0701   -4.6535   22.1036 O   0  0  0  0  0  0  0  0  0  0  0  0
   12.0702   -3.2440   22.2808 C   0  0  0  0  0  0  0  0  0  0  0  0
 17 18  1  0  0  0
 18  8  1  0  0  0
  8  9  2  0  0  0
  9 10  1  0  0  0
 10 11  2  0  0  0
 11 12  1  0  0  0
 12 13  1  0  0  0
 13 14  2  0  0  0
 14  2  1  0  0  0
 14 15  1  0  0  0
  2  3  1  0  0  0
  3  4  1  0  0  0
  4  5  1  0  0  0
  5  1  1  0  0  0
  5  6  1  0  0  0
  1 19  1  0  0  0
 19 20  1  0  0  0
 20 21  1  0  0  0
 21 22  1  0  0  0
 22 23  1  0  0  0
 23 24  2  0  0  0
 23 26  1  0  0  0
 26 27  2  0  0  0
 27 28  1  0  0  0
 28 29  2  0  0  0
 29 30  1  0  0  0
 30 31  2  0  0  0
 31 32  1  0  0  0
 32 35  1  0  0  0
 32 33  2  0  0  0
 35 36  1  0  0  0
 33 34  1  0  0  0
 33 28  1  0  0  0
 34 26  1  0  0  0
  6  7  1  0  0  0
  7  2  1  0  0  0
 15 16  2  0  0  0
 15 11  1  0  0  0
 16  8  1  0  0  0
 22 25  1  0  0  0
M  END
>  <minimizedAffinity>
-6.58702

>  <minimizedRMSD>
2.12658

$$$$
CHEMBL1352458 3456024 CSC025861278 MCULE-2109584951 MolPort-004-284-331 PubChem-2576417 Z15797801 ZINC000003456024 ZINC03456024


 33 35  0  0  0  0  0  0  0  0999 V2000
   17.0321   -9.6011   10.9306 C   0  0  0  0  0  0  0  0  0  0  0  0
   16.8671  -10.7686   11.3804 O   0  0  0  0  0  0  0  0  0  0  0  0
   17.8568  -10.4763    7.4398 N   0  0  0  0  0  0  0  0  0  0  0  0
   17.4682  -10.5163    8.7163 N   0  0  0  0  0  0  0  0  0  0  0  0
   17.4847   -9.4252    9.5292 C   0  0  0  0  0  0  0  0  0  0  0  0
   17.9327   -8.1960    8.9989 C   0  0  0  0  0  0  0  0  0  0  0  0
   17.9966   -7.0236    9.7696 C   0  0  0  0  0  0  0  0  0  0  0  0
   18.4479   -5.8250    9.2134 C   0  0  0  0  0  0  0  0  0  0  0  0
   18.8432   -5.7814    7.8764 C   0  0  0  0  0  0  0  0  0  0  0  0
   18.7890   -6.9366    7.0952 C   0  0  0  0  0  0  0  0  0  0  0  0
   18.3381   -8.1466    7.6459 C   0  0  0  0  0  0  0  0  0  0  0  0
   18.2880   -9.3124    6.8723 C   0  0  0  0  0  0  0  0  0  0  0  0
   18.6450   -9.2883    5.6606 O   0  0  0  0  0  0  0  0  0  0  0  0
   17.7891  -11.7019    6.6499 C   0  0  0  0  0  0  0  0  0  0  0  0
   18.3107  -12.8908    7.4489 C   0  0  0  0  0  0  0  0  0  0  0  0
   20.3972  -12.8466    6.0792 C   0  0  0  0  0  0  0  0  0  0  0  0
   19.8313  -12.9086    7.4854 C   0  0  0  0  0  0  0  0  0  0  0  0
   16.7754   -8.4987   11.7521 O   0  0  0  0  0  0  0  0  0  0  0  0
   15.7511   -8.4989   12.7392 C   0  0  0  0  0  0  0  0  0  0  0  0
   16.0499   -9.5118   13.7898 C   0  0  0  0  0  0  0  0  0  0  0  0
   15.1046  -10.0229   14.4475 O   0  0  0  0  0  0  0  0  0  0  0  0
   17.4006   -9.9334   14.0002 N   0  0  0  0  0  0  0  0  0  0  0  0
   18.0883   -9.6032   13.3780 H   0  0  0  0  0  0  0  0  0  0  0  0
   17.8164  -10.8043   15.0570 C   0  0  0  0  0  0  0  0  0  0  0  0
   18.0236  -10.4816   16.3997 C   0  0  0  0  0  0  0  0  0  0  0  0
   18.3886  -11.5991   17.1690 C   0  0  0  0  0  0  0  0  0  0  0  0
   18.4863  -12.7877   16.4478 C   0  0  0  0  0  0  0  0  0  0  0  0
   18.1183  -12.4357   14.8434 S   0  0  0  0  0  0  0  0  0  0  0  0
   17.9860   -9.1250   16.9794 C   0  0  0  0  0  0  0  0  0  0  0  0
   16.7495   -8.5738   17.4218 N   0  0  0  0  0  0  0  0  0  0  0  0
   19.0428   -8.4583   17.1310 O   0  0  0  0  0  0  0  0  0  0  0  0
   15.9150   -9.0839   17.3096 H   0  0  0  0  0  0  0  0  0  0  0  0
   16.7293   -7.6827   17.8398 H   0  0  0  0  0  0  0  0  0  0  0  0
 16 17  1  0  0  0
 17 15  1  0  0  0
 15 14  1  0  0  0
 14  3  1  0  0  0
  3  4  1  0  0  0
  4  5  2  0  0  0
  5  1  1  0  0  0
  5  6  1  0  0  0
  1  2  2  0  0  0
  1 18  1  0  0  0
 18 19  1  0  0  0
 19 20  1  0  0  0
 20 21  2  0  0  0
 20 22  1  0  0  0
 22 24  1  0  0  0
 24 25  2  0  0  0
 25 26  1  0  0  0
 25 29  1  0  0  0
 26 27  2  0  0  0
 27 28  1  0  0  0
 28 24  1  0  0  0
 29 30  1  0  0  0
 29 31  2  0  0  0
  6  7  2  0  0  0
  7  8  1  0  0  0
  8  9  2  0  0  0
  9 10  1  0  0  0
 10 11  2  0  0  0
 11 12  1  0  0  0
 11  6  1  0  0  0
 12 13  2  0  0  0
 12  3  1  0  0  0
 22 23  1  0  0  0
 30 32  1  0  0  0
 30 33  1  0  0  0
M  END
>  <minimizedAffinity>
11.36946

>  <minimizedRMSD>
2.12670

$$$$
CHEMBL3985350 PubChem-127053800


 38 42  0  0  0  0  0  0  0  0999 V2000
   17.2650  -10.6913   15.7294 C   0  0  0  0  0  0  0  0  0  0  0  0
   17.5603  -10.5485   17.0930 C   0  0  0  0  0  0  0  0  0  0  0  0
   16.8558   -9.6202   17.8593 C   0  0  0  0  0  0  0  0  0  0  0  0
   15.8585   -8.8360   17.2714 C   0  0  0  0  0  0  0  0  0  0  0  0
   15.5900   -9.0047   15.9084 C   0  0  0  0  0  0  0  0  0  0  0  0
   16.2891   -9.9142   15.1788 N   0  0  0  0  0  0  0  0  0  0  0  0
   15.1049   -7.8560   18.0718 C   0  0  0  0  0  0  0  0  0  0  0  0
   14.4743   -6.9248   17.5004 O   0  0  0  0  0  0  0  0  0  0  0  0
   15.0852   -7.9627   19.4990 N   0  0  0  0  0  0  0  0  0  0  0  0
   15.5781   -8.7019   19.9231 H   0  0  0  0  0  0  0  0  0  0  0  0
   14.3665   -7.0233   20.3517 C   0  0  0  0  0  0  0  0  0  0  0  0
   12.9218   -6.9392   19.9488 C   0  0  0  0  0  0  0  0  0  0  0  0
   12.2645   -8.0674   19.4325 C   0  0  0  0  0  0  0  0  0  0  0  0
   10.9248   -7.9912   19.0445 C   0  0  0  0  0  0  0  0  0  0  0  0
   10.2312   -6.7855   19.1653 C   0  0  0  0  0  0  0  0  0  0  0  0
   10.8775   -5.6555   19.6726 C   0  0  0  0  0  0  0  0  0  0  0  0
   12.2186   -5.7249   20.0637 C   0  0  0  0  0  0  0  0  0  0  0  0
   12.9856   -4.2736   20.6916 Cl  0  0  0  0  0  0  0  0  0  0  0  0
   14.5384   -7.3683   21.8313 C   0  0  0  0  0  0  0  0  0  0  0  0
   14.3660   -8.7366   22.0517 O   0  0  0  0  0  0  0  0  0  0  0  0
   13.4706   -8.9968   21.7847 H   0  0  0  0  0  0  0  0  0  0  0  0
   17.9572  -13.0651   15.2562 C   0  0  0  0  0  0  0  0  0  0  0  0
   17.9799  -11.6494   14.9185 N   0  0  0  0  0  0  0  0  0  0  0  0
   18.7468  -11.2721   13.7309 C   0  0  0  0  0  0  0  0  0  0  0  0
   19.3345   -9.8722   13.8615 C   0  0  0  0  0  0  0  0  0  0  0  0
   19.0746   -9.1781   12.5375 C   0  0  0  0  0  0  0  0  0  0  0  0
   18.1671  -10.0381   11.7997 N   0  0  0  0  0  0  0  0  0  0  0  0
   17.8870  -11.2869   12.4796 C   0  0  0  0  0  0  0  0  0  0  0  0
   17.5866   -9.7144   10.5240 C   0  0  0  0  0  0  0  0  0  0  0  0
   16.3755  -10.2435   10.1719 N   0  0  0  0  0  0  0  0  0  0  0  0
   15.7875   -9.9608    8.9684 C   0  0  0  0  0  0  0  0  0  0  0  0
   16.4026   -9.1316    8.0760 N   0  0  0  0  0  0  0  0  0  0  0  0
   17.6020   -8.5993    8.4106 C   0  0  0  0  0  0  0  0  0  0  0  0
   18.3259   -7.7693    7.6487 N   0  0  0  0  0  0  0  0  0  0  0  0
   19.4283   -7.5067    8.3933 C   0  0  0  0  0  0  0  0  0  0  0  0
   19.3963   -8.1713    9.6217 C   0  0  0  0  0  0  0  0  0  0  0  0
   18.2064   -8.8650    9.5989 C   0  0  0  0  0  0  0  0  0  0  0  0
   18.1074   -7.4275    6.7517 H   0  0  0  0  0  0  0  0  0  0  0  0
 22 23  1  0  0  0
 24 23  1  0  0  0
 24 25  1  0  0  0
 25 26  1  0  0  0
 26 27  1  0  0  0
 27 28  1  0  0  0
 27 29  1  0  0  0
 29 30  2  0  0  0
 30 31  1  0  0  0
 31 32  2  0  0  0
 32 33  1  0  0  0
 33 34  1  0  0  0
 34 35  1  0  0  0
 35 36  2  0  0  0
 36 37  1  0  0  0
 23  1  1  0  0  0
  1  2  2  0  0  0
  2  3  1  0  0  0
  3  4  2  0  0  0
  4  5  1  0  0  0
  5  6  2  0  0  0
  4  7  1  0  0  0
  7  8  2  0  0  0
  7  9  1  0  0  0
  9 11  1  0  0  0
 11 19  1  0  0  0
 19 20  1  0  0  0
 11 12  1  0  0  0
 12 13  2  0  0  0
 13 14  1  0  0  0
 14 15  2  0  0  0
 15 16  1  0  0  0
 16 17  2  0  0  0
 17 18  1  0  0  0
 28 24  1  0  0  0
 37 29  1  0  0  0
  6  1  1  0  0  0
 17 12  1  0  0  0
 37 33  2  0  0  0
 34 38  1  0  0  0
  9 10  1  0  0  0
 20 21  1  0  0  0
M  END
>  <minimizedAffinity>
-6.54685

>  <minimizedRMSD>
2.13002

$$$$
CHEMBL1195469 CHEMBL554640 PubChem-10811491 PubChem-45259397 PubChem-67837190


 32 35  0  0  0  0  0  0  0  0999 V2000
   18.3375   -9.1712   15.7867 C   0  0  0  0  0  0  0  0  0  0  0  0
   17.1328   -9.9643   11.8473 N   0  0  0  0  0  0  0  0  0  0  0  0
   18.1359  -10.8486   12.4355 C   0  0  0  0  0  0  0  0  0  0  0  0
   18.7663  -10.1632   13.6431 C   0  0  0  0  0  0  0  0  0  0  0  0
   17.7229   -9.7492   14.5845 N   0  0  0  0  0  0  0  0  0  0  0  0
   16.8390   -8.7649   13.9502 C   0  0  0  0  0  0  0  0  0  0  0  0
   16.1366   -9.3895   12.7477 C   0  0  0  0  0  0  0  0  0  0  0  0
   16.9855   -9.8013   10.4226 C   0  0  0  0  0  0  0  0  0  0  0  0
   15.9525  -10.3961    9.7564 N   0  0  0  0  0  0  0  0  0  0  0  0
   16.1116   -9.9614    8.1551 S   0  0  0  0  0  0  0  0  0  0  0  0
   17.4740   -9.0215    8.2693 C   0  0  0  0  0  0  0  0  0  0  0  0
   17.8506   -9.0225    9.6036 C   0  0  0  0  0  0  0  0  0  0  0  0
   18.9726   -8.2836    9.9958 C   0  0  0  0  0  0  0  0  0  0  0  0
   19.6946   -7.5694    9.0237 C   0  0  0  0  0  0  0  0  0  0  0  0
   19.2907   -7.5892    7.6752 C   0  0  0  0  0  0  0  0  0  0  0  0
   18.1609   -8.3223    7.2826 C   0  0  0  0  0  0  0  0  0  0  0  0
   17.8090   -9.7572   17.1036 C   0  0  0  0  0  0  0  0  0  0  0  0
   16.2884   -9.7214   17.1650 C   0  0  0  0  0  0  0  0  0  0  0  0
   15.7669   -8.2907   17.1444 C   0  0  0  0  0  0  0  0  0  0  0  0
   15.4718   -7.8283   18.4945 N   0  0  0  0  0  0  0  0  0  0  0  0
   14.1926   -7.3170   18.8853 C   0  0  0  0  0  0  0  0  0  0  0  0
   13.2692   -7.2084   18.0328 O   0  0  0  0  0  0  0  0  0  0  0  0
   16.1863   -7.8694   19.1705 H   0  0  0  0  0  0  0  0  0  0  0  0
   13.9557   -6.9191   20.2841 C   0  0  0  0  0  0  0  0  0  0  0  0
   14.7740   -7.4161   21.3094 C   0  0  0  0  0  0  0  0  0  0  0  0
   14.5437   -7.0493   22.6381 C   0  0  0  0  0  0  0  0  0  0  0  0
   15.3794   -7.5563   23.6716 N   0  0  0  0  0  0  0  0  0  0  0  0
   13.4936   -6.1823   22.9515 C   0  0  0  0  0  0  0  0  0  0  0  0
   12.6740   -5.6807   21.9362 C   0  0  0  0  0  0  0  0  0  0  0  0
   12.9053   -6.0464   20.6070 C   0  0  0  0  0  0  0  0  0  0  0  0
   16.1193   -8.1671   23.4512 H   0  0  0  0  0  0  0  0  0  0  0  0
   15.2178   -7.2963   24.6073 H   0  0  0  0  0  0  0  0  0  0  0  0
  8  9  2  0  0  0
  9 10  1  0  0  0
 10 11  1  0  0  0
 11 12  2  0  0  0
 12 13  1  0  0  0
 13 14  2  0  0  0
 14 15  1  0  0  0
 15 16  2  0  0  0
  8  2  1  0  0  0
  2  3  1  0  0  0
  3  4  1  0  0  0
  4  5  1  0  0  0
  5  6  1  0  0  0
  6  7  1  0  0  0
  5  1  1  0  0  0
  1 17  1  0  0  0
 17 18  1  0  0  0
 18 19  1  0  0  0
 19 20  1  0  0  0
 20 21  1  0  0  0
 21 22  2  0  0  0
 21 24  1  0  0  0
 24 25  2  0  0  0
 25 26  1  0  0  0
 26 27  1  0  0  0
 26 28  2  0  0  0
 28 29  1  0  0  0
 29 30  2  0  0  0
 12  8  1  0  0  0
  7  2  1  0  0  0
 30 24  1  0  0  0
 16 11  1  0  0  0
 20 23  1  0  0  0
 27 31  1  0  0  0
 27 32  1  0  0  0
M  END
>  <minimizedAffinity>
-8.16514

>  <minimizedRMSD>
2.13038

$$$$
CHEMBL2180439 PubChem-71452033


 34 38  0  0  0  0  0  0  0  0999 V2000
   17.2298   -9.8963   13.7895 C   0  0  0  0  0  0  0  0  0  0  0  0
   16.3047   -9.0210   14.2634 N   0  0  0  0  0  0  0  0  0  0  0  0
   16.0266   -8.9432   15.5923 C   0  0  0  0  0  0  0  0  0  0  0  0
   16.7069   -9.7734   16.4869 C   0  0  0  0  0  0  0  0  0  0  0  0
   17.6590  -10.6683   15.9875 C   0  0  0  0  0  0  0  0  0  0  0  0
   17.9006  -10.7061   14.6492 N   0  0  0  0  0  0  0  0  0  0  0  0
   18.3805  -11.5359   16.8728 N   0  0  0  0  0  0  0  0  0  0  0  0
   18.6573  -11.2240   18.2615 C   0  0  0  0  0  0  0  0  0  0  0  0
   19.2993  -12.4695   18.8402 C   0  0  0  0  0  0  0  0  0  0  0  0
   19.6605  -13.3591   17.6582 C   0  0  0  0  0  0  0  0  0  0  0  0
   18.8889  -12.8291   16.4660 C   0  0  0  0  0  0  0  0  0  0  0  0
   15.0312   -7.9762   16.0798 C   0  0  0  0  0  0  0  0  0  0  0  0
   14.5607   -7.1119   15.2907 O   0  0  0  0  0  0  0  0  0  0  0  0
   14.6054   -8.0076   17.4461 N   0  0  0  0  0  0  0  0  0  0  0  0
   14.9689   -8.7074   18.0355 H   0  0  0  0  0  0  0  0  0  0  0  0
   13.6584   -7.0509   18.0042 C   0  0  0  0  0  0  0  0  0  0  0  0
   14.0030   -6.7348   19.4519 C   0  0  0  0  0  0  0  0  0  0  0  0
   13.7980   -7.9492   20.3256 C   0  0  0  0  0  0  0  0  0  0  0  0
   13.3265   -7.3672   21.6242 C   0  0  0  0  0  0  0  0  0  0  0  0
   13.1273   -5.8986   21.3187 C   0  0  0  0  0  0  0  0  0  0  0  0
   13.1704   -5.7144   19.9293 O   0  0  0  0  0  0  0  0  0  0  0  0
   17.5313   -9.9534   12.3327 C   0  0  0  0  0  0  0  0  0  0  0  0
   16.7139   -8.9151   11.5850 C   0  0  0  0  0  0  0  0  0  0  0  0
   15.2019  -10.6026    9.6625 C   0  0  0  0  0  0  0  0  0  0  0  0
   16.3466   -9.7523    9.2228 C   0  0  0  0  0  0  0  0  0  0  0  0
   16.7097   -9.7605    7.9126 N   0  0  0  0  0  0  0  0  0  0  0  0
   17.7495   -9.0099    7.4652 C   0  0  0  0  0  0  0  0  0  0  0  0
   18.1129   -9.0302    6.1163 C   0  0  0  0  0  0  0  0  0  0  0  0
   19.1909   -8.2562    5.6749 C   0  0  0  0  0  0  0  0  0  0  0  0
   19.9060   -7.4644    6.5802 C   0  0  0  0  0  0  0  0  0  0  0  0
   19.5460   -7.4404    7.9315 C   0  0  0  0  0  0  0  0  0  0  0  0
   18.4677   -8.2095    8.3760 C   0  0  0  0  0  0  0  0  0  0  0  0
   18.1054   -8.2006    9.6843 N   0  0  0  0  0  0  0  0  0  0  0  0
   17.0589   -8.9463   10.1323 C   0  0  0  0  0  0  0  0  0  0  0  0
 24 25  1  0  0  0
 25 26  2  0  0  0
 26 27  1  0  0  0
 27 28  2  0  0  0
 28 29  1  0  0  0
 29 30  2  0  0  0
 30 31  1  0  0  0
 31 32  2  0  0  0
 32 33  1  0  0  0
 32 27  1  0  0  0
 33 34  2  0  0  0
 34 23  1  0  0  0
 34 25  1  0  0  0
 23 22  1  0  0  0
 22  1  1  0  0  0
  1  2  2  0  0  0
  2  3  1  0  0  0
  3 12  1  0  0  0
  3  4  2  0  0  0
 12 13  2  0  0  0
 12 14  1  0  0  0
 14 16  1  0  0  0
 17 16  1  0  0  0
 17 18  1  0  0  0
 18 19  1  0  0  0
 19 20  1  0  0  0
 20 21  1  0  0  0
 21 17  1  0  0  0
  4  5  1  0  0  0
  5  7  1  0  0  0
  5  6  2  0  0  0
  7  8  1  0  0  0
  8  9  1  0  0  0
  9 10  1  0  0  0
 10 11  1  0  0  0
 11  7  1  0  0  0
  6  1  1  0  0  0
 14 15  1  0  0  0
M  END
>  <minimizedAffinity>
1.09974

>  <minimizedRMSD>
2.13273

$$$$
CHEMBL5266223


 32 36  0  0  0  0  0  0  0  0999 V2000
   18.0696  -10.8399   13.3390 C   0  0  0  0  0  0  0  0  0  0  0  0
   17.6779   -9.6338   12.4733 C   0  0  0  0  0  0  0  0  0  0  0  0
   18.7276   -9.3094   11.5050 N   0  0  0  0  0  0  0  0  0  0  0  0
   20.1174   -9.1557   11.9608 C   0  0  0  0  0  0  0  0  0  0  0  0
   20.3058   -9.6188   13.4049 C   0  0  0  0  0  0  0  0  0  0  0  0
   19.5928  -10.9491   13.5998 C   0  0  0  0  0  0  0  0  0  0  0  0
   19.9609  -11.5802   14.9333 C   0  0  0  0  0  0  0  0  0  0  0  0
   18.3920   -8.9998   10.1366 C   0  0  0  0  0  0  0  0  0  0  0  0
   17.1686   -9.2820    9.6047 N   0  0  0  0  0  0  0  0  0  0  0  0
   16.8475   -9.0070    8.3373 C   0  0  0  0  0  0  0  0  0  0  0  0
   17.7289   -8.4233    7.4904 N   0  0  0  0  0  0  0  0  0  0  0  0
   18.9744   -8.1126    7.9521 C   0  0  0  0  0  0  0  0  0  0  0  0
   19.3346   -8.3970    9.2827 C   0  0  0  0  0  0  0  0  0  0  0  0
   19.9607   -7.4736    7.0429 C   0  0  0  0  0  0  0  0  0  0  0  0
   15.5997   -9.3922    8.0202 N   0  0  0  0  0  0  0  0  0  0  0  0
   15.1951   -9.9267    9.2015 C   0  0  0  0  0  0  0  0  0  0  0  0
   16.1357   -9.8718   10.1737 N   0  0  0  0  0  0  0  0  0  0  0  0
   13.5754  -10.6396    9.4492 S   0  0  0  0  0  0  0  0  0  0  0  0
   13.7106  -10.5263   11.2046 C   0  0  0  0  0  0  0  0  0  0  0  0
   13.8025  -10.4485   12.4041 C   0  0  0  0  0  0  0  0  0  0  0  0
   17.2512  -10.8980   14.5541 N   0  0  0  0  0  0  0  0  0  0  0  0
   17.0978  -12.2150   15.1535 C   0  0  0  0  0  0  0  0  0  0  0  0
   16.5907   -9.7302   15.0995 C   0  0  0  0  0  0  0  0  0  0  0  0
   16.5307   -9.4573   16.4743 C   0  0  0  0  0  0  0  0  0  0  0  0
   15.9002   -8.3367   16.9190 C   0  0  0  0  0  0  0  0  0  0  0  0
   15.9434   -8.2254   18.2529 N   0  0  0  0  0  0  0  0  0  0  0  0
   16.6308   -9.3208   18.6590 C   0  0  0  0  0  0  0  0  0  0  0  0
   17.0195  -10.1182   17.5803 C   0  0  0  0  0  0  0  0  0  0  0  0
   15.3163   -7.4537   16.0749 N   0  0  0  0  0  0  0  0  0  0  0  0
   15.3679   -7.7044   14.7354 C   0  0  0  0  0  0  0  0  0  0  0  0
   15.9968   -8.8243   14.2637 N   0  0  0  0  0  0  0  0  0  0  0  0
   15.5623   -7.5101   18.8117 H   0  0  0  0  0  0  0  0  0  0  0  0
 23 24  1  0  0  0
 24 25  2  0  0  0
 25 26  1  0  0  0
 26 27  1  0  0  0
 27 28  2  0  0  0
 25 29  1  0  0  0
 29 30  2  0  0  0
 30 31  1  0  0  0
 23 21  1  0  0  0
  1 21  1  0  0  0
  1  2  1  0  0  0
  2  3  1  0  0  0
  3  8  1  0  0  0
  8  9  1  0  0  0
  9 10  1  0  0  0
 10 11  1  0  0  0
 11 12  2  0  0  0
 12 13  1  0  0  0
 12 14  1  0  0  0
 10 15  2  0  0  0
 15 16  1  0  0  0
 16 17  2  0  0  0
 16 18  1  0  0  0
 18 19  1  0  0  0
 19 20  3  0  0  0
  3  4  1  0  0  0
  4  5  1  0  0  0
  5  6  1  0  0  0
  6  7  1  0  0  0
 21 22  1  0  0  0
 31 23  2  0  0  0
  6  1  1  0  0  0
 28 24  1  0  0  0
 13  8  2  0  0  0
 17  9  1  0  0  0
 26 32  1  0  0  0
M  END
>  <minimizedAffinity>
11.01316

>  <minimizedRMSD>
2.13671

$$$$
CHEMBL1445410 PubChem-4230279


 33 35  0  0  0  0  0  0  0  0999 V2000
   17.3031   -7.0561    6.7591 S   0  0  0  0  0  0  0  0  0  0  0  0
   17.5957   -8.2598    7.8850 C   0  0  0  0  0  0  0  0  0  0  0  0
   16.7138   -9.0465    8.6126 C   0  0  0  0  0  0  0  0  0  0  0  0
   15.4687   -8.9100    8.4611 O   0  0  0  0  0  0  0  0  0  0  0  0
   17.2273   -9.9728    9.4881 N   0  0  0  0  0  0  0  0  0  0  0  0
   18.5943  -10.1221    9.6141 C   0  0  0  0  0  0  0  0  0  0  0  0
   19.4453   -9.3464    8.8797 N   0  0  0  0  0  0  0  0  0  0  0  0
   18.9494   -8.4199    8.0269 C   0  0  0  0  0  0  0  0  0  0  0  0
   19.7204   -7.5712    7.2293 C   0  0  0  0  0  0  0  0  0  0  0  0
   18.9354   -6.7226    6.4407 C   0  0  0  0  0  0  0  0  0  0  0  0
   19.3090  -11.3459   10.7193 S   0  0  0  0  0  0  0  0  0  0  0  0
   18.6853  -10.4805   12.1966 C   0  0  0  0  0  0  0  0  0  0  0  0
   18.5477  -11.3813   13.3908 C   0  0  0  0  0  0  0  0  0  0  0  0
   18.3655  -12.6203   13.2359 O   0  0  0  0  0  0  0  0  0  0  0  0
   18.6067  -10.8163   14.7531 C   0  0  0  0  0  0  0  0  0  0  0  0
   19.2582   -9.5970   14.9950 C   0  0  0  0  0  0  0  0  0  0  0  0
   19.2930   -9.0533   16.2823 C   0  0  0  0  0  0  0  0  0  0  0  0
   19.9401   -7.8438   16.5010 O   0  0  0  0  0  0  0  0  0  0  0  0
   18.6744   -9.7280   17.3420 C   0  0  0  0  0  0  0  0  0  0  0  0
   18.7008   -9.1958   18.6249 O   0  0  0  0  0  0  0  0  0  0  0  0
   18.0258  -10.9436   17.1098 C   0  0  0  0  0  0  0  0  0  0  0  0
   17.9915  -11.4850   15.8217 C   0  0  0  0  0  0  0  0  0  0  0  0
   20.3521   -7.3972   15.7878 H   0  0  0  0  0  0  0  0  0  0  0  0
   19.1347   -8.3809   18.7852 H   0  0  0  0  0  0  0  0  0  0  0  0
   16.3191  -10.8439   10.2400 C   0  0  0  0  0  0  0  0  0  0  0  0
   15.3357  -10.0334   11.0752 C   0  0  0  0  0  0  0  0  0  0  0  0
   16.0754   -9.1496   12.0572 C   0  0  0  0  0  0  0  0  0  0  0  0
   15.5305   -9.3652   13.4521 C   0  0  0  0  0  0  0  0  0  0  0  0
   16.0771   -8.2870   14.3726 C   0  0  0  0  0  0  0  0  0  0  0  0
   15.6746   -8.4845   15.8004 C   0  0  0  0  0  0  0  0  0  0  0  0
   15.3440   -9.6193   16.2382 O   0  0  0  0  0  0  0  0  0  0  0  0
   15.6655   -7.3925   16.6571 O   0  0  0  0  0  0  0  0  0  0  0  0
   15.9099   -6.5456   16.3393 H   0  0  0  0  0  0  0  0  0  0  0  0
  1  2  1  0  0  0
  2  3  1  0  0  0
  3  4  2  0  0  0
  3  5  1  0  0  0
  5  6  1  0  0  0
  6 11  1  0  0  0
 11 12  1  0  0  0
 12 13  1  0  0  0
 13 14  2  0  0  0
 13 15  1  0  0  0
 15 16  2  0  0  0
 16 17  1  0  0  0
 17 18  1  0  0  0
 17 19  2  0  0  0
 19 20  1  0  0  0
 19 21  1  0  0  0
 21 22  2  0  0  0
  6  7  2  0  0  0
  7  8  1  0  0  0
  8  9  1  0  0  0
  9 10  2  0  0  0
  5 25  1  0  0  0
 25 26  1  0  0  0
 26 27  1  0  0  0
 27 28  1  0  0  0
 28 29  1  0  0  0
 29 30  1  0  0  0
 30 31  2  0  0  0
 30 32  1  0  0  0
 10  1  1  0  0  0
  8  2  2  0  0  0
 22 15  1  0  0  0
 18 23  1  0  0  0
 20 24  1  0  0  0
 32 33  1  0  0  0
M  END
>  <minimizedAffinity>
1.60919

>  <minimizedRMSD>
2.13723

$$$$
CHEMBL5169632 PubChem-130335347


 28 30  0  0  0  0  0  0  0  0999 V2000
   18.5208  -10.2801   12.1884 N   0  0  0  0  0  0  0  0  0  0  0  0
   18.8037  -11.2191   12.2745 H   0  0  0  0  0  0  0  0  0  0  0  0
   17.7916   -9.8879   11.0228 C   0  0  0  0  0  0  0  0  0  0  0  0
   18.4297   -9.3275    9.8963 C   0  0  0  0  0  0  0  0  0  0  0  0
   17.6851   -8.9532    8.7500 C   0  0  0  0  0  0  0  0  0  0  0  0
   16.2821   -9.1114    8.7421 C   0  0  0  0  0  0  0  0  0  0  0  0
   15.6860   -9.6676    9.8702 C   0  0  0  0  0  0  0  0  0  0  0  0
   16.4083  -10.0417   10.9630 C   0  0  0  0  0  0  0  0  0  0  0  0
   15.4983  -10.5372   11.8702 C   0  0  0  0  0  0  0  0  0  0  0  0
   14.2757  -10.4413   11.2893 N   0  0  0  0  0  0  0  0  0  0  0  0
   14.3846   -9.9125   10.0738 N   0  0  0  0  0  0  0  0  0  0  0  0
   13.6492   -9.7349    9.4438 H   0  0  0  0  0  0  0  0  0  0  0  0
   18.3759   -8.3111    7.5825 C   0  0  0  0  0  0  0  0  0  0  0  0
   19.5318   -7.6725    7.9969 F   0  0  0  0  0  0  0  0  0  0  0  0
   17.5294   -7.3830    7.0054 F   0  0  0  0  0  0  0  0  0  0  0  0
   18.7135   -9.2644    6.6374 F   0  0  0  0  0  0  0  0  0  0  0  0
   18.8620   -9.3483   13.2525 C   0  0  0  0  0  0  0  0  0  0  0  0
   16.7087   -9.2951   16.3729 C   0  0  0  0  0  0  0  0  0  0  0  0
   17.3480   -8.8959   15.1897 C   0  0  0  0  0  0  0  0  0  0  0  0
   18.2079   -9.7720   14.5194 C   0  0  0  0  0  0  0  0  0  0  0  0
   18.4234  -11.0589   15.0218 C   0  0  0  0  0  0  0  0  0  0  0  0
   17.7902  -11.4644   16.1995 C   0  0  0  0  0  0  0  0  0  0  0  0
   16.9369  -10.5854   16.8729 C   0  0  0  0  0  0  0  0  0  0  0  0
   14.9525   -7.4100   19.2513 C   0  0  0  0  0  0  0  0  0  0  0  0
   15.8237   -8.3056   18.5094 N   0  0  0  0  0  0  0  0  0  0  0  0
   15.8060   -8.3704   17.0809 C   0  0  0  0  0  0  0  0  0  0  0  0
   15.0164   -7.6350   16.4269 O   0  0  0  0  0  0  0  0  0  0  0  0
   16.4455   -8.8857   19.0055 H   0  0  0  0  0  0  0  0  0  0  0  0
 24 25  1  0  0  0
 25 26  1  0  0  0
 26 27  2  0  0  0
 26 18  1  0  0  0
 18 19  2  0  0  0
 19 20  1  0  0  0
 20 21  2  0  0  0
 21 22  1  0  0  0
 22 23  2  0  0  0
 20 17  1  0  0  0
 17  1  1  0  0  0
  1  3  1  0  0  0
  3  4  2  0  0  0
  4  5  1  0  0  0
  5  6  2  0  0  0
  6  7  1  0  0  0
  7  8  2  0  0  0
  8  9  1  0  0  0
  9 10  2  0  0  0
 10 11  1  0  0  0
  5 13  1  0  0  0
 13 14  1  0  0  0
 13 15  1  0  0  0
 13 16  1  0  0  0
 23 18  1  0  0  0
  8  3  1  0  0  0
 11  7  1  0  0  0
 25 28  1  0  0  0
  1  2  1  0  0  0
 11 12  1  0  0  0
M  END
>  <minimizedAffinity>
-7.02437

>  <minimizedRMSD>
2.14001

$$$$
CHEMBL5169632 PubChem-130335347


 28 30  0  0  0  0  0  0  0  0999 V2000
   18.5208  -10.2800   12.1884 N   0  0  0  0  0  0  0  0  0  0  0  0
   18.8037  -11.2190   12.2745 H   0  0  0  0  0  0  0  0  0  0  0  0
   17.7916   -9.8880   11.0228 C   0  0  0  0  0  0  0  0  0  0  0  0
   18.4296   -9.3276    9.8963 C   0  0  0  0  0  0  0  0  0  0  0  0
   17.6851   -8.9533    8.7500 C   0  0  0  0  0  0  0  0  0  0  0  0
   16.2820   -9.1115    8.7421 C   0  0  0  0  0  0  0  0  0  0  0  0
   15.6859   -9.6675    9.8703 C   0  0  0  0  0  0  0  0  0  0  0  0
   16.4083  -10.0416   10.9631 C   0  0  0  0  0  0  0  0  0  0  0  0
   15.4982  -10.5371   11.8703 C   0  0  0  0  0  0  0  0  0  0  0  0
   14.2757  -10.4412   11.2894 N   0  0  0  0  0  0  0  0  0  0  0  0
   14.3846   -9.9125   10.0739 N   0  0  0  0  0  0  0  0  0  0  0  0
   13.6492   -9.7350    9.4439 H   0  0  0  0  0  0  0  0  0  0  0  0
   18.3757   -8.3112    7.5824 C   0  0  0  0  0  0  0  0  0  0  0  0
   18.7135   -9.2646    6.6375 F   0  0  0  0  0  0  0  0  0  0  0  0
   19.5316   -7.6724    7.9970 F   0  0  0  0  0  0  0  0  0  0  0  0
   17.5291   -7.3833    7.0052 F   0  0  0  0  0  0  0  0  0  0  0  0
   18.8619   -9.3482   13.2524 C   0  0  0  0  0  0  0  0  0  0  0  0
   16.7088   -9.2951   16.3729 C   0  0  0  0  0  0  0  0  0  0  0  0
   17.3480   -8.8958   15.1898 C   0  0  0  0  0  0  0  0  0  0  0  0
   18.2079   -9.7720   14.5194 C   0  0  0  0  0  0  0  0  0  0  0  0
   18.4233  -11.0588   15.0217 C   0  0  0  0  0  0  0  0  0  0  0  0
   17.7902  -11.4644   16.1995 C   0  0  0  0  0  0  0  0  0  0  0  0
   16.9369  -10.5854   16.8729 C   0  0  0  0  0  0  0  0  0  0  0  0
   14.9525   -7.4100   19.2515 C   0  0  0  0  0  0  0  0  0  0  0  0
   15.8237   -8.3056   18.5095 N   0  0  0  0  0  0  0  0  0  0  0  0
   15.8060   -8.3704   17.0810 C   0  0  0  0  0  0  0  0  0  0  0  0
   15.0164   -7.6350   16.4270 O   0  0  0  0  0  0  0  0  0  0  0  0
   16.4454   -8.8857   19.0056 H   0  0  0  0  0  0  0  0  0  0  0  0
 24 25  1  0  0  0
 25 26  1  0  0  0
 26 27  2  0  0  0
 26 18  1  0  0  0
 18 19  2  0  0  0
 19 20  1  0  0  0
 20 21  2  0  0  0
 21 22  1  0  0  0
 22 23  2  0  0  0
 20 17  1  0  0  0
 17  1  1  0  0  0
  1  3  1  0  0  0
  3  4  2  0  0  0
  4  5  1  0  0  0
  5  6  2  0  0  0
  6  7  1  0  0  0
  7  8  2  0  0  0
  8  9  1  0  0  0
  9 10  2  0  0  0
 10 11  1  0  0  0
  5 13  1  0  0  0
 13 14  1  0  0  0
 13 15  1  0  0  0
 13 16  1  0  0  0
 23 18  1  0  0  0
  8  3  1  0  0  0
 11  7  1  0  0  0
 25 28  1  0  0  0
  1  2  1  0  0  0
 11 12  1  0  0  0
M  END
>  <minimizedAffinity>
-7.02442

>  <minimizedRMSD>
2.14008

$$$$
CHEMBL5084076


 30 32  0  0  0  0  0  0  0  0999 V2000
   18.3178  -10.2183   13.6586 C   0  0  0  0  0  0  0  0  0  0  0  0
   17.3611   -9.2716   14.1184 O   0  0  0  0  0  0  0  0  0  0  0  0
   16.1510   -8.9620   18.1318 C   0  0  0  0  0  0  0  0  0  0  0  0
   17.2477   -9.7557   17.7920 C   0  0  0  0  0  0  0  0  0  0  0  0
   17.6558   -9.8638   16.4653 C   0  0  0  0  0  0  0  0  0  0  0  0
   16.9686   -9.1774   15.4572 C   0  0  0  0  0  0  0  0  0  0  0  0
   15.8656   -8.3791   15.7890 C   0  0  0  0  0  0  0  0  0  0  0  0
   15.4393   -8.2583   17.1331 C   0  0  0  0  0  0  0  0  0  0  0  0
   15.2230   -7.7198   14.7906 F   0  0  0  0  0  0  0  0  0  0  0  0
   15.7912   -8.9007   19.4379 F   0  0  0  0  0  0  0  0  0  0  0  0
   14.2667   -7.4088   17.4829 C   0  0  0  0  0  0  0  0  0  0  0  0
   13.3558   -7.1954   16.6396 O   0  0  0  0  0  0  0  0  0  0  0  0
   14.1473   -6.8163   18.7731 N   0  0  0  0  0  0  0  0  0  0  0  0
   14.8454   -6.9672   19.4506 H   0  0  0  0  0  0  0  0  0  0  0  0
   13.3666   -6.2560   18.9871 H   0  0  0  0  0  0  0  0  0  0  0  0
   18.0822  -10.5091   12.1894 C   0  0  0  0  0  0  0  0  0  0  0  0
   17.5765   -9.3164   11.5269 N   0  0  0  0  0  0  0  0  0  0  0  0
   16.8918   -8.7764   11.9838 H   0  0  0  0  0  0  0  0  0  0  0  0
   18.0343   -8.8972   10.2387 C   0  0  0  0  0  0  0  0  0  0  0  0
   19.1253   -8.0163   10.0816 C   0  0  0  0  0  0  0  0  0  0  0  0
   19.5443   -7.6162    8.7925 C   0  0  0  0  0  0  0  0  0  0  0  0
   18.8817   -8.0870    7.6366 C   0  0  0  0  0  0  0  0  0  0  0  0
   17.8040   -8.9583    7.8397 C   0  0  0  0  0  0  0  0  0  0  0  0
   17.4037   -9.3413    9.0794 C   0  0  0  0  0  0  0  0  0  0  0  0
   16.3559  -10.1680    8.9529 N   0  0  0  0  0  0  0  0  0  0  0  0
   16.1634  -10.2543    7.6600 O   0  0  0  0  0  0  0  0  0  0  0  0
   17.0022   -9.5496    6.9412 N   0  0  0  0  0  0  0  0  0  0  0  0
   19.3059   -7.6805    6.3257 N   0  0  0  0  0  0  0  0  0  0  0  0
   19.5519   -6.4794    6.0898 O   0  0  0  0  0  0  0  0  0  0  0  0
   19.4482   -8.6004    5.3127 O   0  0  0  0  0  0  0  0  0  0  0  0
  3  4  2  0  0  0
  4  5  1  0  0  0
  5  6  2  0  0  0
  6  7  1  0  0  0
  7  8  2  0  0  0
  8 11  1  0  0  0
 11 12  2  0  0  0
 11 13  1  0  0  0
  7  9  1  0  0  0
  6  2  1  0  0  0
  2  1  1  0  0  0
  1 16  1  0  0  0
 16 17  1  0  0  0
 17 19  1  0  0  0
 19 20  2  0  0  0
 20 21  1  0  0  0
 21 22  2  0  0  0
 22 23  1  0  0  0
 23 24  1  0  0  0
 24 25  2  0  0  0
 25 26  1  0  0  0
 26 27  1  0  0  0
 22 28  1  0  0  0
 28 29  2  0  0  0
 28 30  1  0  0  0
  3 10  1  0  0  0
  8  3  1  0  0  0
 24 19  1  0  0  0
 27 23  2  0  0  0
 13 14  1  0  0  0
 13 15  1  0  0  0
 17 18  1  0  0  0
M  CHG 1  28   1
M  CHG 1  30  -1
M  END
>  <minimizedAffinity>
-3.36581

>  <minimizedRMSD>
2.14709

$$$$
CHEMBL4436213 PubChem-140868210


 28 30  0  0  0  0  0  0  0  0999 V2000
   15.9496   -9.5636   12.2654 C   0  0  0  0  0  0  0  0  0  0  0  0
   16.8217   -9.7029   11.2527 C   0  0  0  0  0  0  0  0  0  0  0  0
   16.3300   -9.6874    9.8515 C   0  0  0  0  0  0  0  0  0  0  0  0
   15.2722  -10.3195    9.5766 O   0  0  0  0  0  0  0  0  0  0  0  0
   17.0105   -8.9713    8.8010 N   0  0  0  0  0  0  0  0  0  0  0  0
   18.3763   -8.8280    8.8300 C   0  0  0  0  0  0  0  0  0  0  0  0
   18.9749   -8.1574    7.7821 C   0  0  0  0  0  0  0  0  0  0  0  0
   18.1929   -7.6614    6.7322 C   0  0  0  0  0  0  0  0  0  0  0  0
   16.8536   -7.8203    6.6992 N   0  0  0  0  0  0  0  0  0  0  0  0
   16.2681   -8.4834    7.7438 C   0  0  0  0  0  0  0  0  0  0  0  0
   18.9717   -7.0622    5.8259 N   0  0  0  0  0  0  0  0  0  0  0  0
   20.2215   -7.2102    6.3569 C   0  0  0  0  0  0  0  0  0  0  0  0
   20.2612   -7.8751    7.5498 N   0  0  0  0  0  0  0  0  0  0  0  0
   15.9349   -8.4322   15.8475 C   0  0  0  0  0  0  0  0  0  0  0  0
   16.6390   -9.4537   16.4993 C   0  0  0  0  0  0  0  0  0  0  0  0
   17.1373  -10.5490   15.7591 C   0  0  0  0  0  0  0  0  0  0  0  0
   16.9109  -10.5864   14.3741 C   0  0  0  0  0  0  0  0  0  0  0  0
   16.2053   -9.5678   13.7216 C   0  0  0  0  0  0  0  0  0  0  0  0
   15.7228   -8.4926   14.4693 C   0  0  0  0  0  0  0  0  0  0  0  0
   16.8344   -9.3663   17.8735 O   0  0  0  0  0  0  0  0  0  0  0  0
   15.4426   -7.3509   16.5679 O   0  0  0  0  0  0  0  0  0  0  0  0
   16.4971   -8.6327   18.3489 H   0  0  0  0  0  0  0  0  0  0  0  0
   15.5806   -7.3026   17.4934 H   0  0  0  0  0  0  0  0  0  0  0  0
   17.8679  -11.6234   16.3813 N   0  0  0  0  0  0  0  0  0  0  0  0
   18.1567  -12.6458   15.7249 O   0  0  0  0  0  0  0  0  0  0  0  0
   18.2621  -11.5535   17.6975 O   0  0  0  0  0  0  0  0  0  0  0  0
   18.2291   -9.9405   11.4785 C   0  0  0  0  0  0  0  0  0  0  0  0
   19.3573  -10.1311   11.6542 N   0  0  0  0  0  0  0  0  0  0  0  0
 14 15  2  0  0  0
 15 16  1  0  0  0
 16 17  2  0  0  0
 17 18  1  0  0  0
 18 19  2  0  0  0
 18  1  1  0  0  0
  1  2  2  0  0  0
  2 27  1  0  0  0
 27 28  3  0  0  0
  2  3  1  0  0  0
  3  4  2  0  0  0
  3  5  1  0  0  0
  5  6  1  0  0  0
  6  7  2  0  0  0
  7  8  1  0  0  0
  8  9  1  0  0  0
  9 10  2  0  0  0
  8 11  2  0  0  0
 11 12  1  0  0  0
 12 13  2  0  0  0
 16 24  1  0  0  0
 24 25  2  0  0  0
 24 26  1  0  0  0
 15 20  1  0  0  0
 14 21  1  0  0  0
 19 14  1  0  0  0
 10  5  1  0  0  0
 13  7  1  0  0  0
 20 22  1  0  0  0
 21 23  1  0  0  0
M  CHG 1  24   1
M  CHG 1  26  -1
M  END
>  <minimizedAffinity>
-4.43680

>  <minimizedRMSD>
2.15474

$$$$
CHEMBL3144650 PubChem-10069979 PubChem-67885283


 30 34  0  0  0  0  0  0  0  0999 V2000
   17.4529   -9.9863   12.4995 N   0  0  0  0  0  0  0  0  0  0  0  0
   16.4291   -9.9466   13.5361 C   0  0  0  0  0  0  0  0  0  0  0  0
   16.7596  -10.9714   14.6247 C   0  0  0  0  0  0  0  0  0  0  0  0
   18.1325  -10.8292   15.1328 N   0  0  0  0  0  0  0  0  0  0  0  0
   19.1120  -10.9052   14.0400 C   0  0  0  0  0  0  0  0  0  0  0  0
   18.8396   -9.8790   12.9367 C   0  0  0  0  0  0  0  0  0  0  0  0
   17.0756   -9.8255   11.1192 C   0  0  0  0  0  0  0  0  0  0  0  0
   15.9471  -10.4162   10.6288 N   0  0  0  0  0  0  0  0  0  0  0  0
   15.8706  -10.0103    9.0136 S   0  0  0  0  0  0  0  0  0  0  0  0
   17.2512   -9.0967    8.9023 C   0  0  0  0  0  0  0  0  0  0  0  0
   17.8249   -9.0861   10.1639 C   0  0  0  0  0  0  0  0  0  0  0  0
   19.0309   -8.4046   10.3617 C   0  0  0  0  0  0  0  0  0  0  0  0
   19.6229   -7.7383    9.2748 C   0  0  0  0  0  0  0  0  0  0  0  0
   19.0151   -7.7602    8.0046 C   0  0  0  0  0  0  0  0  0  0  0  0
   17.8101   -8.4503    7.8047 C   0  0  0  0  0  0  0  0  0  0  0  0
   18.2816   -9.5639   15.8488 C   0  0  0  0  0  0  0  0  0  0  0  0
   17.2277   -9.4445   16.9412 C   0  0  0  0  0  0  0  0  0  0  0  0
   16.6488   -8.0362   17.0001 C   0  0  0  0  0  0  0  0  0  0  0  0
   15.1311   -8.0649   17.1297 C   0  0  0  0  0  0  0  0  0  0  0  0
   14.7216   -7.6424   18.4618 N   0  0  0  0  0  0  0  0  0  0  0  0
   13.5817   -6.9884   18.7727 C   0  0  0  0  0  0  0  0  0  0  0  0
   12.6920   -6.6564   17.9445 O   0  0  0  0  0  0  0  0  0  0  0  0
   13.5654   -6.7574   20.1234 C   0  0  0  0  0  0  0  0  0  0  0  0
   14.7409   -7.3001   20.5785 C   0  0  0  0  0  0  0  0  0  0  0  0
   15.4449   -7.8375   19.5611 N   0  0  0  0  0  0  0  0  0  0  0  0
   15.0903   -7.2607   21.9254 C   0  0  0  0  0  0  0  0  0  0  0  0
   14.1877   -6.6399   22.8106 C   0  0  0  0  0  0  0  0  0  0  0  0
   12.9778   -6.0825   22.3358 C   0  0  0  0  0  0  0  0  0  0  0  0
   12.6501   -6.1364   20.9679 C   0  0  0  0  0  0  0  0  0  0  0  0
   16.3198   -8.2849   19.6202 H   0  0  0  0  0  0  0  0  0  0  0  0
  7  8  2  0  0  0
  8  9  1  0  0  0
  9 10  1  0  0  0
 10 11  2  0  0  0
 11 12  1  0  0  0
 12 13  2  0  0  0
 13 14  1  0  0  0
 14 15  2  0  0  0
  7  1  1  0  0  0
  1  2  1  0  0  0
  2  3  1  0  0  0
  3  4  1  0  0  0
  4  5  1  0  0  0
  5  6  1  0  0  0
  4 16  1  0  0  0
 16 17  1  0  0  0
 17 18  1  0  0  0
 18 19  1  0  0  0
 19 20  1  0  0  0
 20 21  1  0  0  0
 21 22  2  0  0  0
 21 23  1  0  0  0
 23 24  2  0  0  0
 24 25  1  0  0  0
 24 26  1  0  0  0
 26 27  2  0  0  0
 27 28  1  0  0  0
 28 29  2  0  0  0
 11  7  1  0  0  0
  6  1  1  0  0  0
 25 20  1  0  0  0
 15 10  1  0  0  0
 29 23  1  0  0  0
 25 30  1  0  0  0
M  END
>  <minimizedAffinity>
-8.29661

>  <minimizedRMSD>
2.15497

$$$$
CHEMBL157775


 40 42  0  0  0  0  0  0  0  0999 V2000
   16.7943   -9.3727   14.2666 C   0  0  0  0  0  0  0  0  0  0  0  0
   16.1785   -8.1176   14.2944 C   0  0  0  0  0  0  0  0  0  0  0  0
   15.6099   -7.6428   15.4795 C   0  0  0  0  0  0  0  0  0  0  0  0
   15.6488   -8.4209   16.6461 C   0  0  0  0  0  0  0  0  0  0  0  0
   16.2627   -9.6814   16.6093 C   0  0  0  0  0  0  0  0  0  0  0  0
   16.8313  -10.1564   15.4241 C   0  0  0  0  0  0  0  0  0  0  0  0
   15.0481   -7.9224   17.8953 C   0  0  0  0  0  0  0  0  0  0  0  0
   15.6650   -8.0517   18.9882 O   0  0  0  0  0  0  0  0  0  0  0  0
   13.7626   -7.2936   17.8699 N   0  0  0  0  0  0  0  0  0  0  0  0
   13.2866   -7.2298   17.0105 H   0  0  0  0  0  0  0  0  0  0  0  0
   13.1271   -6.7433   19.0618 C   0  0  0  0  0  0  0  0  0  0  0  0
   12.5833   -5.3717   18.8003 C   0  0  0  0  0  0  0  0  0  0  0  0
   11.6356   -5.1984   17.9889 O   0  0  0  0  0  0  0  0  0  0  0  0
   13.1411   -4.2791   19.4495 O   0  0  0  0  0  0  0  0  0  0  0  0
   13.8462   -4.4030   20.0540 H   0  0  0  0  0  0  0  0  0  0  0  0
   12.0576   -7.6942   19.5979 C   0  0  0  0  0  0  0  0  0  0  0  0
   11.0924   -8.1655   18.5119 C   0  0  0  0  0  0  0  0  0  0  0  0
   10.5413   -9.5301   18.7871 C   0  0  0  0  0  0  0  0  0  0  0  0
   10.8338  -10.1556   19.8415 O   0  0  0  0  0  0  0  0  0  0  0  0
    9.6903  -10.1154   17.8599 O   0  0  0  0  0  0  0  0  0  0  0  0
    9.4678   -9.6571   17.0735 H   0  0  0  0  0  0  0  0  0  0  0  0
   17.3767   -9.8903   12.9943 C   0  0  0  0  0  0  0  0  0  0  0  0
   16.3603   -9.9281   11.9478 N   0  0  0  0  0  0  0  0  0  0  0  0
   15.0102  -10.1585   12.3788 C   0  0  0  0  0  0  0  0  0  0  0  0
   14.0649  -10.3109   11.5605 O   0  0  0  0  0  0  0  0  0  0  0  0
   19.1405   -8.0632    4.9012 N   0  0  0  0  0  0  0  0  0  0  0  0
   18.8153   -8.2758    6.2692 C   0  0  0  0  0  0  0  0  0  0  0  0
   19.5764   -7.7085    7.2432 N   0  0  0  0  0  0  0  0  0  0  0  0
   19.2891   -7.8944    8.5585 C   0  0  0  0  0  0  0  0  0  0  0  0
   20.0880   -7.2981    9.5278 O   0  0  0  0  0  0  0  0  0  0  0  0
   18.1926   -8.6831    8.9201 C   0  0  0  0  0  0  0  0  0  0  0  0
   17.8445   -8.9115   10.2528 C   0  0  0  0  0  0  0  0  0  0  0  0
   16.7349   -9.7105   10.5684 C   0  0  0  0  0  0  0  0  0  0  0  0
   15.9908  -10.2594    9.5110 C   0  0  0  0  0  0  0  0  0  0  0  0
   16.3430  -10.0284    8.2173 N   0  0  0  0  0  0  0  0  0  0  0  0
   17.4175   -9.2599    7.8999 C   0  0  0  0  0  0  0  0  0  0  0  0
   17.7441   -9.0450    6.5996 N   0  0  0  0  0  0  0  0  0  0  0  0
   19.9159   -7.5065    4.6603 H   0  0  0  0  0  0  0  0  0  0  0  0
   18.5903   -8.4728    4.1950 H   0  0  0  0  0  0  0  0  0  0  0  0
   20.8201   -6.7718    9.2728 H   0  0  0  0  0  0  0  0  0  0  0  0
 26 27  1  0  0  0
 27 28  2  0  0  0
 28 29  1  0  0  0
 29 30  1  0  0  0
 29 31  2  0  0  0
 31 32  1  0  0  0
 32 33  2  0  0  0
 33 23  1  0  0  0
 33 34  1  0  0  0
 23 24  1  0  0  0
 23 22  1  0  0  0
 24 25  2  0  0  0
 22  1  1  0  0  0
  1  2  2  0  0  0
  2  3  1  0  0  0
  3  4  2  0  0  0
  4  7  1  0  0  0
  4  5  1  0  0  0
  7  8  2  0  0  0
  7  9  1  0  0  0
 11  9  1  0  0  0
 11 16  1  0  0  0
 11 12  1  0  0  0
 16 17  1  0  0  0
 17 18  1  0  0  0
 18 19  2  0  0  0
 18 20  1  0  0  0
 12 13  2  0  0  0
 12 14  1  0  0  0
  5  6  2  0  0  0
  6  1  1  0  0  0
 34 35  2  0  0  0
 35 36  1  0  0  0
 36 37  2  0  0  0
 36 31  1  0  0  0
 37 27  1  0  0  0
 26 38  1  0  0  0
 26 39  1  0  0  0
 30 40  1  0  0  0
  9 10  1  0  0  0
 20 21  1  0  0  0
 14 15  1  0  0  0
M  END
>  <minimizedAffinity>
-8.32140

>  <minimizedRMSD>
2.15498

$$$$
CHEMBL4792689 PubChem-133084072


 35 38  0  0  0  0  0  0  0  0999 V2000
   18.0957   -9.3242   10.3047 C   0  0  0  0  0  0  0  0  0  0  0  0
   19.0978   -8.4470   10.7605 C   0  0  0  0  0  0  0  0  0  0  0  0
   19.8267   -7.6948    9.8796 N   0  0  0  0  0  0  0  0  0  0  0  0
   19.6183   -7.7439    8.5283 C   0  0  0  0  0  0  0  0  0  0  0  0
   18.5993   -8.5810    8.0545 C   0  0  0  0  0  0  0  0  0  0  0  0
   17.8861   -9.3637    8.9202 C   0  0  0  0  0  0  0  0  0  0  0  0
   17.0345  -10.1268    8.1418 C   0  0  0  0  0  0  0  0  0  0  0  0
   17.2514   -9.7820    6.8494 N   0  0  0  0  0  0  0  0  0  0  0  0
   18.1905   -8.8440    6.7948 N   0  0  0  0  0  0  0  0  0  0  0  0
   18.6000   -8.2319    5.5635 C   0  0  0  0  0  0  0  0  0  0  0  0
   18.2392   -8.8181    4.3424 C   0  0  0  0  0  0  0  0  0  0  0  0
   18.5824   -8.2034    3.1346 C   0  0  0  0  0  0  0  0  0  0  0  0
   19.2761   -6.9903    3.1404 C   0  0  0  0  0  0  0  0  0  0  0  0
   19.6152   -6.3854    4.3538 C   0  0  0  0  0  0  0  0  0  0  0  0
   19.2718   -7.0005    5.5609 C   0  0  0  0  0  0  0  0  0  0  0  0
   19.6094   -6.3949    1.9704 F   0  0  0  0  0  0  0  0  0  0  0  0
   17.9677  -10.6493   12.4414 N   0  0  0  0  0  0  0  0  0  0  0  0
   17.3285  -10.1475   11.2627 C   0  0  0  0  0  0  0  0  0  0  0  0
   16.1148  -10.4139   11.0456 O   0  0  0  0  0  0  0  0  0  0  0  0
   18.9282  -10.4740   12.5675 H   0  0  0  0  0  0  0  0  0  0  0  0
   17.2574  -11.4081   13.4619 C   0  0  0  0  0  0  0  0  0  0  0  0
   16.0763   -8.8048   16.6626 C   0  0  0  0  0  0  0  0  0  0  0  0
   16.7674   -9.9899   16.9399 C   0  0  0  0  0  0  0  0  0  0  0  0
   17.1486  -10.8399   15.8976 C   0  0  0  0  0  0  0  0  0  0  0  0
   16.8343  -10.5104   14.5747 C   0  0  0  0  0  0  0  0  0  0  0  0
   16.1437   -9.3260   14.2969 C   0  0  0  0  0  0  0  0  0  0  0  0
   15.7640   -8.4757   15.3390 C   0  0  0  0  0  0  0  0  0  0  0  0
   15.5886   -7.7425   17.9738 S   0  0  0  0  0  0  0  0  0  0  0  0
   14.3240   -7.0202   17.5971 O   0  0  0  0  0  0  0  0  0  0  0  0
   16.6682   -6.7246   18.2141 O   0  0  0  0  0  0  0  0  0  0  0  0
   14.8527   -7.7461   20.4474 C   0  0  0  0  0  0  0  0  0  0  0  0
   15.3347   -8.6572   19.4230 N   0  0  0  0  0  0  0  0  0  0  0  0
   14.6426   -9.3875   19.2552 H   0  0  0  0  0  0  0  0  0  0  0  0
   20.4199   -7.0043    7.6583 O   0  0  0  0  0  0  0  0  0  0  0  0
   21.6833   -7.4745    7.2142 C   0  0  0  0  0  0  0  0  0  0  0  0
 31 32  1  0  0  0
 32 28  1  0  0  0
 28 29  2  0  0  0
 28 30  2  0  0  0
 28 22  1  0  0  0
 22 23  2  0  0  0
 23 24  1  0  0  0
 24 25  2  0  0  0
 25 26  1  0  0  0
 26 27  2  0  0  0
 25 21  1  0  0  0
 21 17  1  0  0  0
 17 18  1  0  0  0
 18 19  2  0  0  0
 18  1  1  0  0  0
  1  2  2  0  0  0
  2  3  1  0  0  0
  3  4  2  0  0  0
  4  5  1  0  0  0
  5  6  2  0  0  0
  6  7  1  0  0  0
  7  8  2  0  0  0
  8  9  1  0  0  0
  9 10  1  0  0  0
 10 11  2  0  0  0
 11 12  1  0  0  0
 12 13  2  0  0  0
 13 14  1  0  0  0
 14 15  2  0  0  0
 13 16  1  0  0  0
  4 34  1  0  0  0
 34 35  1  0  0  0
 27 22  1  0  0  0
  6  1  1  0  0  0
  9  5  1  0  0  0
 15 10  1  0  0  0
 32 33  1  0  0  0
 17 20  1  0  0  0
M  END
>  <minimizedAffinity>
0.92576

>  <minimizedRMSD>
2.15990

$$$$
CHEMBL2338808 MCULE-3062754671 PubChem-71654909


 31 33  0  0  0  0  0  0  0  0999 V2000
   18.2637  -10.0754   15.5627 C   0  0  0  0  0  0  0  0  0  0  0  0
   17.7304   -8.8052   14.8814 C   0  0  0  0  0  0  0  0  0  0  0  0
   18.0750   -8.7487   13.3965 C   0  0  0  0  0  0  0  0  0  0  0  0
   17.6167   -9.9748   12.7431 N   0  0  0  0  0  0  0  0  0  0  0  0
   17.9438  -11.2723   13.3453 C   0  0  0  0  0  0  0  0  0  0  0  0
   18.8333  -11.1122   14.5805 C   0  0  0  0  0  0  0  0  0  0  0  0
   16.7068   -9.9352   11.6275 C   0  0  0  0  0  0  0  0  0  0  0  0
   15.4202  -10.3646   11.7895 N   0  0  0  0  0  0  0  0  0  0  0  0
   14.5187  -10.3489   10.7636 C   0  0  0  0  0  0  0  0  0  0  0  0
   14.8849   -9.9047    9.5287 N   0  0  0  0  0  0  0  0  0  0  0  0
   16.1547   -9.4786    9.3220 C   0  0  0  0  0  0  0  0  0  0  0  0
   17.0790   -9.4847   10.3520 C   0  0  0  0  0  0  0  0  0  0  0  0
   18.5558   -8.9454    9.7539 S   0  0  0  0  0  0  0  0  0  0  0  0
   17.9942   -8.6875    8.1780 C   0  0  0  0  0  0  0  0  0  0  0  0
   16.6447   -9.0307    8.0922 C   0  0  0  0  0  0  0  0  0  0  0  0
   18.8088   -8.1853    7.0658 C   0  0  0  0  0  0  0  0  0  0  0  0
   19.8438   -7.5063    7.2955 O   0  0  0  0  0  0  0  0  0  0  0  0
   18.4353   -8.4617    5.7198 N   0  0  0  0  0  0  0  0  0  0  0  0
   17.6273   -8.9920    5.5321 H   0  0  0  0  0  0  0  0  0  0  0  0
   18.9850   -8.1224    4.9769 H   0  0  0  0  0  0  0  0  0  0  0  0
   17.1645  -10.6840   16.4229 C   0  0  0  0  0  0  0  0  0  0  0  0
   15.9410   -9.7786   16.4831 C   0  0  0  0  0  0  0  0  0  0  0  0
   16.2896   -8.3941   17.0140 C   0  0  0  0  0  0  0  0  0  0  0  0
   15.6520   -8.1672   18.3031 N   0  0  0  0  0  0  0  0  0  0  0  0
   14.3690   -7.5444   18.4321 C   0  0  0  0  0  0  0  0  0  0  0  0
   13.8042   -7.0564   17.4139 O   0  0  0  0  0  0  0  0  0  0  0  0
   16.1221   -8.4535   19.1194 H   0  0  0  0  0  0  0  0  0  0  0  0
   13.7421   -7.3927   19.7934 C   0  0  0  0  0  0  0  0  0  0  0  0
   13.3524   -5.9435   20.0062 C   0  0  0  0  0  0  0  0  0  0  0  0
   12.5000   -8.2584   19.9269 C   0  0  0  0  0  0  0  0  0  0  0  0
   14.7216   -7.8029   20.8785 C   0  0  0  0  0  0  0  0  0  0  0  0
 24 25  1  0  0  0
 25 26  2  0  0  0
 25 28  1  0  0  0
 28 29  1  0  0  0
 28 30  1  0  0  0
 28 31  1  0  0  0
 24 23  1  0  0  0
 23 22  1  0  0  0
 22 21  1  0  0  0
 21  1  1  0  0  0
  1  2  1  0  0  0
  2  3  1  0  0  0
  3  4  1  0  0  0
  4  7  1  0  0  0
  7  8  2  0  0  0
  8  9  1  0  0  0
  9 10  2  0  0  0
 10 11  1  0  0  0
 11 12  2  0  0  0
 12 13  1  0  0  0
 13 14  1  0  0  0
 14 15  2  0  0  0
 14 16  1  0  0  0
 16 17  2  0  0  0
 16 18  1  0  0  0
  4  5  1  0  0  0
  5  6  1  0  0  0
  6  1  1  0  0  0
 12  7  1  0  0  0
 15 11  1  0  0  0
 24 27  1  0  0  0
 18 19  1  0  0  0
 18 20  1  0  0  0
M  END
>  <minimizedAffinity>
-6.25379

>  <minimizedRMSD>
2.16113

$$$$
CHEMBL2037408 PubChem-60166878


 33 37  0  0  0  0  0  0  0  0999 V2000
   17.4273   -9.1841   16.0685 C   0  0  0  0  0  0  0  0  0  0  0  0
   16.0874   -8.4881   18.0898 N   0  0  0  0  0  0  0  0  0  0  0  0
   16.3285   -8.3879   16.6819 C   0  0  0  0  0  0  0  0  0  0  0  0
   15.6203   -7.6492   15.9483 O   0  0  0  0  0  0  0  0  0  0  0  0
   16.6775   -9.0890   18.5996 H   0  0  0  0  0  0  0  0  0  0  0  0
   11.8008   -5.4819   21.3406 C   0  0  0  0  0  0  0  0  0  0  0  0
   12.8287   -5.6950   22.2806 C   0  0  0  0  0  0  0  0  0  0  0  0
   14.0076   -6.3688   21.9208 C   0  0  0  0  0  0  0  0  0  0  0  0
   14.1409   -6.8263   20.6109 C   0  0  0  0  0  0  0  0  0  0  0  0
   15.2302   -7.4810   20.1367 N   0  0  0  0  0  0  0  0  0  0  0  0
   15.0715   -7.7997   18.8293 C   0  0  0  0  0  0  0  0  0  0  0  0
   13.5768   -7.2783   18.2156 S   0  0  0  0  0  0  0  0  0  0  0  0
   13.1261   -6.6218   19.6911 C   0  0  0  0  0  0  0  0  0  0  0  0
   11.9501   -5.9552   20.0206 C   0  0  0  0  0  0  0  0  0  0  0  0
   10.6521   -4.7955   21.7444 O   0  0  0  0  0  0  0  0  0  0  0  0
   10.6526   -3.9238   23.9769 C   0  0  0  0  0  0  0  0  0  0  0  0
   10.7015   -3.5934   22.4998 C   0  0  0  0  0  0  0  0  0  0  0  0
   16.7884  -10.7622   15.4261 S   0  0  0  0  0  0  0  0  0  0  0  0
   16.9327  -10.2433   13.7204 C   0  0  0  0  0  0  0  0  0  0  0  0
   15.8826  -10.0363   12.9044 N   0  0  0  0  0  0  0  0  0  0  0  0
   16.3900   -9.6701   11.7373 N   0  0  0  0  0  0  0  0  0  0  0  0
   17.7266   -9.6702   11.8919 C   0  0  0  0  0  0  0  0  0  0  0  0
   18.0696  -10.0211   13.1076 O   0  0  0  0  0  0  0  0  0  0  0  0
   18.6893   -9.3112   10.8123 C   0  0  0  0  0  0  0  0  0  0  0  0
   18.0263   -9.3498    9.5178 N   0  0  0  0  0  0  0  0  0  0  0  0
   16.9143  -10.0521    9.1972 C   0  0  0  0  0  0  0  0  0  0  0  0
   16.5748   -9.9113    7.8868 N   0  0  0  0  0  0  0  0  0  0  0  0
   17.5285   -9.0969    7.3992 C   0  0  0  0  0  0  0  0  0  0  0  0
   17.6613   -8.6248    6.0956 C   0  0  0  0  0  0  0  0  0  0  0  0
   18.7481   -7.7709    5.8242 C   0  0  0  0  0  0  0  0  0  0  0  0
   19.6611   -7.4204    6.8451 C   0  0  0  0  0  0  0  0  0  0  0  0
   19.4974   -7.9163    8.1519 C   0  0  0  0  0  0  0  0  0  0  0  0
   18.4078   -8.7554    8.3813 C   0  0  0  0  0  0  0  0  0  0  0  0
 16 17  1  0  0  0
 17 15  1  0  0  0
 15  6  1  0  0  0
  6  7  2  0  0  0
  7  8  1  0  0  0
  8  9  2  0  0  0
  9 10  1  0  0  0
 10 11  2  0  0  0
 11  2  1  0  0  0
 11 12  1  0  0  0
  2  3  1  0  0  0
  3  4  2  0  0  0
  3  1  1  0  0  0
  1 18  1  0  0  0
 18 19  1  0  0  0
 19 20  2  0  0  0
 20 21  1  0  0  0
 21 22  2  0  0  0
 22 24  1  0  0  0
 22 23  1  0  0  0
 24 25  1  0  0  0
 25 26  1  0  0  0
 26 27  2  0  0  0
 27 28  1  0  0  0
 28 29  2  0  0  0
 29 30  1  0  0  0
 30 31  2  0  0  0
 31 32  1  0  0  0
 32 33  2  0  0  0
 33 25  1  0  0  0
 33 28  1  0  0  0
 23 19  1  0  0  0
 12 13  1  0  0  0
 13 14  2  0  0  0
 13  9  1  0  0  0
 14  6  1  0  0  0
  2  5  1  0  0  0
M  END
>  <minimizedAffinity>
-8.85397

>  <minimizedRMSD>
2.16339

$$$$
CHEMBL5089433 PubChem-156898657


 36 40  0  0  0  0  0  0  0  0999 V2000
   13.6485  -10.7283   15.5045 C   0  0  0  0  0  0  0  0  0  0  0  0
   14.7721  -10.1827   14.6861 C   0  0  0  0  0  0  0  0  0  0  0  0
   15.7645   -9.4326   15.2158 C   0  0  0  0  0  0  0  0  0  0  0  0
   16.8219   -8.8248   14.3019 C   0  0  0  0  0  0  0  0  0  0  0  0
   16.7067   -9.2017   12.8900 N   0  0  0  0  0  0  0  0  0  0  0  0
   15.7480   -9.9323   12.4110 C   0  0  0  0  0  0  0  0  0  0  0  0
   14.7405  -10.4398   13.2817 N   0  0  0  0  0  0  0  0  0  0  0  0
   14.0070  -10.9792   12.9070 H   0  0  0  0  0  0  0  0  0  0  0  0
   18.2281   -9.0502   14.7852 C   0  0  0  0  0  0  0  0  0  0  0  0
   18.7653   -8.1146   15.6774 C   0  0  0  0  0  0  0  0  0  0  0  0
   20.0667   -8.2613   16.1625 C   0  0  0  0  0  0  0  0  0  0  0  0
   20.8447   -9.3464   15.7558 C   0  0  0  0  0  0  0  0  0  0  0  0
   20.3223  -10.2838   14.8622 C   0  0  0  0  0  0  0  0  0  0  0  0
   19.0203  -10.1451   14.3706 C   0  0  0  0  0  0  0  0  0  0  0  0
   18.4340  -11.3590   13.2432 Cl  0  0  0  0  0  0  0  0  0  0  0  0
   15.8217   -9.0941   16.6616 C   0  0  0  0  0  0  0  0  0  0  0  0
   16.4751   -9.8338   17.4468 O   0  0  0  0  0  0  0  0  0  0  0  0
   15.1075   -7.9697   17.1802 N   0  0  0  0  0  0  0  0  0  0  0  0
   14.5847   -7.4110   16.5606 H   0  0  0  0  0  0  0  0  0  0  0  0
   15.1276   -7.6237   18.5916 C   0  0  0  0  0  0  0  0  0  0  0  0
   13.8071   -7.0655   18.9850 C   0  0  0  0  0  0  0  0  0  0  0  0
   12.7460   -6.8207   18.1291 C   0  0  0  0  0  0  0  0  0  0  0  0
   11.6708   -6.2477   18.7349 N   0  0  0  0  0  0  0  0  0  0  0  0
   11.8578   -6.0177   20.0559 C   0  0  0  0  0  0  0  0  0  0  0  0
   13.3938   -6.5283   20.5182 S   0  0  0  0  0  0  0  0  0  0  0  0
   15.6978  -10.2580   11.0182 N   0  0  0  0  0  0  0  0  0  0  0  0
   15.0468  -10.9392   10.7329 H   0  0  0  0  0  0  0  0  0  0  0  0
   16.5231   -9.6675   10.0094 C   0  0  0  0  0  0  0  0  0  0  0  0
   16.3471   -9.9216    8.6865 N   0  0  0  0  0  0  0  0  0  0  0  0
   17.3201   -9.1771    8.1346 C   0  0  0  0  0  0  0  0  0  0  0  0
   17.6276   -9.0410    6.7833 C   0  0  0  0  0  0  0  0  0  0  0  0
   18.7027   -8.1960    6.4476 C   0  0  0  0  0  0  0  0  0  0  0  0
   19.4295   -7.5211    7.4553 C   0  0  0  0  0  0  0  0  0  0  0  0
   19.0910   -7.6821    8.8122 C   0  0  0  0  0  0  0  0  0  0  0  0
   18.0226   -8.5251    9.1039 C   0  0  0  0  0  0  0  0  0  0  0  0
   17.5203   -8.8359   10.2670 O   0  0  0  0  0  0  0  0  0  0  0  0
  1  2  1  0  0  0
  2  3  2  0  0  0
  3  4  1  0  0  0
  4  5  1  0  0  0
  5  6  2  0  0  0
  6  7  1  0  0  0
  6 26  1  0  0  0
 26 28  1  0  0  0
 28 29  2  0  0  0
 29 30  1  0  0  0
 30 31  2  0  0  0
 31 32  1  0  0  0
 32 33  2  0  0  0
 33 34  1  0  0  0
 34 35  2  0  0  0
 35 36  1  0  0  0
  4  9  1  0  0  0
  9 10  2  0  0  0
 10 11  1  0  0  0
 11 12  2  0  0  0
 12 13  1  0  0  0
 13 14  2  0  0  0
 14 15  1  0  0  0
  3 16  1  0  0  0
 16 17  2  0  0  0
 16 18  1  0  0  0
 18 20  1  0  0  0
 20 21  1  0  0  0
 21 22  2  0  0  0
 22 23  1  0  0  0
 23 24  2  0  0  0
 24 25  1  0  0  0
  7  2  1  0  0  0
 36 28  1  0  0  0
 35 30  1  0  0  0
 14  9  1  0  0  0
 25 21  1  0  0  0
  7  8  1  0  0  0
 26 27  1  0  0  0
 18 19  1  0  0  0
M  END
>  <minimizedAffinity>
-1.67537

>  <minimizedRMSD>
2.16491

$$$$
CHEMBL46751 PubChem-44291366


 38 41  0  0  0  0  0  0  0  0999 V2000
   16.7678  -10.1362   14.9980 C   0  0  0  0  0  0  0  0  0  0  0  0
   15.8502   -9.4107   14.2321 C   0  0  0  0  0  0  0  0  0  0  0  0
   16.0864   -9.1978   12.8718 C   0  0  0  0  0  0  0  0  0  0  0  0
   17.2391   -9.7159   12.2620 C   0  0  0  0  0  0  0  0  0  0  0  0
   18.1445  -10.4573   13.0289 C   0  0  0  0  0  0  0  0  0  0  0  0
   17.9100  -10.6709   14.3902 C   0  0  0  0  0  0  0  0  0  0  0  0
   17.5153   -9.5197   10.8685 N   0  0  0  0  0  0  0  0  0  0  0  0
   16.6344   -9.7813    9.7657 C   0  0  0  0  0  0  0  0  0  0  0  0
   15.4645  -10.1998    9.9828 O   0  0  0  0  0  0  0  0  0  0  0  0
   18.4065   -9.1670   10.6436 H   0  0  0  0  0  0  0  0  0  0  0  0
   17.0717   -9.5521    8.3606 C   0  0  0  0  0  0  0  0  0  0  0  0
   18.1650   -8.7255    7.9903 C   0  0  0  0  0  0  0  0  0  0  0  0
   18.4852   -8.5863    6.6151 C   0  0  0  0  0  0  0  0  0  0  0  0
   17.7559   -9.2371    5.6728 N   0  0  0  0  0  0  0  0  0  0  0  0
   16.7100  -10.0337    6.0070 C   0  0  0  0  0  0  0  0  0  0  0  0
   16.3562  -10.2019    7.3444 C   0  0  0  0  0  0  0  0  0  0  0  0
   19.5568   -7.7808    6.2183 C   0  0  0  0  0  0  0  0  0  0  0  0
   20.3222   -7.1089    7.1731 C   0  0  0  0  0  0  0  0  0  0  0  0
   20.0201   -7.2407    8.5293 C   0  0  0  0  0  0  0  0  0  0  0  0
   18.9507   -8.0437    8.9334 C   0  0  0  0  0  0  0  0  0  0  0  0
   16.4926  -10.3672   16.4489 C   0  0  0  0  0  0  0  0  0  0  0  0
   17.1525   -9.3537   17.3943 C   0  0  0  0  0  0  0  0  0  0  0  0
   15.1201   -7.8216   17.8890 C   0  0  0  0  0  0  0  0  0  0  0  0
   15.0246   -7.4501   16.6884 O   0  0  0  0  0  0  0  0  0  0  0  0
   16.1935   -8.6898   18.2826 N   0  0  0  0  0  0  0  0  0  0  0  0
   16.2962   -8.8564   19.2475 H   0  0  0  0  0  0  0  0  0  0  0  0
   14.1251   -7.3540   18.8902 C   0  0  0  0  0  0  0  0  0  0  0  0
   14.4599   -7.2609   20.2609 C   0  0  0  0  0  0  0  0  0  0  0  0
   15.7006   -7.5725   20.7112 F   0  0  0  0  0  0  0  0  0  0  0  0
   13.5142   -6.8218   21.1911 C   0  0  0  0  0  0  0  0  0  0  0  0
   12.2294   -6.4720   20.7800 C   0  0  0  0  0  0  0  0  0  0  0  0
   11.8829   -6.5594   19.4328 C   0  0  0  0  0  0  0  0  0  0  0  0
   12.8171   -6.9951   18.4896 C   0  0  0  0  0  0  0  0  0  0  0  0
   12.4269   -7.0816   17.1933 F   0  0  0  0  0  0  0  0  0  0  0  0
   18.1412   -8.4280   16.7397 C   0  0  0  0  0  0  0  0  0  0  0  0
   17.8466   -7.7958   15.6916 O   0  0  0  0  0  0  0  0  0  0  0  0
   19.3839   -8.2298   17.3271 O   0  0  0  0  0  0  0  0  0  0  0  0
   19.6129   -8.6955   18.1073 H   0  0  0  0  0  0  0  0  0  0  0  0
 23 24  2  0  0  0
 23 27  1  0  0  0
 27 28  2  0  0  0
 28 29  1  0  0  0
 28 30  1  0  0  0
 30 31  2  0  0  0
 31 32  1  0  0  0
 32 33  2  0  0  0
 33 34  1  0  0  0
 23 25  1  0  0  0
 25 22  1  0  0  0
 22 35  1  0  0  0
 35 36  2  0  0  0
 35 37  1  0  0  0
 22 21  1  0  0  0
 21  1  1  0  0  0
  1  2  2  0  0  0
  2  3  1  0  0  0
  3  4  2  0  0  0
  4  7  1  0  0  0
  7  8  1  0  0  0
  8  9  2  0  0  0
  8 11  1  0  0  0
 11 12  2  0  0  0
 12 13  1  0  0  0
 13 14  2  0  0  0
 14 15  1  0  0  0
 15 16  2  0  0  0
 13 17  1  0  0  0
 17 18  2  0  0  0
 18 19  1  0  0  0
 19 20  2  0  0  0
  4  5  1  0  0  0
  5  6  2  0  0  0
 33 27  1  0  0  0
  6  1  1  0  0  0
 16 11  1  0  0  0
 20 12  1  0  0  0
 25 26  1  0  0  0
 37 38  1  0  0  0
  7 10  1  0  0  0
M  END
>  <minimizedAffinity>
-3.97428

>  <minimizedRMSD>
2.16636

$$$$
CHEMBL3775791 PubChem-127032354


 28 31  0  0  0  0  0  0  0  0999 V2000
   18.0775  -11.7042   14.1090 C   0  0  0  0  0  0  0  0  0  0  0  0
   17.9898  -12.9067   14.4727 O   0  0  0  0  0  0  0  0  0  0  0  0
   17.7559  -10.6245   15.0523 C   0  0  0  0  0  0  0  0  0  0  0  0
   16.5675  -10.0883   15.1727 O   0  0  0  0  0  0  0  0  0  0  0  0
   16.6359   -9.1659   16.0974 C   0  0  0  0  0  0  0  0  0  0  0  0
   17.9147   -9.0750   16.6111 C   0  0  0  0  0  0  0  0  0  0  0  0
   18.6489  -10.0325   15.9285 C   0  0  0  0  0  0  0  0  0  0  0  0
   15.4850   -8.3124   16.5073 C   0  0  0  0  0  0  0  0  0  0  0  0
   15.5773   -7.9906   17.9243 N   0  0  0  0  0  0  0  0  0  0  0  0
   14.5633   -7.2599   18.6206 C   0  0  0  0  0  0  0  0  0  0  0  0
   13.5249   -6.8759   18.0165 O   0  0  0  0  0  0  0  0  0  0  0  0
   16.3713   -8.2884   18.4245 H   0  0  0  0  0  0  0  0  0  0  0  0
   14.7555   -6.9121   20.0609 C   0  0  0  0  0  0  0  0  0  0  0  0
   14.9229   -8.1782   20.8814 C   0  0  0  0  0  0  0  0  0  0  0  0
   13.5982   -7.4501   20.8830 C   0  0  0  0  0  0  0  0  0  0  0  0
   18.5304  -11.3965   12.7196 C   0  0  0  0  0  0  0  0  0  0  0  0
   18.5239   -9.6006   12.4095 S   0  0  0  0  0  0  0  0  0  0  0  0
   15.4254  -10.0071    9.0802 N   0  0  0  0  0  0  0  0  0  0  0  0
   15.2120  -10.5057   10.3279 C   0  0  0  0  0  0  0  0  0  0  0  0
   16.1602  -10.3639   11.2986 N   0  0  0  0  0  0  0  0  0  0  0  0
   17.3437   -9.7285   11.0626 C   0  0  0  0  0  0  0  0  0  0  0  0
   17.5789   -9.2021    9.7786 C   0  0  0  0  0  0  0  0  0  0  0  0
   16.5907   -9.3692    8.8221 C   0  0  0  0  0  0  0  0  0  0  0  0
   17.0448   -8.6856    7.3606 S   0  0  0  0  0  0  0  0  0  0  0  0
   18.5415   -8.1516    7.9312 C   0  0  0  0  0  0  0  0  0  0  0  0
   18.6981   -8.5051    9.2745 C   0  0  0  0  0  0  0  0  0  0  0  0
   19.9255   -8.1609   10.0510 C   0  0  0  0  0  0  0  0  0  0  0  0
   19.5337   -7.4113    7.1029 C   0  0  0  0  0  0  0  0  0  0  0  0
 18 19  2  0  0  0
 19 20  1  0  0  0
 20 21  2  0  0  0
 21 22  1  0  0  0
 22 23  2  0  0  0
 23 24  1  0  0  0
 24 25  1  0  0  0
 25 26  2  0  0  0
 26 27  1  0  0  0
 25 28  1  0  0  0
 21 17  1  0  0  0
 17 16  1  0  0  0
 16  1  1  0  0  0
  1  2  2  0  0  0
  1  3  1  0  0  0
  3  4  1  0  0  0
  4  5  1  0  0  0
  5  6  2  0  0  0
  6  7  1  0  0  0
  5  8  1  0  0  0
  8  9  1  0  0  0
  9 10  1  0  0  0
 10 11  2  0  0  0
 10 13  1  0  0  0
 13 14  1  0  0  0
 14 15  1  0  0  0
 23 18  1  0  0  0
  7  3  2  0  0  0
 15 13  1  0  0  0
 26 22  1  0  0  0
  9 12  1  0  0  0
M  END
>  <minimizedAffinity>
-7.65280

>  <minimizedRMSD>
2.16638

$$$$
CHEMBL4161694 40150961 CSC025968860 MCULE-4725901803 MolPort-009-336-342 Z595006416 ZINC000040150961


 34 38  0  0  0  0  0  0  0  0999 V2000
   17.2264   -9.6766   12.9157 N   0  0  0  0  0  0  0  0  0  0  0  0
   17.9618   -9.3829   11.7211 C   0  0  0  0  0  0  0  0  0  0  0  0
   18.9486  -10.0883   11.3728 O   0  0  0  0  0  0  0  0  0  0  0  0
   16.3866   -9.1804   13.0486 H   0  0  0  0  0  0  0  0  0  0  0  0
   18.7750  -13.3975   16.9951 C   0  0  0  0  0  0  0  0  0  0  0  0
   18.3652  -12.4364   15.9380 C   0  0  0  0  0  0  0  0  0  0  0  0
   17.6798  -11.2705   16.2822 C   0  0  0  0  0  0  0  0  0  0  0  0
   17.2816  -10.3506   15.2988 C   0  0  0  0  0  0  0  0  0  0  0  0
   17.5850  -10.6183   13.9398 C   0  0  0  0  0  0  0  0  0  0  0  0
   18.2779  -11.7946   13.6112 C   0  0  0  0  0  0  0  0  0  0  0  0
   18.6636  -12.6994   14.6018 C   0  0  0  0  0  0  0  0  0  0  0  0
   16.5425   -9.1406   15.7311 C   0  0  0  0  0  0  0  0  0  0  0  0
   16.6297   -7.9515   15.1005 N   0  0  0  0  0  0  0  0  0  0  0  0
   15.8592   -7.1082   15.7658 N   0  0  0  0  0  0  0  0  0  0  0  0
   15.3165   -7.8048   16.7812 C   0  0  0  0  0  0  0  0  0  0  0  0
   15.7285   -9.0870   16.8061 N   0  0  0  0  0  0  0  0  0  0  0  0
   17.1644   -7.7503   14.2988 H   0  0  0  0  0  0  0  0  0  0  0  0
   14.4138   -7.2084   17.8138 C   0  0  0  0  0  0  0  0  0  0  0  0
   13.8510   -8.3039   18.7032 C   0  0  0  0  0  0  0  0  0  0  0  0
   14.9936   -7.4455   19.1999 C   0  0  0  0  0  0  0  0  0  0  0  0
   17.4950   -8.2662   10.8461 C   0  0  0  0  0  0  0  0  0  0  0  0
   17.3443   -8.7145    9.4647 N   0  0  0  0  0  0  0  0  0  0  0  0
   18.0896   -8.3687    8.4052 C   0  0  0  0  0  0  0  0  0  0  0  0
   17.6503   -9.0609    7.3141 C   0  0  0  0  0  0  0  0  0  0  0  0
   18.2463   -8.9177    6.0633 C   0  0  0  0  0  0  0  0  0  0  0  0
   19.3267   -8.0204    5.9584 C   0  0  0  0  0  0  0  0  0  0  0  0
   19.7794   -7.3035    7.0895 C   0  0  0  0  0  0  0  0  0  0  0  0
   19.1586   -7.4747    8.3409 C   0  0  0  0  0  0  0  0  0  0  0  0
   16.6228   -9.8667    7.6459 N   0  0  0  0  0  0  0  0  0  0  0  0
   16.4589   -9.6224    8.9752 C   0  0  0  0  0  0  0  0  0  0  0  0
   15.4304  -10.3244    9.8128 C   0  0  0  0  0  0  0  0  0  0  0  0
   14.9662   -9.4712   10.7975 F   0  0  0  0  0  0  0  0  0  0  0  0
   15.9976  -11.4381   10.4040 F   0  0  0  0  0  0  0  0  0  0  0  0
   14.3646  -10.7248    9.0270 F   0  0  0  0  0  0  0  0  0  0  0  0
  5  6  1  0  0  0
  6  7  2  0  0  0
  7  8  1  0  0  0
  8 12  1  0  0  0
 12 13  1  0  0  0
 13 14  1  0  0  0
 14 15  2  0  0  0
 15 18  1  0  0  0
 18 19  1  0  0  0
 19 20  1  0  0  0
 15 16  1  0  0  0
  8  9  2  0  0  0
  9  1  1  0  0  0
  1  2  1  0  0  0
  2 21  1  0  0  0
 21 22  1  0  0  0
 22 23  1  0  0  0
 23 24  1  0  0  0
 24 25  2  0  0  0
 25 26  1  0  0  0
 26 27  2  0  0  0
 27 28  1  0  0  0
 24 29  1  0  0  0
 29 30  2  0  0  0
 30 31  1  0  0  0
 31 32  1  0  0  0
 31 33  1  0  0  0
 31 34  1  0  0  0
  2  3  2  0  0  0
  9 10  1  0  0  0
 10 11  2  0  0  0
 11  6  1  0  0  0
 16 12  2  0  0  0
 30 22  1  0  0  0
 20 18  1  0  0  0
 28 23  2  0  0  0
 13 17  1  0  0  0
  1  4  1  0  0  0
M  END
>  <minimizedAffinity>
-2.55568

>  <minimizedRMSD>
2.16678

$$$$
CHEMBL3962351 PubChem-60207645


 32 34  0  0  0  0  0  0  0  0999 V2000
   17.2290   -8.5441   15.5728 C   0  0  0  0  0  0  0  0  0  0  0  0
   16.2376   -8.9703   16.6436 C   0  0  0  0  0  0  0  0  0  0  0  0
   15.0456   -8.0277   16.6716 C   0  0  0  0  0  0  0  0  0  0  0  0
   13.5258   -6.8981   18.3408 N   0  0  0  0  0  0  0  0  0  0  0  0
   14.7561   -7.5801   18.0637 C   0  0  0  0  0  0  0  0  0  0  0  0
   15.5869   -7.8282   18.9772 O   0  0  0  0  0  0  0  0  0  0  0  0
   12.9257   -6.7443   17.5756 H   0  0  0  0  0  0  0  0  0  0  0  0
   12.1794   -5.4344   22.0908 C   0  0  0  0  0  0  0  0  0  0  0  0
   12.8453   -6.6600   22.0261 C   0  0  0  0  0  0  0  0  0  0  0  0
   13.2913   -7.1478   20.7951 C   0  0  0  0  0  0  0  0  0  0  0  0
   13.0763   -6.4155   19.6168 C   0  0  0  0  0  0  0  0  0  0  0  0
   12.4052   -5.1828   19.6906 C   0  0  0  0  0  0  0  0  0  0  0  0
   11.9600   -4.6976   20.9245 C   0  0  0  0  0  0  0  0  0  0  0  0
   12.1706   -4.4153   18.5138 N   0  0  0  0  0  0  0  0  0  0  0  0
   12.4796   -4.7472   17.6400 H   0  0  0  0  0  0  0  0  0  0  0  0
   11.6994   -3.5530   18.5743 H   0  0  0  0  0  0  0  0  0  0  0  0
   18.1918   -9.6783   15.2565 C   0  0  0  0  0  0  0  0  0  0  0  0
   17.5194  -10.7552   14.4185 C   0  0  0  0  0  0  0  0  0  0  0  0
   17.7102  -10.4783   13.0032 N   0  0  0  0  0  0  0  0  0  0  0  0
   16.6579   -9.9631   12.1846 C   0  0  0  0  0  0  0  0  0  0  0  0
   15.5201   -9.7415   12.6827 O   0  0  0  0  0  0  0  0  0  0  0  0
   18.5902  -10.6510   12.5971 H   0  0  0  0  0  0  0  0  0  0  0  0
   16.9084   -9.6885   10.7620 C   0  0  0  0  0  0  0  0  0  0  0  0
   17.9055   -8.8356   10.3976 N   0  0  0  0  0  0  0  0  0  0  0  0
   18.1567   -8.5637    9.0909 C   0  0  0  0  0  0  0  0  0  0  0  0
   19.1831   -7.6864    8.7314 C   0  0  0  0  0  0  0  0  0  0  0  0
   19.4271   -7.4184    7.3802 C   0  0  0  0  0  0  0  0  0  0  0  0
   18.6466   -8.0259    6.3897 C   0  0  0  0  0  0  0  0  0  0  0  0
   17.6178   -8.9049    6.7449 C   0  0  0  0  0  0  0  0  0  0  0  0
   17.3705   -9.1757    8.0934 C   0  0  0  0  0  0  0  0  0  0  0  0
   16.3762  -10.0260    8.4568 N   0  0  0  0  0  0  0  0  0  0  0  0
   16.1289  -10.2946    9.7666 C   0  0  0  0  0  0  0  0  0  0  0  0
  8  9  2  0  0  0
  9 10  1  0  0  0
 10 11  2  0  0  0
 11 12  1  0  0  0
 11  4  1  0  0  0
 12 13  2  0  0  0
 12 14  1  0  0  0
 13  8  1  0  0  0
  4  5  1  0  0  0
  5  6  2  0  0  0
  5  3  1  0  0  0
  3  2  1  0  0  0
  2  1  1  0  0  0
  1 17  1  0  0  0
 17 18  1  0  0  0
 18 19  1  0  0  0
 19 20  1  0  0  0
 20 21  2  0  0  0
 20 23  1  0  0  0
 23 24  2  0  0  0
 24 25  1  0  0  0
 25 26  2  0  0  0
 26 27  1  0  0  0
 27 28  2  0  0  0
 28 29  1  0  0  0
 29 30  2  0  0  0
 30 31  1  0  0  0
 30 25  1  0  0  0
 31 32  2  0  0  0
 32 23  1  0  0  0
 14 15  1  0  0  0
 14 16  1  0  0  0
  4  7  1  0  0  0
 19 22  1  0  0  0
M  END
>  <minimizedAffinity>
-9.89097

>  <minimizedRMSD>
2.17229

$$$$
CHEMBL5276857 PubChem-118906851


 31 34  0  0  0  0  0  0  0  0999 V2000
   17.3692  -10.2246   13.9804 C   0  0  0  0  0  0  0  0  0  0  0  0
   18.4963  -10.6107   14.9459 C   0  0  0  0  0  0  0  0  0  0  0  0
   18.0180  -10.8145   16.3930 C   0  0  0  0  0  0  0  0  0  0  0  0
   16.5292  -10.5230   16.5829 C   0  0  0  0  0  0  0  0  0  0  0  0
   16.1803   -9.2634   15.9255 N   0  0  0  0  0  0  0  0  0  0  0  0
   16.5513   -9.0492   14.5237 C   0  0  0  0  0  0  0  0  0  0  0  0
   15.5260   -8.2146   16.6566 C   0  0  0  0  0  0  0  0  0  0  0  0
   15.2110   -7.1408   16.0771 O   0  0  0  0  0  0  0  0  0  0  0  0
   19.3265   -9.6795   12.4975 C   0  0  0  0  0  0  0  0  0  0  0  0
   17.8958   -9.9266   12.6497 N   0  0  0  0  0  0  0  0  0  0  0  0
   16.9867   -9.8800   11.5296 C   0  0  0  0  0  0  0  0  0  0  0  0
   15.6997  -10.3209   11.6796 N   0  0  0  0  0  0  0  0  0  0  0  0
   14.8006  -10.2971   10.6481 C   0  0  0  0  0  0  0  0  0  0  0  0
   15.1679   -9.8259    9.4220 N   0  0  0  0  0  0  0  0  0  0  0  0
   16.4371   -9.3854    9.2537 C   0  0  0  0  0  0  0  0  0  0  0  0
   17.3495   -9.3984   10.2627 C   0  0  0  0  0  0  0  0  0  0  0  0
   18.5259   -8.8887    9.7575 C   0  0  0  0  0  0  0  0  0  0  0  0
   18.2297   -8.5915    8.4254 C   0  0  0  0  0  0  0  0  0  0  0  0
   16.9459   -8.8966    8.1153 N   0  0  0  0  0  0  0  0  0  0  0  0
   16.4907   -8.7843    7.2496 H   0  0  0  0  0  0  0  0  0  0  0  0
   15.2228   -8.3593   18.1148 C   0  0  0  0  0  0  0  0  0  0  0  0
   16.2252   -7.6634   18.9123 N   0  0  0  0  0  0  0  0  0  0  0  0
   17.1271   -7.5565   18.5323 H   0  0  0  0  0  0  0  0  0  0  0  0
   15.9754   -7.1267   20.2148 C   0  0  0  0  0  0  0  0  0  0  0  0
   17.0577   -6.7432   21.0136 C   0  0  0  0  0  0  0  0  0  0  0  0
   16.8396   -6.2171   22.2904 C   0  0  0  0  0  0  0  0  0  0  0  0
   15.5364   -6.0736   22.7748 C   0  0  0  0  0  0  0  0  0  0  0  0
   14.4509   -6.4572   21.9824 C   0  0  0  0  0  0  0  0  0  0  0  0
   14.6690   -6.9836   20.7062 C   0  0  0  0  0  0  0  0  0  0  0  0
   12.8187   -6.2783   22.5873 Cl  0  0  0  0  0  0  0  0  0  0  0  0
   18.1989   -5.7378   23.2827 Cl  0  0  0  0  0  0  0  0  0  0  0  0
  9 10  1  0  0  0
  1 10  1  0  0  0
  1  2  1  0  0  0
  2  3  1  0  0  0
  3  4  1  0  0  0
  4  5  1  0  0  0
  5  6  1  0  0  0
  5  7  1  0  0  0
  7  8  2  0  0  0
  7 21  1  0  0  0
 21 22  1  0  0  0
 22 24  1  0  0  0
 24 25  2  0  0  0
 25 26  1  0  0  0
 26 27  2  0  0  0
 27 28  1  0  0  0
 28 29  2  0  0  0
 28 30  1  0  0  0
 26 31  1  0  0  0
 10 11  1  0  0  0
 11 12  2  0  0  0
 12 13  1  0  0  0
 13 14  2  0  0  0
 14 15  1  0  0  0
 15 16  2  0  0  0
 16 17  1  0  0  0
 17 18  2  0  0  0
 18 19  1  0  0  0
  6  1  1  0  0  0
 29 24  1  0  0  0
 16 11  1  0  0  0
 19 15  1  0  0  0
 22 23  1  0  0  0
 19 20  1  0  0  0
M  END
>  <minimizedAffinity>
-5.97221

>  <minimizedRMSD>
2.17260

$$$$
CHEMBL2037397 PubChem-60166635


 30 33  0  0  0  0  0  0  0  0999 V2000
   16.8135  -10.7777   16.1698 S   0  0  0  0  0  0  0  0  0  0  0  0
   16.8886  -10.3479   14.4351 C   0  0  0  0  0  0  0  0  0  0  0  0
   15.8203   -9.9876   13.6995 N   0  0  0  0  0  0  0  0  0  0  0  0
   16.2760   -9.7585   12.4776 N   0  0  0  0  0  0  0  0  0  0  0  0
   17.6015   -9.9871   12.5222 C   0  0  0  0  0  0  0  0  0  0  0  0
   17.9867  -10.3531   13.7202 O   0  0  0  0  0  0  0  0  0  0  0  0
   18.5088   -9.8667   11.3466 C   0  0  0  0  0  0  0  0  0  0  0  0
   17.7342   -9.5875   10.1470 N   0  0  0  0  0  0  0  0  0  0  0  0
   16.5457  -10.1389    9.8024 C   0  0  0  0  0  0  0  0  0  0  0  0
   16.1072   -9.7042    8.5895 N   0  0  0  0  0  0  0  0  0  0  0  0
   17.0771   -8.8624    8.1863 C   0  0  0  0  0  0  0  0  0  0  0  0
   17.1354   -8.1375    6.9987 C   0  0  0  0  0  0  0  0  0  0  0  0
   18.2622   -7.3180    6.7954 C   0  0  0  0  0  0  0  0  0  0  0  0
   19.2852   -7.2468    7.7684 C   0  0  0  0  0  0  0  0  0  0  0  0
   19.1946   -7.9936    8.9577 C   0  0  0  0  0  0  0  0  0  0  0  0
   18.0633   -8.7918    9.1225 C   0  0  0  0  0  0  0  0  0  0  0  0
   17.3498   -9.1245   16.7081 C   0  0  0  0  0  0  0  0  0  0  0  0
   15.8564   -8.2141   18.5262 N   0  0  0  0  0  0  0  0  0  0  0  0
   16.1740   -8.3159   17.1320 C   0  0  0  0  0  0  0  0  0  0  0  0
   15.4669   -7.7492   16.2574 O   0  0  0  0  0  0  0  0  0  0  0  0
   16.4784   -8.6485   19.1536 H   0  0  0  0  0  0  0  0  0  0  0  0
   12.5330   -6.2582   20.3047 C   0  0  0  0  0  0  0  0  0  0  0  0
   13.5123   -6.8710   21.0925 C   0  0  0  0  0  0  0  0  0  0  0  0
   14.6015   -7.5113   20.4940 C   0  0  0  0  0  0  0  0  0  0  0  0
   14.7263   -7.5451   19.1010 C   0  0  0  0  0  0  0  0  0  0  0  0
   13.7453   -6.9297   18.3092 C   0  0  0  0  0  0  0  0  0  0  0  0
   12.6561   -6.2893   18.9061 C   0  0  0  0  0  0  0  0  0  0  0  0
   11.4575   -5.6219   20.9349 O   0  0  0  0  0  0  0  0  0  0  0  0
    9.7334   -6.4462   19.4566 C   0  0  0  0  0  0  0  0  0  0  0  0
   10.2510   -5.2707   20.2650 C   0  0  0  0  0  0  0  0  0  0  0  0
 29 30  1  0  0  0
 30 28  1  0  0  0
 28 22  1  0  0  0
 22 23  2  0  0  0
 23 24  1  0  0  0
 24 25  2  0  0  0
 25 18  1  0  0  0
 25 26  1  0  0  0
 18 19  1  0  0  0
 19 20  2  0  0  0
 19 17  1  0  0  0
 17  1  1  0  0  0
  1  2  1  0  0  0
  2  3  2  0  0  0
  3  4  1  0  0  0
  4  5  2  0  0  0
  5  7  1  0  0  0
  5  6  1  0  0  0
  7  8  1  0  0  0
  8  9  1  0  0  0
  9 10  2  0  0  0
 10 11  1  0  0  0
 11 12  2  0  0  0
 12 13  1  0  0  0
 13 14  2  0  0  0
 14 15  1  0  0  0
 15 16  2  0  0  0
 16  8  1  0  0  0
 16 11  1  0  0  0
  6  2  1  0  0  0
 26 27  2  0  0  0
 27 22  1  0  0  0
 18 21  1  0  0  0
M  END
>  <minimizedAffinity>
-8.51047

>  <minimizedRMSD>
2.17704

$$$$
CHEMBL1401438 891495 LN01139827 MCULE-4496725884 MolPort-001-986-953 PubChem-652343 ZINC000000891495 ZINC00891495


 34 37  0  0  0  0  0  0  0  0999 V2000
   16.0191   -9.1239   16.9090 C   0  0  0  0  0  0  0  0  0  0  0  0
   15.8344   -8.4344   19.3302 N   0  0  0  0  0  0  0  0  0  0  0  0
   15.5881   -8.1524   17.9466 C   0  0  0  0  0  0  0  0  0  0  0  0
   14.9833   -7.1030   17.5988 O   0  0  0  0  0  0  0  0  0  0  0  0
   16.0702   -9.3598   19.5694 H   0  0  0  0  0  0  0  0  0  0  0  0
   14.3996   -6.3471   22.0609 C   0  0  0  0  0  0  0  0  0  0  0  0
   15.5283   -5.6396   22.4981 C   0  0  0  0  0  0  0  0  0  0  0  0
   16.7713   -5.8613   21.9038 C   0  0  0  0  0  0  0  0  0  0  0  0
   16.9075   -6.7872   20.8576 C   0  0  0  0  0  0  0  0  0  0  0  0
   15.7645   -7.4749   20.3934 C   0  0  0  0  0  0  0  0  0  0  0  0
   14.5286   -7.2636   21.0158 C   0  0  0  0  0  0  0  0  0  0  0  0
   13.1435   -6.1583   22.6435 O   0  0  0  0  0  0  0  0  0  0  0  0
   12.9472   -3.8926   23.4078 C   0  0  0  0  0  0  0  0  0  0  0  0
   12.9466   -5.3546   23.7988 C   0  0  0  0  0  0  0  0  0  0  0  0
   18.1634   -7.0496   20.2931 O   0  0  0  0  0  0  0  0  0  0  0  0
   19.3017   -6.2178   20.4849 C   0  0  0  0  0  0  0  0  0  0  0  0
   19.9230   -6.4838   21.8411 C   0  0  0  0  0  0  0  0  0  0  0  0
   17.6161   -8.6093   16.2164 S   0  0  0  0  0  0  0  0  0  0  0  0
   17.1925   -9.2341   14.5932 C   0  0  0  0  0  0  0  0  0  0  0  0
   17.8132  -10.2753   14.0041 N   0  0  0  0  0  0  0  0  0  0  0  0
   17.2299  -10.4525   12.8246 N   0  0  0  0  0  0  0  0  0  0  0  0
   16.2654   -9.5173   12.7196 C   0  0  0  0  0  0  0  0  0  0  0  0
   16.2173   -8.7376   13.8133 N   0  0  0  0  0  0  0  0  0  0  0  0
   15.3197   -7.6260   14.0912 C   0  0  0  0  0  0  0  0  0  0  0  0
   15.3893   -9.3525   11.5205 C   0  0  0  0  0  0  0  0  0  0  0  0
   16.1353   -9.6615   10.3096 N   0  0  0  0  0  0  0  0  0  0  0  0
   15.9373  -10.7213    9.4904 C   0  0  0  0  0  0  0  0  0  0  0  0
   16.8357  -10.7581    8.4685 N   0  0  0  0  0  0  0  0  0  0  0  0
   17.6100   -9.6789    8.6893 C   0  0  0  0  0  0  0  0  0  0  0  0
   18.7057   -9.2504    7.9447 C   0  0  0  0  0  0  0  0  0  0  0  0
   19.3745   -8.0921    8.3859 C   0  0  0  0  0  0  0  0  0  0  0  0
   18.9398   -7.4056    9.5427 C   0  0  0  0  0  0  0  0  0  0  0  0
   17.8299   -7.8677   10.2728 C   0  0  0  0  0  0  0  0  0  0  0  0
   17.1924   -9.0153    9.8020 C   0  0  0  0  0  0  0  0  0  0  0  0
 13 14  1  0  0  0
 14 12  1  0  0  0
 12  6  1  0  0  0
  6  7  2  0  0  0
  7  8  1  0  0  0
  8  9  2  0  0  0
  9 15  1  0  0  0
  9 10  1  0  0  0
 15 16  1  0  0  0
 16 17  1  0  0  0
 10  2  1  0  0  0
 10 11  2  0  0  0
  2  3  1  0  0  0
  3  4  2  0  0  0
  3  1  1  0  0  0
  1 18  1  0  0  0
 18 19  1  0  0  0
 19 20  2  0  0  0
 20 21  1  0  0  0
 21 22  2  0  0  0
 22 25  1  0  0  0
 22 23  1  0  0  0
 25 26  1  0  0  0
 26 27  1  0  0  0
 27 28  2  0  0  0
 28 29  1  0  0  0
 29 30  2  0  0  0
 30 31  1  0  0  0
 31 32  2  0  0  0
 32 33  1  0  0  0
 33 34  2  0  0  0
 34 26  1  0  0  0
 34 29  1  0  0  0
 23 24  1  0  0  0
 23 19  1  0  0  0
 11  6  1  0  0  0
  2  5  1  0  0  0
M  END
>  <minimizedAffinity>
-1.77090

>  <minimizedRMSD>
2.17918

$$$$
CHEMBL538692 PubChem-45272236


 34 36  0  0  0  0  0  0  0  0999 V2000
   18.0539   -8.8295    9.9681 C   0  0  0  0  0  0  0  0  0  0  0  0
   18.6628   -9.9836   10.4907 O   0  0  0  0  0  0  0  0  0  0  0  0
   18.1871  -10.0958   11.8058 C   0  0  0  0  0  0  0  0  0  0  0  0
   16.7821   -9.5495   11.8466 C   0  0  0  0  0  0  0  0  0  0  0  0
   16.5521   -8.9098   13.0679 O   0  0  0  0  0  0  0  0  0  0  0  0
   16.7365   -8.5933   10.6788 C   0  0  0  0  0  0  0  0  0  0  0  0
   16.6694   -7.2604   11.0939 O   0  0  0  0  0  0  0  0  0  0  0  0
   17.2132   -8.2119   13.1970 H   0  0  0  0  0  0  0  0  0  0  0  0
   17.4351   -7.0571   11.6536 H   0  0  0  0  0  0  0  0  0  0  0  0
   18.0606   -8.7179    3.9093 N   0  0  0  0  0  0  0  0  0  0  0  0
   18.6347   -8.4196    5.1771 C   0  0  0  0  0  0  0  0  0  0  0  0
   19.8115   -7.7317    5.2660 N   0  0  0  0  0  0  0  0  0  0  0  0
   20.3733   -7.4348    6.4831 C   0  0  0  0  0  0  0  0  0  0  0  0
   21.5407   -6.7502    6.5361 F   0  0  0  0  0  0  0  0  0  0  0  0
   19.7619   -7.8257    7.6429 N   0  0  0  0  0  0  0  0  0  0  0  0
   18.5964   -8.5100    7.5439 C   0  0  0  0  0  0  0  0  0  0  0  0
   18.0236   -8.8113    6.3593 C   0  0  0  0  0  0  0  0  0  0  0  0
   16.8697   -9.4783    6.5495 N   0  0  0  0  0  0  0  0  0  0  0  0
   16.7795   -9.5613    7.9078 C   0  0  0  0  0  0  0  0  0  0  0  0
   17.8355   -8.9799    8.5355 N   0  0  0  0  0  0  0  0  0  0  0  0
   18.5130   -8.4293    3.0839 H   0  0  0  0  0  0  0  0  0  0  0  0
   17.2111   -9.2128    3.8578 H   0  0  0  0  0  0  0  0  0  0  0  0
   18.1856  -11.5517   12.2392 C   0  0  0  0  0  0  0  0  0  0  0  0
   19.6617  -11.9240   13.2384 S   0  0  0  0  0  0  0  0  0  0  0  0
   19.2570  -10.6804   14.5010 C   0  0  0  0  0  0  0  0  0  0  0  0
   18.1162  -11.1772   15.3715 C   0  0  0  0  0  0  0  0  0  0  0  0
   17.8698  -10.2138   16.5204 C   0  0  0  0  0  0  0  0  0  0  0  0
   17.2369  -10.9223   17.6185 N   0  0  0  0  0  0  0  0  0  0  0  0
   16.3419  -11.3004   17.3082 H   0  0  0  0  0  0  0  0  0  0  0  0
   17.0834  -10.2788   18.3948 H   0  0  0  0  0  0  0  0  0  0  0  0
   16.9975   -9.0818   16.0848 C   0  0  0  0  0  0  0  0  0  0  0  0
   17.5195   -8.0193   15.6583 O   0  0  0  0  0  0  0  0  0  0  0  0
   15.6135   -9.1950   16.1455 O   0  0  0  0  0  0  0  0  0  0  0  0
   15.2215   -9.9847   16.4626 H   0  0  0  0  0  0  0  0  0  0  0  0
 10 11  1  0  0  0
 11 12  2  0  0  0
 12 13  1  0  0  0
 13 14  1  0  0  0
 13 15  2  0  0  0
 15 16  1  0  0  0
 16 17  2  0  0  0
 17 18  1  0  0  0
 17 11  1  0  0  0
 18 19  2  0  0  0
 19 20  1  0  0  0
 20 16  1  0  0  0
  1 20  1  0  0  0
  1  2  1  0  0  0
  2  3  1  0  0  0
  3 23  1  0  0  0
  3  4  1  0  0  0
 23 24  1  0  0  0
 24 25  1  0  0  0
 25 26  1  0  0  0
 27 26  1  0  0  0
 27 28  1  0  0  0
 27 31  1  0  0  0
 31 32  2  0  0  0
 31 33  1  0  0  0
  4  5  1  0  0  0
  4  6  1  0  0  0
  6  7  1  0  0  0
  6  1  1  0  0  0
 10 21  1  0  0  0
 10 22  1  0  0  0
 28 29  1  0  0  0
 28 30  1  0  0  0
 33 34  1  0  0  0
  5  8  1  0  0  0
  7  9  1  0  0  0
M  END
>  <minimizedAffinity>
0.24669

>  <minimizedRMSD>
2.18308

$$$$
CHEMBL3473594 MCULE-8671829541 MolPort-019-801-532 PubChem-56702960 ZINC000067540195


 27 30  0  0  0  0  0  0  0  0999 V2000
   18.8806   -9.8011   12.4146 N   0  0  0  0  0  0  0  0  0  0  0  0
   18.6706  -11.2381   12.6288 C   0  0  0  0  0  0  0  0  0  0  0  0
   18.7964  -11.6590   14.1040 C   0  0  0  0  0  0  0  0  0  0  0  0
   18.7751  -10.4979   14.9981 N   0  0  0  0  0  0  0  0  0  0  0  0
   19.6038   -9.3309   14.6840 C   0  0  0  0  0  0  0  0  0  0  0  0
   20.0148   -9.3486   13.2155 C   0  0  0  0  0  0  0  0  0  0  0  0
   17.9246  -10.4787   16.1567 C   0  0  0  0  0  0  0  0  0  0  0  0
   17.8471  -11.5845   17.0146 C   0  0  0  0  0  0  0  0  0  0  0  0
   17.0334  -11.5376   18.1014 N   0  0  0  0  0  0  0  0  0  0  0  0
   16.2887  -10.4354   18.3761 C   0  0  0  0  0  0  0  0  0  0  0  0
   16.3581   -9.3261   17.5271 C   0  0  0  0  0  0  0  0  0  0  0  0
   17.1745   -9.3773   16.4396 N   0  0  0  0  0  0  0  0  0  0  0  0
   15.5635   -8.1188   17.7983 C   0  0  0  0  0  0  0  0  0  0  0  0
   15.4956   -7.5762   19.1139 N   0  0  0  0  0  0  0  0  0  0  0  0
   14.9352   -7.5542   16.8643 O   0  0  0  0  0  0  0  0  0  0  0  0
   15.9831   -8.0100   19.8510 H   0  0  0  0  0  0  0  0  0  0  0  0
   14.9612   -6.7674   19.2858 H   0  0  0  0  0  0  0  0  0  0  0  0
   19.2458   -9.6344   11.0176 C   0  0  0  0  0  0  0  0  0  0  0  0
   16.7449   -9.8189   10.7173 C   0  0  0  0  0  0  0  0  0  0  0  0
   15.5994   -9.8645    9.8724 C   0  0  0  0  0  0  0  0  0  0  0  0
   15.7408   -9.8001    8.4868 C   0  0  0  0  0  0  0  0  0  0  0  0
   17.0237   -9.6877    7.9363 C   0  0  0  0  0  0  0  0  0  0  0  0
   18.1554   -9.6415    8.7649 C   0  0  0  0  0  0  0  0  0  0  0  0
   18.0260   -9.7125   10.1589 C   0  0  0  0  0  0  0  0  0  0  0  0
   14.3918   -9.9684   10.4797 N   0  0  0  0  0  0  0  0  0  0  0  0
   14.8665   -9.9946   12.0643 S   0  0  0  0  0  0  0  0  0  0  0  0
   16.5169   -9.8831   12.0543 N   0  0  0  0  0  0  0  0  0  0  0  0
 19 20  1  0  0  0
 20 21  1  0  0  0
 21 22  2  0  0  0
 22 23  1  0  0  0
 23 24  2  0  0  0
 24 18  1  0  0  0
 18  1  1  0  0  0
  1  2  1  0  0  0
  2  3  1  0  0  0
  3  4  1  0  0  0
  4  5  1  0  0  0
  5  6  1  0  0  0
  4  7  1  0  0  0
  7  8  2  0  0  0
  8  9  1  0  0  0
  9 10  2  0  0  0
 10 11  1  0  0  0
 11 13  1  0  0  0
 13 14  1  0  0  0
 13 15  2  0  0  0
 11 12  2  0  0  0
 20 25  2  0  0  0
 25 26  1  0  0  0
 26 27  1  0  0  0
 24 19  1  0  0  0
  6  1  1  0  0  0
 12  7  1  0  0  0
 27 19  2  0  0  0
 14 16  1  0  0  0
 14 17  1  0  0  0
M  END
>  <minimizedAffinity>
2.95627

>  <minimizedRMSD>
2.18472

$$$$
CHEMBL1408992


 29 32  0  0  0  0  0  0  0  0999 V2000
   17.3192  -10.3840   14.2685 C   0  0  0  0  0  0  0  0  0  0  0  0
   16.5591  -10.2736   13.2070 O   0  0  0  0  0  0  0  0  0  0  0  0
   17.3965  -10.0777   12.2174 C   0  0  0  0  0  0  0  0  0  0  0  0
   18.6725  -10.0660   12.6498 N   0  0  0  0  0  0  0  0  0  0  0  0
   18.6228  -10.2621   13.9581 N   0  0  0  0  0  0  0  0  0  0  0  0
   16.9908   -9.8942   10.8193 C   0  0  0  0  0  0  0  0  0  0  0  0
   15.8907  -10.4604   10.2694 N   0  0  0  0  0  0  0  0  0  0  0  0
   15.8075  -10.0966    8.9920 N   0  0  0  0  0  0  0  0  0  0  0  0
   16.8580   -9.2984    8.7348 C   0  0  0  0  0  0  0  0  0  0  0  0
   17.6252   -9.1458    9.8544 C   0  0  0  0  0  0  0  0  0  0  0  0
   18.7792   -8.3652    9.8659 C   0  0  0  0  0  0  0  0  0  0  0  0
   19.1356   -7.7271    8.6631 C   0  0  0  0  0  0  0  0  0  0  0  0
   18.3428   -7.8840    7.5031 C   0  0  0  0  0  0  0  0  0  0  0  0
   17.1825   -8.6812    7.5297 C   0  0  0  0  0  0  0  0  0  0  0  0
   15.2545  -11.0469   10.7390 H   0  0  0  0  0  0  0  0  0  0  0  0
   16.7056  -10.6615   15.9255 S   0  0  0  0  0  0  0  0  0  0  0  0
   16.0772   -8.9607   16.0870 C   0  0  0  0  0  0  0  0  0  0  0  0
   16.4584   -8.3825   17.4062 C   0  0  0  0  0  0  0  0  0  0  0  0
   17.6784   -8.2486   17.6882 O   0  0  0  0  0  0  0  0  0  0  0  0
   15.4335   -7.9788   18.3243 N   0  0  0  0  0  0  0  0  0  0  0  0
   14.5035   -8.0751   18.0160 H   0  0  0  0  0  0  0  0  0  0  0  0
   15.6206   -7.4487   19.6465 C   0  0  0  0  0  0  0  0  0  0  0  0
   14.5213   -7.3557   20.5206 C   0  0  0  0  0  0  0  0  0  0  0  0
   14.6926   -6.8457   21.8117 C   0  0  0  0  0  0  0  0  0  0  0  0
   15.9537   -6.4271   22.2423 C   0  0  0  0  0  0  0  0  0  0  0  0
   17.0493   -6.5176   21.3819 C   0  0  0  0  0  0  0  0  0  0  0  0
   16.8832   -7.0261   20.0916 C   0  0  0  0  0  0  0  0  0  0  0  0
   18.3918   -6.0737   21.8383 C   0  0  0  0  0  0  0  0  0  0  0  0
   13.1613   -7.7941   20.0967 C   0  0  0  0  0  0  0  0  0  0  0  0
 16  1  1  0  0  0
  1  2  1  0  0  0
  2  3  1  0  0  0
  3  4  2  0  0  0
  4  5  1  0  0  0
  3  6  1  0  0  0
  6  7  1  0  0  0
  7  8  1  0  0  0
  8  9  2  0  0  0
  9 10  1  0  0  0
 10 11  1  0  0  0
 11 12  2  0  0  0
 12 13  1  0  0  0
 13 14  2  0  0  0
 16 17  1  0  0  0
 17 18  1  0  0  0
 18 19  2  0  0  0
 18 20  1  0  0  0
 20 22  1  0  0  0
 22 23  2  0  0  0
 23 24  1  0  0  0
 24 25  2  0  0  0
 25 26  1  0  0  0
 26 27  2  0  0  0
 26 28  1  0  0  0
 23 29  1  0  0  0
  5  1  2  0  0  0
 10  6  2  0  0  0
 27 22  1  0  0  0
 14  9  1  0  0  0
  7 15  1  0  0  0
 20 21  1  0  0  0
M  END
>  <minimizedAffinity>
-7.60502

>  <minimizedRMSD>
2.19117

$$$$
CHEMBL3485478 65529665 MCULE-1172898463 MolPort-016-629-111 PubChem-50984047 ZINC000065529665 ZINC65529665


 27 31  0  0  0  0  0  0  0  0999 V2000
   17.5497  -10.4682   12.7033 C   0  0  0  0  0  0  0  0  0  0  0  0
   17.8623  -11.6848   12.8120 O   0  0  0  0  0  0  0  0  0  0  0  0
   17.8701   -9.5574   13.7667 N   0  0  0  0  0  0  0  0  0  0  0  0
   18.8617   -9.9308   14.7769 C   0  0  0  0  0  0  0  0  0  0  0  0
   18.1731  -10.2172   16.1186 C   0  0  0  0  0  0  0  0  0  0  0  0
   17.0813   -9.2744   16.3569 N   0  0  0  0  0  0  0  0  0  0  0  0
   16.4474   -9.1348   17.5048 N   0  0  0  0  0  0  0  0  0  0  0  0
   15.4914   -8.2024   17.3073 C   0  0  0  0  0  0  0  0  0  0  0  0
   15.5024   -7.7348   15.9953 C   0  0  0  0  0  0  0  0  0  0  0  0
   16.5317   -8.4656   15.4369 C   0  0  0  0  0  0  0  0  0  0  0  0
   17.0288   -8.3901   14.0319 C   0  0  0  0  0  0  0  0  0  0  0  0
   14.4227  -10.5704   12.1174 C   0  0  0  0  0  0  0  0  0  0  0  0
   15.4861  -10.0836   11.1952 C   0  0  0  0  0  0  0  0  0  0  0  0
   16.8533  -10.0158   11.4806 C   0  0  0  0  0  0  0  0  0  0  0  0
   17.4307   -9.5333   10.3732 N   0  0  0  0  0  0  0  0  0  0  0  0
   18.6809   -9.3007    9.9120 C   0  0  0  0  0  0  0  0  0  0  0  0
   18.6638   -8.8472    8.5802 C   0  0  0  0  0  0  0  0  0  0  0  0
   17.0379   -8.7860    8.0321 S   0  0  0  0  0  0  0  0  0  0  0  0
   16.4649   -9.3207    9.5053 C   0  0  0  0  0  0  0  0  0  0  0  0
   15.2293   -9.6392    9.9338 N   0  0  0  0  0  0  0  0  0  0  0  0
   14.5675   -7.7565   18.3559 C   0  0  0  0  0  0  0  0  0  0  0  0
   13.4366   -7.2935   18.0445 O   0  0  0  0  0  0  0  0  0  0  0  0
   14.9544   -7.8502   19.7282 N   0  0  0  0  0  0  0  0  0  0  0  0
   15.8428   -8.2123   19.9493 H   0  0  0  0  0  0  0  0  0  0  0  0
   14.0781   -7.4278   20.8079 C   0  0  0  0  0  0  0  0  0  0  0  0
   14.8271   -6.4695   21.7097 C   0  0  0  0  0  0  0  0  0  0  0  0
   14.6422   -7.9123   22.1276 C   0  0  0  0  0  0  0  0  0  0  0  0
 12 13  1  0  0  0
 13 14  2  0  0  0
 14 15  1  0  0  0
 15 16  1  0  0  0
 16 17  2  0  0  0
 17 18  1  0  0  0
 18 19  1  0  0  0
 19 20  2  0  0  0
 14  1  1  0  0  0
  1  2  2  0  0  0
  1  3  1  0  0  0
  3  4  1  0  0  0
  4  5  1  0  0  0
  5  6  1  0  0  0
  6  7  1  0  0  0
  7  8  2  0  0  0
  8  9  1  0  0  0
  9 10  2  0  0  0
 10 11  1  0  0  0
  8 21  1  0  0  0
 21 22  2  0  0  0
 21 23  1  0  0  0
 23 25  1  0  0  0
 25 26  1  0  0  0
 26 27  1  0  0  0
 20 13  1  0  0  0
 11  3  1  0  0  0
 27 25  1  0  0  0
 19 15  1  0  0  0
 10  6  1  0  0  0
 23 24  1  0  0  0
M  END
>  <minimizedAffinity>
-4.96642

>  <minimizedRMSD>
2.19242

$$$$
CHEMBL1386341 419226 MCULE-5457849174 MolPort-000-017-445 PubChem-862923 ZINC000000419226 ZINC00419226


 26 28  0  0  0  0  0  0  0  0999 V2000
   17.2420   -9.0612   14.1294 N   0  0  0  0  0  0  0  0  0  0  0  0
   16.5459   -9.6056   13.0006 C   0  0  0  0  0  0  0  0  0  0  0  0
   15.3190   -9.8843   13.0606 O   0  0  0  0  0  0  0  0  0  0  0  0
   18.1981   -8.8623   14.0046 H   0  0  0  0  0  0  0  0  0  0  0  0
   15.6555   -8.2715   17.9900 C   0  0  0  0  0  0  0  0  0  0  0  0
   16.7409   -9.1369   17.8209 C   0  0  0  0  0  0  0  0  0  0  0  0
   17.2541   -9.3879   16.5451 C   0  0  0  0  0  0  0  0  0  0  0  0
   16.6890   -8.7766   15.4215 C   0  0  0  0  0  0  0  0  0  0  0  0
   15.6000   -7.9089   15.5890 C   0  0  0  0  0  0  0  0  0  0  0  0
   15.0869   -7.6579   16.8643 C   0  0  0  0  0  0  0  0  0  0  0  0
   13.7415   -7.0077   21.1246 C   0  0  0  0  0  0  0  0  0  0  0  0
   14.1309   -7.1144   19.6947 C   0  0  0  0  0  0  0  0  0  0  0  0
   13.5524   -6.3907   18.8419 O   0  0  0  0  0  0  0  0  0  0  0  0
   15.1575   -8.0394   19.3147 N   0  0  0  0  0  0  0  0  0  0  0  0
   15.5627   -8.5705   20.0379 H   0  0  0  0  0  0  0  0  0  0  0  0
   17.2946   -9.8763   11.7410 C   0  0  0  0  0  0  0  0  0  0  0  0
   16.3601  -10.4050   10.6605 C   0  0  0  0  0  0  0  0  0  0  0  0
   16.7501   -9.9082    9.3473 N   0  0  0  0  0  0  0  0  0  0  0  0
   16.1688  -10.2613    8.2057 N   0  0  0  0  0  0  0  0  0  0  0  0
   16.7484   -9.6561    7.1688 N   0  0  0  0  0  0  0  0  0  0  0  0
   17.7317   -8.9000    7.6913 C   0  0  0  0  0  0  0  0  0  0  0  0
   18.6381   -8.0734    7.0350 C   0  0  0  0  0  0  0  0  0  0  0  0
   19.5778   -7.3929    7.8350 C   0  0  0  0  0  0  0  0  0  0  0  0
   19.5840   -7.5573    9.2412 C   0  0  0  0  0  0  0  0  0  0  0  0
   18.6500   -8.4042    9.8697 C   0  0  0  0  0  0  0  0  0  0  0  0
   17.7380   -9.0556    9.0426 C   0  0  0  0  0  0  0  0  0  0  0  0
 11 12  1  0  0  0
 12 13  2  0  0  0
 12 14  1  0  0  0
 14  5  1  0  0  0
  5  6  2  0  0  0
  6  7  1  0  0  0
  7  8  2  0  0  0
  8  1  1  0  0  0
  8  9  1  0  0  0
  1  2  1  0  0  0
  2  3  2  0  0  0
  2 16  1  0  0  0
 16 17  1  0  0  0
 17 18  1  0  0  0
 18 19  1  0  0  0
 19 20  2  0  0  0
 20 21  1  0  0  0
 21 22  2  0  0  0
 22 23  1  0  0  0
 23 24  2  0  0  0
 24 25  1  0  0  0
 25 26  2  0  0  0
 26 18  1  0  0  0
 26 21  1  0  0  0
  9 10  2  0  0  0
 10  5  1  0  0  0
 14 15  1  0  0  0
  1  4  1  0  0  0
M  END
>  <minimizedAffinity>
-7.43009

>  <minimizedRMSD>
2.19558

$$$$
CHEMBL4461313 PubChem-155528304


 31 34  0  0  0  0  0  0  0  0999 V2000
   17.5745  -10.2498   12.7508 N   0  0  0  0  0  0  0  0  0  0  0  0
   16.6410  -10.4906   13.8540 C   0  0  0  0  0  0  0  0  0  0  0  0
   17.0223   -9.6693   15.0917 C   0  0  0  0  0  0  0  0  0  0  0  0
   18.5423   -9.5503   15.2994 C   0  0  0  0  0  0  0  0  0  0  0  0
   19.3258  -10.5665   14.4760 C   0  0  0  0  0  0  0  0  0  0  0  0
   19.0184  -10.3607   12.9947 C   0  0  0  0  0  0  0  0  0  0  0  0
   15.9445   -9.5234    8.9197 N   0  0  0  0  0  0  0  0  0  0  0  0
   15.2455  -10.2073    9.8706 C   0  0  0  0  0  0  0  0  0  0  0  0
   15.7923  -10.4332   11.1048 N   0  0  0  0  0  0  0  0  0  0  0  0
   17.0457   -9.9926   11.4335 C   0  0  0  0  0  0  0  0  0  0  0  0
   17.7510   -9.2886   10.4462 C   0  0  0  0  0  0  0  0  0  0  0  0
   17.1852   -9.0767    9.2274 C   0  0  0  0  0  0  0  0  0  0  0  0
   17.9876   -8.3841    8.4089 N   0  0  0  0  0  0  0  0  0  0  0  0
   19.1005   -8.1520    9.1473 C   0  0  0  0  0  0  0  0  0  0  0  0
   18.9958   -8.6980   10.4284 C   0  0  0  0  0  0  0  0  0  0  0  0
   17.8095   -8.1064    7.4813 H   0  0  0  0  0  0  0  0  0  0  0  0
   16.3896   -8.2878   15.0017 C   0  0  0  0  0  0  0  0  0  0  0  0
   15.4040   -8.0569   16.1360 C   0  0  0  0  0  0  0  0  0  0  0  0
   16.0620   -8.3242   17.4796 C   0  0  0  0  0  0  0  0  0  0  0  0
   15.0496   -8.4747   18.5150 N   0  0  0  0  0  0  0  0  0  0  0  0
   14.3044   -7.3738   19.0396 C   0  0  0  0  0  0  0  0  0  0  0  0
   14.5354   -6.2028   18.6326 O   0  0  0  0  0  0  0  0  0  0  0  0
   13.3025   -7.6242   20.0333 N   0  0  0  0  0  0  0  0  0  0  0  0
   14.8703   -9.3754   18.8697 H   0  0  0  0  0  0  0  0  0  0  0  0
   13.1805   -8.5612   20.3096 H   0  0  0  0  0  0  0  0  0  0  0  0
   12.4591   -6.6529   20.6675 C   0  0  0  0  0  0  0  0  0  0  0  0
   11.4271   -5.9990   19.9762 C   0  0  0  0  0  0  0  0  0  0  0  0
   10.6246   -5.0583   20.6281 C   0  0  0  0  0  0  0  0  0  0  0  0
   10.8480   -4.7646   21.9759 C   0  0  0  0  0  0  0  0  0  0  0  0
   11.8734   -5.4118   22.6707 C   0  0  0  0  0  0  0  0  0  0  0  0
   12.6752   -6.3526   22.0172 C   0  0  0  0  0  0  0  0  0  0  0  0
  7  8  2  0  0  0
  8  9  1  0  0  0
  9 10  2  0  0  0
 10 11  1  0  0  0
 11 12  2  0  0  0
 12 13  1  0  0  0
 13 14  1  0  0  0
 14 15  2  0  0  0
 10  1  1  0  0  0
  1  2  1  0  0  0
  2  3  1  0  0  0
  3  4  1  0  0  0
  4  5  1  0  0  0
  5  6  1  0  0  0
  3 17  1  0  0  0
 17 18  1  0  0  0
 18 19  1  0  0  0
 19 20  1  0  0  0
 20 21  1  0  0  0
 21 22  2  0  0  0
 21 23  1  0  0  0
 23 26  1  0  0  0
 26 27  2  0  0  0
 27 28  1  0  0  0
 28 29  2  0  0  0
 29 30  1  0  0  0
 30 31  2  0  0  0
 12  7  1  0  0  0
  6  1  1  0  0  0
 31 26  1  0  0  0
 15 11  1  0  0  0
 13 16  1  0  0  0
 20 24  1  0  0  0
 23 25  1  0  0  0
M  END
>  <minimizedAffinity>
-7.55150

>  <minimizedRMSD>
2.19643

$$$$
CHEMBL108384


 36 38  0  0  0  0  0  0  0  0999 V2000
   18.4247  -11.6455   14.3182 C   0  0  0  0  0  0  0  0  0  0  0  0
   19.0611  -10.4248   13.8583 N   0  0  0  0  0  0  0  0  0  0  0  0
   19.0960   -9.7402   14.6136 H   0  0  0  0  0  0  0  0  0  0  0  0
   18.2532   -9.9219   12.7643 C   0  0  0  0  0  0  0  0  0  0  0  0
   18.7240  -10.5414   11.4636 C   0  0  0  0  0  0  0  0  0  0  0  0
   18.2508   -8.6081    8.2165 C   0  0  0  0  0  0  0  0  0  0  0  0
   18.1523   -9.5892    9.1951 C   0  0  0  0  0  0  0  0  0  0  0  0
   17.1230  -10.8048    8.6523 S   0  0  0  0  0  0  0  0  0  0  0  0
   16.8560  -10.0088    7.1855 C   0  0  0  0  0  0  0  0  0  0  0  0
   17.5292   -8.8389    7.0887 N   0  0  0  0  0  0  0  0  0  0  0  0
   16.0392  -10.4955    6.1739 O   0  0  0  0  0  0  0  0  0  0  0  0
   18.8436   -9.4949   10.4067 C   0  0  0  0  0  0  0  0  0  0  0  0
   19.6483   -8.3649   10.6208 C   0  0  0  0  0  0  0  0  0  0  0  0
   19.7574   -7.3682    9.6328 C   0  0  0  0  0  0  0  0  0  0  0  0
   19.0573   -7.4860    8.4221 C   0  0  0  0  0  0  0  0  0  0  0  0
   19.1726   -6.5018    7.4479 O   0  0  0  0  0  0  0  0  0  0  0  0
   15.5918  -11.3113    6.2847 H   0  0  0  0  0  0  0  0  0  0  0  0
   19.7171   -5.7544    7.5991 H   0  0  0  0  0  0  0  0  0  0  0  0
   17.9815  -11.4863   15.7625 C   0  0  0  0  0  0  0  0  0  0  0  0
   18.2287  -10.0702   16.2606 C   0  0  0  0  0  0  0  0  0  0  0  0
   16.7833   -9.0403   16.0519 S   0  0  0  0  0  0  0  0  0  0  0  0
   16.2134   -8.7397   17.4084 O   0  0  0  0  0  0  0  0  0  0  0  0
   17.1688   -7.7462   15.3888 O   0  0  0  0  0  0  0  0  0  0  0  0
   15.5812   -9.8657   15.1132 N   0  0  0  0  0  0  0  0  0  0  0  0
   15.9260  -10.7869   14.8435 H   0  0  0  0  0  0  0  0  0  0  0  0
   14.3873  -10.0065   15.9292 C   0  0  0  0  0  0  0  0  0  0  0  0
   13.8555  -11.4184   15.8107 C   0  0  0  0  0  0  0  0  0  0  0  0
   12.7345  -11.4220   14.9824 O   0  0  0  0  0  0  0  0  0  0  0  0
   13.1337  -12.1363   13.8518 C   0  0  0  0  0  0  0  0  0  0  0  0
   12.4015  -11.6159   12.6254 C   0  0  0  0  0  0  0  0  0  0  0  0
   13.2824  -10.7398   11.7968 C   0  0  0  0  0  0  0  0  0  0  0  0
   14.5337  -10.3314   12.2779 C   0  0  0  0  0  0  0  0  0  0  0  0
   15.3640   -9.5349   11.4833 C   0  0  0  0  0  0  0  0  0  0  0  0
   14.9470   -9.1483   10.2064 C   0  0  0  0  0  0  0  0  0  0  0  0
   13.7007   -9.5577    9.7223 C   0  0  0  0  0  0  0  0  0  0  0  0
   12.8704  -10.3554   10.5158 C   0  0  0  0  0  0  0  0  0  0  0  0
  6  7  2  0  0  0
  7  8  1  0  0  0
  8  9  1  0  0  0
  9 10  2  0  0  0
  9 11  1  0  0  0
  7 12  1  0  0  0
 12 13  2  0  0  0
 13 14  1  0  0  0
 14 15  2  0  0  0
 15 16  1  0  0  0
 12  5  1  0  0  0
  5  4  1  0  0  0
  4  2  1  0  0  0
  2  1  1  0  0  0
  1 19  1  0  0  0
 19 20  1  0  0  0
 20 21  1  0  0  0
 21 22  2  0  0  0
 21 23  2  0  0  0
 21 24  1  0  0  0
 24 26  1  0  0  0
 26 27  1  0  0  0
 27 28  1  0  0  0
 28 29  1  0  0  0
 29 30  1  0  0  0
 30 31  1  0  0  0
 31 32  2  0  0  0
 32 33  1  0  0  0
 33 34  2  0  0  0
 34 35  1  0  0  0
 35 36  2  0  0  0
 10  6  1  0  0  0
 36 31  1  0  0  0
 15  6  1  0  0  0
 11 17  1  0  0  0
 16 18  1  0  0  0
  2  3  1  0  0  0
 24 25  1  0  0  0
M  END
>  <minimizedAffinity>
10.92418

>  <minimizedRMSD>
2.19860

$$$$
CHEMBL2235546 PubChem-25108336


 29 32  0  0  0  0  0  0  0  0999 V2000
   17.0035   -9.3009   13.9089 C   0  0  0  0  0  0  0  0  0  0  0  0
   15.7726   -8.9166   13.5236 N   0  0  0  0  0  0  0  0  0  0  0  0
   15.5431   -9.5211   12.3682 N   0  0  0  0  0  0  0  0  0  0  0  0
   16.6421  -10.2510   12.1022 C   0  0  0  0  0  0  0  0  0  0  0  0
   17.5460  -10.1197   13.0418 O   0  0  0  0  0  0  0  0  0  0  0  0
   17.7967   -8.7569   15.4137 S   0  0  0  0  0  0  0  0  0  0  0  0
   16.2540   -8.0324   16.0473 C   0  0  0  0  0  0  0  0  0  0  0  0
   15.7573   -8.8095   17.2546 C   0  0  0  0  0  0  0  0  0  0  0  0
   14.3214   -6.9957   17.8020 O   0  0  0  0  0  0  0  0  0  0  0  0
   15.0885   -7.8998   18.2273 C   0  0  0  0  0  0  0  0  0  0  0  0
   15.3104   -8.0883   19.6309 N   0  0  0  0  0  0  0  0  0  0  0  0
   15.9295   -8.8097   19.8866 H   0  0  0  0  0  0  0  0  0  0  0  0
   14.7242   -7.3351   20.7011 C   0  0  0  0  0  0  0  0  0  0  0  0
   15.5688   -6.6805   21.6047 C   0  0  0  0  0  0  0  0  0  0  0  0
   15.0346   -5.9382   22.6624 C   0  0  0  0  0  0  0  0  0  0  0  0
   13.6493   -5.8469   22.8224 C   0  0  0  0  0  0  0  0  0  0  0  0
   13.1317   -5.1279   23.8469 F   0  0  0  0  0  0  0  0  0  0  0  0
   12.7985   -6.4978   21.9252 C   0  0  0  0  0  0  0  0  0  0  0  0
   13.3338   -7.2395   20.8683 C   0  0  0  0  0  0  0  0  0  0  0  0
   16.8235  -11.0699   10.8716 C   0  0  0  0  0  0  0  0  0  0  0  0
   16.8745  -10.2030    9.7045 N   0  0  0  0  0  0  0  0  0  0  0  0
   15.9329  -10.1337    8.7693 N   0  0  0  0  0  0  0  0  0  0  0  0
   16.2314   -9.2034    7.8621 N   0  0  0  0  0  0  0  0  0  0  0  0
   17.4019   -8.6700    8.2588 C   0  0  0  0  0  0  0  0  0  0  0  0
   18.1391   -7.6480    7.6692 C   0  0  0  0  0  0  0  0  0  0  0  0
   19.3339   -7.2681    8.3131 C   0  0  0  0  0  0  0  0  0  0  0  0
   19.7463   -7.9074    9.5072 C   0  0  0  0  0  0  0  0  0  0  0  0
   18.9716   -8.9376   10.0755 C   0  0  0  0  0  0  0  0  0  0  0  0
   17.8017   -9.2846    9.4044 C   0  0  0  0  0  0  0  0  0  0  0  0
  9 10  2  0  0  0
 10  8  1  0  0  0
 10 11  1  0  0  0
  8  7  1  0  0  0
  7  6  1  0  0  0
  6  1  1  0  0  0
  1  2  2  0  0  0
  2  3  1  0  0  0
  3  4  2  0  0  0
  4 20  1  0  0  0
  4  5  1  0  0  0
 20 21  1  0  0  0
 21 22  1  0  0  0
 22 23  2  0  0  0
 23 24  1  0  0  0
 24 25  2  0  0  0
 25 26  1  0  0  0
 26 27  2  0  0  0
 27 28  1  0  0  0
 28 29  2  0  0  0
 29 21  1  0  0  0
 29 24  1  0  0  0
  5  1  1  0  0  0
 11 13  1  0  0  0
 13 14  2  0  0  0
 14 15  1  0  0  0
 15 16  2  0  0  0
 16 17  1  0  0  0
 16 18  1  0  0  0
 18 19  2  0  0  0
 19 13  1  0  0  0
 11 12  1  0  0  0
M  END
>  <minimizedAffinity>
-7.90050

>  <minimizedRMSD>
2.19988

$$$$
CHEMBL1390553 3410614 CSC025875255 MCULE-2058685327 MolPort-004-078-019 PubChem-2529551 Z16165076 ZINC000003410614


 30 32  0  0  0  0  0  0  0  0999 V2000
   18.3368   -9.0225   15.7437 C   0  0  0  0  0  0  0  0  0  0  0  0
   16.9251   -9.0906   15.3719 N   0  0  0  0  0  0  0  0  0  0  0  0
   16.5335   -9.8405   14.2101 C   0  0  0  0  0  0  0  0  0  0  0  0
   15.3170   -9.9281   13.8922 O   0  0  0  0  0  0  0  0  0  0  0  0
   17.5506  -10.5108   13.3401 C   0  0  0  0  0  0  0  0  0  0  0  0
   17.9468   -9.6433   12.2843 O   0  0  0  0  0  0  0  0  0  0  0  0
   17.3446   -9.6664   11.0228 C   0  0  0  0  0  0  0  0  0  0  0  0
   17.9291   -8.9964    9.9507 C   0  0  0  0  0  0  0  0  0  0  0  0
   17.3068   -9.0429    8.7265 C   0  0  0  0  0  0  0  0  0  0  0  0
   18.1886   -8.1695    7.6088 S   0  0  0  0  0  0  0  0  0  0  0  0
   19.4067   -7.7082    8.6974 C   0  0  0  0  0  0  0  0  0  0  0  0
   19.1119   -8.2500    9.9547 C   0  0  0  0  0  0  0  0  0  0  0  0
   16.1493   -9.7152    8.5230 N   0  0  0  0  0  0  0  0  0  0  0  0
   15.5830  -10.3702    9.5763 C   0  0  0  0  0  0  0  0  0  0  0  0
   16.1767  -10.3436   10.8079 N   0  0  0  0  0  0  0  0  0  0  0  0
   15.8856   -8.4142   16.1583 C   0  0  0  0  0  0  0  0  0  0  0  0
   16.1811   -8.3706   17.6232 C   0  0  0  0  0  0  0  0  0  0  0  0
   15.5638   -7.3616   18.4327 N   0  0  0  0  0  0  0  0  0  0  0  0
   16.9420   -9.2392   18.1259 O   0  0  0  0  0  0  0  0  0  0  0  0
   14.9724   -6.7267   17.9673 H   0  0  0  0  0  0  0  0  0  0  0  0
   15.7144   -7.1759   19.8500 C   0  0  0  0  0  0  0  0  0  0  0  0
   14.5986   -7.3445   20.7009 C   0  0  0  0  0  0  0  0  0  0  0  0
   14.7547   -7.1600   22.0839 C   0  0  0  0  0  0  0  0  0  0  0  0
   15.9950   -6.8137   22.6220 C   0  0  0  0  0  0  0  0  0  0  0  0
   17.0959   -6.6472   21.7825 C   0  0  0  0  0  0  0  0  0  0  0  0
   16.9555   -6.8273   20.4056 C   0  0  0  0  0  0  0  0  0  0  0  0
   13.2472   -7.7200   20.1468 C   0  0  0  0  0  0  0  0  0  0  0  0
   12.5435   -8.4471   21.0899 F   0  0  0  0  0  0  0  0  0  0  0  0
   12.5109   -6.5936   19.8187 F   0  0  0  0  0  0  0  0  0  0  0  0
   13.4087   -8.4882   19.0080 F   0  0  0  0  0  0  0  0  0  0  0  0
  1  2  1  0  0  0
  2  3  1  0  0  0
  3  5  1  0  0  0
  5  6  1  0  0  0
  6  7  1  0  0  0
  7  8  1  0  0  0
  8  9  2  0  0  0
  9 10  1  0  0  0
 10 11  1  0  0  0
 11 12  2  0  0  0
  9 13  1  0  0  0
 13 14  2  0  0  0
 14 15  1  0  0  0
  3  4  2  0  0  0
  2 16  1  0  0  0
 16 17  1  0  0  0
 17 18  1  0  0  0
 18 21  1  0  0  0
 21 22  2  0  0  0
 22 27  1  0  0  0
 27 28  1  0  0  0
 27 29  1  0  0  0
 27 30  1  0  0  0
 22 23  1  0  0  0
 23 24  2  0  0  0
 24 25  1  0  0  0
 25 26  2  0  0  0
 17 19  2  0  0  0
 15  7  2  0  0  0
 26 21  1  0  0  0
 12  8  1  0  0  0
 18 20  1  0  0  0
M  END
>  <minimizedAffinity>
-6.62880

>  <minimizedRMSD>
2.20015

$$$$
CHEMBL408212 PubChem-24799617


 33 36  0  0  0  0  0  0  0  0999 V2000
   17.2259   -9.7884   15.2730 C   0  0  0  0  0  0  0  0  0  0  0  0
   17.7212  -11.0059   15.7579 C   0  0  0  0  0  0  0  0  0  0  0  0
   18.6977  -11.7045   15.0440 C   0  0  0  0  0  0  0  0  0  0  0  0
   19.1960  -11.1818   13.8482 C   0  0  0  0  0  0  0  0  0  0  0  0
   18.7239   -9.9521   13.3626 C   0  0  0  0  0  0  0  0  0  0  0  0
   17.7472   -9.2584   14.0835 C   0  0  0  0  0  0  0  0  0  0  0  0
   16.2147   -9.0168   16.0794 C   0  0  0  0  0  0  0  0  0  0  0  0
   15.4757   -7.9315   15.3231 C   0  0  0  0  0  0  0  0  0  0  0  0
   14.7101   -9.1572   15.8080 C   0  0  0  0  0  0  0  0  0  0  0  0
   14.3584  -10.0396   14.6459 C   0  0  0  0  0  0  0  0  0  0  0  0
   13.6757  -11.0819   14.8317 O   0  0  0  0  0  0  0  0  0  0  0  0
   14.7340   -9.6613   13.3218 N   0  0  0  0  0  0  0  0  0  0  0  0
   14.4041  -10.4319   12.2594 O   0  0  0  0  0  0  0  0  0  0  0  0
   15.2398   -8.8287   13.1796 H   0  0  0  0  0  0  0  0  0  0  0  0
   13.9116  -11.2098   12.5647 H   0  0  0  0  0  0  0  0  0  0  0  0
   15.8982   -7.6464   19.6918 C   0  0  0  0  0  0  0  0  0  0  0  0
   15.6015   -8.0262   18.3211 N   0  0  0  0  0  0  0  0  0  0  0  0
   16.5817   -8.6279   17.4742 C   0  0  0  0  0  0  0  0  0  0  0  0
   17.7415   -8.8658   17.9080 O   0  0  0  0  0  0  0  0  0  0  0  0
   14.6979   -7.8640   17.9655 H   0  0  0  0  0  0  0  0  0  0  0  0
   19.2081   -9.3982   12.1751 O   0  0  0  0  0  0  0  0  0  0  0  0
   19.3167  -10.1429   10.9690 C   0  0  0  0  0  0  0  0  0  0  0  0
   18.2283   -9.7382   10.0301 C   0  0  0  0  0  0  0  0  0  0  0  0
   16.9375  -10.2247   10.2505 C   0  0  0  0  0  0  0  0  0  0  0  0
   15.8976   -9.8414    9.4012 C   0  0  0  0  0  0  0  0  0  0  0  0
   14.5248  -10.3611    9.6314 C   0  0  0  0  0  0  0  0  0  0  0  0
   16.1364   -8.9922    8.3667 N   0  0  0  0  0  0  0  0  0  0  0  0
   17.3776   -8.4926    8.1265 C   0  0  0  0  0  0  0  0  0  0  0  0
   17.5816   -7.6183    7.0552 C   0  0  0  0  0  0  0  0  0  0  0  0
   18.8557   -7.0998    6.8070 C   0  0  0  0  0  0  0  0  0  0  0  0
   19.9301   -7.4533    7.6284 C   0  0  0  0  0  0  0  0  0  0  0  0
   19.7352   -8.3274    8.7016 C   0  0  0  0  0  0  0  0  0  0  0  0
   18.4611   -8.8546    8.9609 C   0  0  0  0  0  0  0  0  0  0  0  0
 16 17  1  0  0  0
 17 18  1  0  0  0
 18 19  2  0  0  0
  7 18  1  0  0  0
  7  1  1  0  0  0
  7  8  1  0  0  0
  1  2  2  0  0  0
  2  3  1  0  0  0
  3  4  2  0  0  0
  4  5  1  0  0  0
  5 21  1  0  0  0
  5  6  2  0  0  0
 21 22  1  0  0  0
 22 23  1  0  0  0
 23 24  2  0  0  0
 24 25  1  0  0  0
 25 26  1  0  0  0
 25 27  2  0  0  0
 27 28  1  0  0  0
 28 29  2  0  0  0
 29 30  1  0  0  0
 30 31  2  0  0  0
 31 32  1  0  0  0
 32 33  2  0  0  0
 33 23  1  0  0  0
 33 28  1  0  0  0
  6  1  1  0  0  0
  8  9  1  0  0  0
  9 10  1  0  0  0
  9  7  1  0  0  0
 10 11  2  0  0  0
 10 12  1  0  0  0
 12 13  1  0  0  0
 17 20  1  0  0  0
 12 14  1  0  0  0
 13 15  1  0  0  0
M  END
>  <minimizedAffinity>
3.10646

>  <minimizedRMSD>
2.20142

$$$$
CHEMBL2164427 PubChem-59744412 PubChem-68633888


 30 32  0  0  0  0  0  0  0  0999 V2000
   17.9311   -9.1298   14.8910 C   0  0  0  0  0  0  0  0  0  0  0  0
   16.6586   -8.6694   14.5421 C   0  0  0  0  0  0  0  0  0  0  0  0
   16.1765   -8.8602   13.2447 C   0  0  0  0  0  0  0  0  0  0  0  0
   16.9565   -9.5157   12.2762 C   0  0  0  0  0  0  0  0  0  0  0  0
   18.2318   -9.9757   12.6430 C   0  0  0  0  0  0  0  0  0  0  0  0
   18.7160   -9.7858   13.9396 C   0  0  0  0  0  0  0  0  0  0  0  0
   16.4255   -9.7116   10.8983 C   0  0  0  0  0  0  0  0  0  0  0  0
   15.2131  -10.4076   10.7006 C   0  0  0  0  0  0  0  0  0  0  0  0
   14.6983  -10.5989    9.4030 C   0  0  0  0  0  0  0  0  0  0  0  0
   15.3640  -10.1142    8.3153 N   0  0  0  0  0  0  0  0  0  0  0  0
   16.5297   -9.4472    8.4971 C   0  0  0  0  0  0  0  0  0  0  0  0
   17.0666   -9.2374    9.7387 C   0  0  0  0  0  0  0  0  0  0  0  0
   18.2360   -8.5255    9.5634 C   0  0  0  0  0  0  0  0  0  0  0  0
   18.3251   -8.3679    8.1795 C   0  0  0  0  0  0  0  0  0  0  0  0
   17.2769   -8.9163    7.5194 N   0  0  0  0  0  0  0  0  0  0  0  0
   17.1046   -8.9233    6.5501 H   0  0  0  0  0  0  0  0  0  0  0  0
   19.4063   -7.5970    7.4910 C   0  0  0  0  0  0  0  0  0  0  0  0
   20.5288   -7.5310    8.2967 F   0  0  0  0  0  0  0  0  0  0  0  0
   18.9594   -6.3164    7.2267 F   0  0  0  0  0  0  0  0  0  0  0  0
   19.7442   -8.2153    6.3008 F   0  0  0  0  0  0  0  0  0  0  0  0
   17.6052   -8.0234   17.3017 O   0  0  0  0  0  0  0  0  0  0  0  0
   18.5369   -8.9121   16.5245 S   0  0  0  0  0  0  0  0  0  0  0  0
   19.8890   -8.2596   16.4662 O   0  0  0  0  0  0  0  0  0  0  0  0
   18.6731  -10.4466   17.3176 N   0  0  0  0  0  0  0  0  0  0  0  0
   18.5428  -10.3298   18.3225 H   0  0  0  0  0  0  0  0  0  0  0  0
   17.6399  -11.3214   16.7839 C   0  0  0  0  0  0  0  0  0  0  0  0
   18.2598  -12.2934   15.8006 C   0  0  0  0  0  0  0  0  0  0  0  0
   16.9909  -12.0987   17.9129 C   0  0  0  0  0  0  0  0  0  0  0  0
   17.6787  -11.8690   19.1046 O   0  0  0  0  0  0  0  0  0  0  0  0
   18.5992  -12.1594   19.0078 H   0  0  0  0  0  0  0  0  0  0  0  0
 21 22  2  0  0  0
 22 23  2  0  0  0
 22  1  1  0  0  0
  1  2  2  0  0  0
  2  3  1  0  0  0
  3  4  2  0  0  0
  4  5  1  0  0  0
  5  6  2  0  0  0
  4  7  1  0  0  0
  7  8  2  0  0  0
  8  9  1  0  0  0
  9 10  2  0  0  0
 10 11  1  0  0  0
 11 12  2  0  0  0
 12 13  1  0  0  0
 13 14  2  0  0  0
 14 15  1  0  0  0
 14 17  1  0  0  0
 17 18  1  0  0  0
 17 19  1  0  0  0
 17 20  1  0  0  0
 22 24  1  0  0  0
 24 26  1  0  0  0
 26 28  1  0  0  0
 28 29  1  0  0  0
 26 27  1  0  0  0
  6  1  1  0  0  0
 12  7  1  0  0  0
 15 11  1  0  0  0
 15 16  1  0  0  0
 24 25  1  0  0  0
 29 30  1  0  0  0
M  END
>  <minimizedAffinity>
-2.26030

>  <minimizedRMSD>
2.20203

$$$$
CHEMBL2357795 MolPort-004-993-136 PubChem-45165869


 35 39  0  0  0  0  0  0  0  0999 V2000
   19.2006  -10.5595   12.5340 N   0  0  0  0  0  0  0  0  0  0  0  0
   19.0389  -12.0168   12.3718 C   0  0  0  0  0  0  0  0  0  0  0  0
   19.6755  -12.8491   13.4835 C   0  0  0  0  0  0  0  0  0  0  0  0
   18.7814  -12.9334   14.5879 O   0  0  0  0  0  0  0  0  0  0  0  0
   18.2576  -11.8246   15.2686 C   0  0  0  0  0  0  0  0  0  0  0  0
   17.3172  -12.0597   16.2747 C   0  0  0  0  0  0  0  0  0  0  0  0
   16.7432  -10.9996   16.9770 C   0  0  0  0  0  0  0  0  0  0  0  0
   17.0914   -9.6736   16.6783 C   0  0  0  0  0  0  0  0  0  0  0  0
   18.0429   -9.4389   15.6737 C   0  0  0  0  0  0  0  0  0  0  0  0
   18.6167  -10.4910   14.9601 C   0  0  0  0  0  0  0  0  0  0  0  0
   19.6137  -10.1424   13.8882 C   0  0  0  0  0  0  0  0  0  0  0  0
   16.5185   -8.5431   17.5086 C   0  0  0  0  0  0  0  0  0  0  0  0
   17.6518   -7.6398   17.9589 C   0  0  0  0  0  0  0  0  0  0  0  0
   15.8811   -9.0584   18.6418 O   0  0  0  0  0  0  0  0  0  0  0  0
   16.5055   -9.6060   19.1430 H   0  0  0  0  0  0  0  0  0  0  0  0
   15.5273   -7.6834   16.7278 C   0  0  0  0  0  0  0  0  0  0  0  0
   15.9873   -7.4431   15.3997 O   0  0  0  0  0  0  0  0  0  0  0  0
   15.5191   -8.1773   14.3071 C   0  0  0  0  0  0  0  0  0  0  0  0
   15.4688   -7.6200   13.0175 C   0  0  0  0  0  0  0  0  0  0  0  0
   15.0086   -8.3794   11.9378 C   0  0  0  0  0  0  0  0  0  0  0  0
   14.5970   -9.7009   12.1402 C   0  0  0  0  0  0  0  0  0  0  0  0
   14.6466  -10.2617   13.4212 C   0  0  0  0  0  0  0  0  0  0  0  0
   15.1085   -9.5017   14.5016 C   0  0  0  0  0  0  0  0  0  0  0  0
   17.9366   -9.9090   12.1933 C   0  0  0  0  0  0  0  0  0  0  0  0
   16.0776  -11.4213   10.4385 C   0  0  0  0  0  0  0  0  0  0  0  0
   16.9834  -10.3710    9.8913 C   0  0  0  0  0  0  0  0  0  0  0  0
   17.8528   -9.6385   10.7235 C   0  0  0  0  0  0  0  0  0  0  0  0
   18.6528   -8.6833   10.1761 N   0  0  0  0  0  0  0  0  0  0  0  0
   18.6254   -8.4230    8.8438 C   0  0  0  0  0  0  0  0  0  0  0  0
   19.4462   -7.4331    8.2933 C   0  0  0  0  0  0  0  0  0  0  0  0
   19.4116   -7.1857    6.9160 C   0  0  0  0  0  0  0  0  0  0  0  0
   18.5595   -7.9288    6.0894 C   0  0  0  0  0  0  0  0  0  0  0  0
   17.7358   -8.9188    6.6363 C   0  0  0  0  0  0  0  0  0  0  0  0
   17.7631   -9.1640    8.0109 C   0  0  0  0  0  0  0  0  0  0  0  0
   16.9654  -10.1176    8.5557 N   0  0  0  0  0  0  0  0  0  0  0  0
 25 26  1  0  0  0
 26 27  2  0  0  0
 27 24  1  0  0  0
 27 28  1  0  0  0
 24  1  1  0  0  0
  1  2  1  0  0  0
  2  3  1  0  0  0
  3  4  1  0  0  0
  4  5  1  0  0  0
  5  6  2  0  0  0
  6  7  1  0  0  0
  7  8  2  0  0  0
  8  9  1  0  0  0
  9 10  2  0  0  0
 10 11  1  0  0  0
 10  5  1  0  0  0
 11  1  1  0  0  0
 12  8  1  0  0  0
 12 13  1  0  0  0
 12 14  1  0  0  0
 12 16  1  0  0  0
 16 17  1  0  0  0
 17 18  1  0  0  0
 18 19  2  0  0  0
 19 20  1  0  0  0
 20 21  2  0  0  0
 21 22  1  0  0  0
 22 23  2  0  0  0
 23 18  1  0  0  0
 28 29  2  0  0  0
 29 30  1  0  0  0
 30 31  2  0  0  0
 31 32  1  0  0  0
 32 33  2  0  0  0
 33 34  1  0  0  0
 34 35  2  0  0  0
 34 29  1  0  0  0
 35 26  1  0  0  0
 14 15  1  0  0  0
M  END
>  <minimizedAffinity>
6.95315

>  <minimizedRMSD>
2.20221

$$$$
CHEMBL2235544 PubChem-25108335


 29 32  0  0  0  0  0  0  0  0999 V2000
   16.9814   -9.2974   13.8866 C   0  0  0  0  0  0  0  0  0  0  0  0
   15.7468   -8.9242   13.5025 N   0  0  0  0  0  0  0  0  0  0  0  0
   15.5209   -9.5323   12.3482 N   0  0  0  0  0  0  0  0  0  0  0  0
   16.6258  -10.2532   12.0816 C   0  0  0  0  0  0  0  0  0  0  0  0
   17.5296  -10.1129   13.0199 O   0  0  0  0  0  0  0  0  0  0  0  0
   17.7726   -8.7432   15.3887 S   0  0  0  0  0  0  0  0  0  0  0  0
   16.2142   -8.0745   16.0443 C   0  0  0  0  0  0  0  0  0  0  0  0
   15.8131   -8.8062   17.3139 C   0  0  0  0  0  0  0  0  0  0  0  0
   15.2880   -8.0426   19.6606 N   0  0  0  0  0  0  0  0  0  0  0  0
   15.1019   -7.8882   18.2476 C   0  0  0  0  0  0  0  0  0  0  0  0
   14.3317   -7.0070   17.7816 O   0  0  0  0  0  0  0  0  0  0  0  0
   15.9117   -8.7476   19.9490 H   0  0  0  0  0  0  0  0  0  0  0  0
   12.8887   -4.9625   23.8480 C   0  0  0  0  0  0  0  0  0  0  0  0
   13.5011   -5.7641   22.7568 C   0  0  0  0  0  0  0  0  0  0  0  0
   12.6872   -6.4037   21.8182 C   0  0  0  0  0  0  0  0  0  0  0  0
   13.2644   -7.1576   20.7921 C   0  0  0  0  0  0  0  0  0  0  0  0
   14.6597   -7.2767   20.6973 C   0  0  0  0  0  0  0  0  0  0  0  0
   15.4670   -6.6334   21.6422 C   0  0  0  0  0  0  0  0  0  0  0  0
   14.8911   -5.8789   22.6690 C   0  0  0  0  0  0  0  0  0  0  0  0
   16.8136  -11.0700   10.8506 C   0  0  0  0  0  0  0  0  0  0  0  0
   16.8713  -10.2002    9.6858 N   0  0  0  0  0  0  0  0  0  0  0  0
   15.9306  -10.1220    8.7503 N   0  0  0  0  0  0  0  0  0  0  0  0
   16.2332   -9.1876    7.8487 N   0  0  0  0  0  0  0  0  0  0  0  0
   17.4053   -8.6607    8.2494 C   0  0  0  0  0  0  0  0  0  0  0  0
   18.1452   -7.6363    7.6678 C   0  0  0  0  0  0  0  0  0  0  0  0
   19.3398   -7.2631    8.3161 C   0  0  0  0  0  0  0  0  0  0  0  0
   19.7491   -7.9108    9.5068 C   0  0  0  0  0  0  0  0  0  0  0  0
   18.9714   -8.9431   10.0670 C   0  0  0  0  0  0  0  0  0  0  0  0
   17.8021   -9.2836    9.3916 C   0  0  0  0  0  0  0  0  0  0  0  0
 13 14  1  0  0  0
 14 15  2  0  0  0
 15 16  1  0  0  0
 16 17  2  0  0  0
 17  9  1  0  0  0
 17 18  1  0  0  0
  9 10  1  0  0  0
 10 11  2  0  0  0
 10  8  1  0  0  0
  8  7  1  0  0  0
  7  6  1  0  0  0
  6  1  1  0  0  0
  1  2  2  0  0  0
  2  3  1  0  0  0
  3  4  2  0  0  0
  4 20  1  0  0  0
  4  5  1  0  0  0
 20 21  1  0  0  0
 21 22  1  0  0  0
 22 23  2  0  0  0
 23 24  1  0  0  0
 24 25  2  0  0  0
 25 26  1  0  0  0
 26 27  2  0  0  0
 27 28  1  0  0  0
 28 29  2  0  0  0
 29 21  1  0  0  0
 29 24  1  0  0  0
  5  1  1  0  0  0
 18 19  2  0  0  0
 19 14  1  0  0  0
  9 12  1  0  0  0
M  END
>  <minimizedAffinity>
-7.99387

>  <minimizedRMSD>
2.20223

$$$$
CHEMBL3985350 PubChem-127053800


 38 42  0  0  0  0  0  0  0  0999 V2000
   17.2007  -10.5773   15.7537 C   0  0  0  0  0  0  0  0  0  0  0  0
   16.2654   -9.7281   15.1436 C   0  0  0  0  0  0  0  0  0  0  0  0
   15.5514   -8.8137   15.9173 C   0  0  0  0  0  0  0  0  0  0  0  0
   15.7667   -8.7430   17.2974 C   0  0  0  0  0  0  0  0  0  0  0  0
   16.7072   -9.6039   17.8734 C   0  0  0  0  0  0  0  0  0  0  0  0
   17.3928  -10.4883   17.1010 N   0  0  0  0  0  0  0  0  0  0  0  0
   15.0206   -7.7831   18.1283 C   0  0  0  0  0  0  0  0  0  0  0  0
   14.3821   -6.8401   17.5853 O   0  0  0  0  0  0  0  0  0  0  0  0
   15.0165   -7.9226   19.5523 N   0  0  0  0  0  0  0  0  0  0  0  0
   15.5003   -8.6808   19.9527 H   0  0  0  0  0  0  0  0  0  0  0  0
   14.3265   -6.9902   20.4359 C   0  0  0  0  0  0  0  0  0  0  0  0
   12.8842   -6.8519   20.0389 C   0  0  0  0  0  0  0  0  0  0  0  0
   12.1980   -7.9393   19.4751 C   0  0  0  0  0  0  0  0  0  0  0  0
   10.8605   -7.8121   19.0934 C   0  0  0  0  0  0  0  0  0  0  0  0
   10.1979   -6.5956   19.2682 C   0  0  0  0  0  0  0  0  0  0  0  0
   10.8726   -5.5063   19.8243 C   0  0  0  0  0  0  0  0  0  0  0  0
   12.2119   -5.6266   20.2093 C   0  0  0  0  0  0  0  0  0  0  0  0
   13.0147   -4.2253   20.9016 Cl  0  0  0  0  0  0  0  0  0  0  0  0
   14.4879   -7.3906   21.9026 C   0  0  0  0  0  0  0  0  0  0  0  0
   14.3078   -8.7654   22.0709 O   0  0  0  0  0  0  0  0  0  0  0  0
   13.4127   -9.0111   21.7893 H   0  0  0  0  0  0  0  0  0  0  0  0
   17.9848  -12.9291   15.4031 C   0  0  0  0  0  0  0  0  0  0  0  0
   17.9558  -11.5371   14.9822 N   0  0  0  0  0  0  0  0  0  0  0  0
   18.7106  -11.2050   13.7723 C   0  0  0  0  0  0  0  0  0  0  0  0
   19.3481   -9.8241   13.8605 C   0  0  0  0  0  0  0  0  0  0  0  0
   19.1123   -9.1654   12.5138 C   0  0  0  0  0  0  0  0  0  0  0  0
   18.1641  -10.0100   11.8097 N   0  0  0  0  0  0  0  0  0  0  0  0
   17.8321  -11.2201   12.5348 C   0  0  0  0  0  0  0  0  0  0  0  0
   17.5869   -9.7030   10.5283 C   0  0  0  0  0  0  0  0  0  0  0  0
   16.3817  -10.2454   10.1759 N   0  0  0  0  0  0  0  0  0  0  0  0
   15.7971   -9.9794    8.9670 C   0  0  0  0  0  0  0  0  0  0  0  0
   16.4104   -9.1556    8.0688 N   0  0  0  0  0  0  0  0  0  0  0  0
   17.6046   -8.6116    8.4030 C   0  0  0  0  0  0  0  0  0  0  0  0
   18.3292   -7.7894    7.6332 N   0  0  0  0  0  0  0  0  0  0  0  0
   19.4278   -7.5136    8.3788 C   0  0  0  0  0  0  0  0  0  0  0  0
   19.3926   -8.1624    9.6156 C   0  0  0  0  0  0  0  0  0  0  0  0
   18.2049   -8.8596    9.5972 C   0  0  0  0  0  0  0  0  0  0  0  0
   18.1133   -7.4601    6.7309 H   0  0  0  0  0  0  0  0  0  0  0  0
 22 23  1  0  0  0
 24 23  1  0  0  0
 24 25  1  0  0  0
 25 26  1  0  0  0
 26 27  1  0  0  0
 27 28  1  0  0  0
 27 29  1  0  0  0
 29 30  2  0  0  0
 30 31  1  0  0  0
 31 32  2  0  0  0
 32 33  1  0  0  0
 33 34  1  0  0  0
 34 35  1  0  0  0
 35 36  2  0  0  0
 36 37  1  0  0  0
 23  1  1  0  0  0
  1  2  2  0  0  0
  2  3  1  0  0  0
  3  4  2  0  0  0
  4  5  1  0  0  0
  5  6  2  0  0  0
  4  7  1  0  0  0
  7  8  2  0  0  0
  7  9  1  0  0  0
  9 11  1  0  0  0
 11 19  1  0  0  0
 19 20  1  0  0  0
 11 12  1  0  0  0
 12 13  2  0  0  0
 13 14  1  0  0  0
 14 15  2  0  0  0
 15 16  1  0  0  0
 16 17  2  0  0  0
 17 18  1  0  0  0
 28 24  1  0  0  0
 37 29  1  0  0  0
  6  1  1  0  0  0
 17 12  1  0  0  0
 37 33  2  0  0  0
 34 38  1  0  0  0
  9 10  1  0  0  0
 20 21  1  0  0  0
M  END
>  <minimizedAffinity>
-6.63356

>  <minimizedRMSD>
2.20394

$$$$
CHEMBL3905754 PubChem-56837044


 34 38  0  0  0  0  0  0  0  0999 V2000
   17.9758  -13.0311   15.2411 C   0  0  0  0  0  0  0  0  0  0  0  0
   17.9352  -11.6035   14.9590 N   0  0  0  0  0  0  0  0  0  0  0  0
   17.1644  -10.7134   15.7953 C   0  0  0  0  0  0  0  0  0  0  0  0
   17.4350  -10.6103   17.1689 C   0  0  0  0  0  0  0  0  0  0  0  0
   16.6776   -9.7464   17.9598 C   0  0  0  0  0  0  0  0  0  0  0  0
   15.6545   -8.9930   17.3832 C   0  0  0  0  0  0  0  0  0  0  0  0
   15.4102   -9.1138   16.0137 C   0  0  0  0  0  0  0  0  0  0  0  0
   16.1602   -9.9610   15.2598 N   0  0  0  0  0  0  0  0  0  0  0  0
   14.7045   -7.8960   18.3711 S   0  0  0  0  0  0  0  0  0  0  0  0
   13.2462   -8.2083   18.1896 O   0  0  0  0  0  0  0  0  0  0  0  0
   14.9525   -6.4744   17.9451 O   0  0  0  0  0  0  0  0  0  0  0  0
   15.1287   -8.0862   20.0381 N   0  0  0  0  0  0  0  0  0  0  0  0
   15.6390   -8.9597   20.1689 H   0  0  0  0  0  0  0  0  0  0  0  0
   15.9711   -6.9591   20.4135 C   0  0  0  0  0  0  0  0  0  0  0  0
   15.7356   -6.5681   21.8665 C   0  0  0  0  0  0  0  0  0  0  0  0
   14.8682   -7.5881   22.5725 C   0  0  0  0  0  0  0  0  0  0  0  0
   13.9101   -6.7561   23.3698 C   0  0  0  0  0  0  0  0  0  0  0  0
   14.3822   -5.3402   23.1403 C   0  0  0  0  0  0  0  0  0  0  0  0
   15.1205   -5.3089   21.9490 O   0  0  0  0  0  0  0  0  0  0  0  0
   18.7151  -11.1409   13.8107 C   0  0  0  0  0  0  0  0  0  0  0  0
   19.1546   -9.6910   13.9764 C   0  0  0  0  0  0  0  0  0  0  0  0
   18.8936   -9.0147   12.6436 C   0  0  0  0  0  0  0  0  0  0  0  0
   18.1122   -9.9528   11.8586 N   0  0  0  0  0  0  0  0  0  0  0  0
   17.9209  -11.2282   12.5200 C   0  0  0  0  0  0  0  0  0  0  0  0
   17.5634   -9.6751   10.5581 C   0  0  0  0  0  0  0  0  0  0  0  0
   16.3662  -10.2255   10.1914 N   0  0  0  0  0  0  0  0  0  0  0  0
   15.8078   -9.9855    8.9647 C   0  0  0  0  0  0  0  0  0  0  0  0
   16.4402   -9.1804    8.0626 N   0  0  0  0  0  0  0  0  0  0  0  0
   17.6262   -8.6277    8.4114 C   0  0  0  0  0  0  0  0  0  0  0  0
   18.3686   -7.8238    7.6389 N   0  0  0  0  0  0  0  0  0  0  0  0
   19.4510   -7.5319    8.4019 C   0  0  0  0  0  0  0  0  0  0  0  0
   19.3881   -8.1526    9.6520 C   0  0  0  0  0  0  0  0  0  0  0  0
   18.1996   -8.8487    9.6240 C   0  0  0  0  0  0  0  0  0  0  0  0
   18.1729   -7.5150    6.7248 H   0  0  0  0  0  0  0  0  0  0  0  0
  1  2  1  0  0  0
 20  2  1  0  0  0
 20 21  1  0  0  0
 21 22  1  0  0  0
 22 23  1  0  0  0
 23 24  1  0  0  0
 23 25  1  0  0  0
 25 26  2  0  0  0
 26 27  1  0  0  0
 27 28  2  0  0  0
 28 29  1  0  0  0
 29 30  1  0  0  0
 30 31  1  0  0  0
 31 32  2  0  0  0
 32 33  1  0  0  0
  2  3  1  0  0  0
  3  4  2  0  0  0
  4  5  1  0  0  0
  5  6  2  0  0  0
  6  7  1  0  0  0
  7  8  2  0  0  0
  6  9  1  0  0  0
  9 10  2  0  0  0
  9 11  2  0  0  0
  9 12  1  0  0  0
 12 14  1  0  0  0
 15 14  1  0  0  0
 15 16  1  0  0  0
 16 17  1  0  0  0
 17 18  1  0  0  0
 18 19  1  0  0  0
 24 20  1  0  0  0
 33 25  1  0  0  0
  8  3  1  0  0  0
 19 15  1  0  0  0
 33 29  2  0  0  0
 30 34  1  0  0  0
 12 13  1  0  0  0
M  END
>  <minimizedAffinity>
-3.07570

>  <minimizedRMSD>
2.20476

$$$$
CHEMBL4525567 PubChem-129052297


 34 37  0  0  0  0  0  0  0  0999 V2000
   18.5828   -9.6785   14.3315 C   0  0  0  0  0  0  0  0  0  0  0  0
   17.7619   -9.7069   15.5843 C   0  0  0  0  0  0  0  0  0  0  0  0
   16.9562   -8.7036   15.9850 N   0  0  0  0  0  0  0  0  0  0  0  0
   16.3504   -8.9843   17.1721 C   0  0  0  0  0  0  0  0  0  0  0  0
   16.6721  -10.2183   17.7428 C   0  0  0  0  0  0  0  0  0  0  0  0
   17.7602  -10.9611   16.6929 S   0  0  0  0  0  0  0  0  0  0  0  0
   15.4190   -8.0397   17.8019 C   0  0  0  0  0  0  0  0  0  0  0  0
   14.7412   -7.2569   17.0827 O   0  0  0  0  0  0  0  0  0  0  0  0
   15.2851   -8.0073   19.2263 N   0  0  0  0  0  0  0  0  0  0  0  0
   15.8550   -8.6014   19.7661 H   0  0  0  0  0  0  0  0  0  0  0  0
   14.3429   -7.1340   19.9129 C   0  0  0  0  0  0  0  0  0  0  0  0
   12.9678   -7.3148   19.3588 C   0  0  0  0  0  0  0  0  0  0  0  0
   12.2678   -6.2264   18.8207 C   0  0  0  0  0  0  0  0  0  0  0  0
   10.9873   -6.4279   18.3028 C   0  0  0  0  0  0  0  0  0  0  0  0
   10.4196   -7.7026   18.3260 C   0  0  0  0  0  0  0  0  0  0  0  0
   11.1465   -8.7628   18.8710 C   0  0  0  0  0  0  0  0  0  0  0  0
   12.3934   -8.5491   19.3713 N   0  0  0  0  0  0  0  0  0  0  0  0
   12.8158   -4.9859   18.7985 F   0  0  0  0  0  0  0  0  0  0  0  0
   18.3798  -11.8518   13.1178 C   0  0  0  0  0  0  0  0  0  0  0  0
   17.9371  -10.3988   13.1325 C   0  0  0  0  0  0  0  0  0  0  0  0
   16.4139  -10.3716   13.2216 C   0  0  0  0  0  0  0  0  0  0  0  0
   18.3825   -9.7880   11.8740 N   0  0  0  0  0  0  0  0  0  0  0  0
   18.9986  -10.4408   11.3896 H   0  0  0  0  0  0  0  0  0  0  0  0
   17.2547   -9.4638   11.0005 C   0  0  0  0  0  0  0  0  0  0  0  0
   17.7533   -9.0543    9.6577 C   0  0  0  0  0  0  0  0  0  0  0  0
   17.2900   -9.6009    8.5028 N   0  0  0  0  0  0  0  0  0  0  0  0
   18.0022   -8.9502    7.5725 C   0  0  0  0  0  0  0  0  0  0  0  0
   17.9422   -9.1098    6.1903 C   0  0  0  0  0  0  0  0  0  0  0  0
   18.7950   -8.3075    5.4093 C   0  0  0  0  0  0  0  0  0  0  0  0
   19.6703   -7.3825    6.0217 C   0  0  0  0  0  0  0  0  0  0  0  0
   19.7033   -7.2488    7.4225 C   0  0  0  0  0  0  0  0  0  0  0  0
   18.8457   -8.0588    8.1626 C   0  0  0  0  0  0  0  0  0  0  0  0
   18.7082   -8.1020    9.4949 N   0  0  0  0  0  0  0  0  0  0  0  0
   19.1796   -7.5769   10.1815 H   0  0  0  0  0  0  0  0  0  0  0  0
 19 20  1  0  0  0
 20 21  1  0  0  0
 20  1  1  0  0  0
  1  2  1  0  0  0
  2  3  2  0  0  0
  3  4  1  0  0  0
  4  5  2  0  0  0
  5  6  1  0  0  0
  4  7  1  0  0  0
  7  8  2  0  0  0
  7  9  1  0  0  0
  9 11  1  0  0  0
 11 12  1  0  0  0
 12 13  2  0  0  0
 13 14  1  0  0  0
 14 15  2  0  0  0
 15 16  1  0  0  0
 16 17  2  0  0  0
 13 18  1  0  0  0
 20 22  1  0  0  0
 22 24  1  0  0  0
 24 25  1  0  0  0
 25 26  2  0  0  0
 26 27  1  0  0  0
 27 28  2  0  0  0
 28 29  1  0  0  0
 29 30  2  0  0  0
 30 31  1  0  0  0
 31 32  2  0  0  0
 32 33  1  0  0  0
  6  2  1  0  0  0
 17 12  1  0  0  0
 33 25  1  0  0  0
 32 27  1  0  0  0
  9 10  1  0  0  0
 22 23  1  0  0  0
 33 34  1  0  0  0
M  END
>  <minimizedAffinity>
-7.54915

>  <minimizedRMSD>
2.20627

$$$$
CHEMBL5072731


 37 42  0  0  0  0  0  0  0  0999 V2000
   18.2328   -8.9165   14.6569 C   0  0  0  0  0  0  0  0  0  0  0  0
   17.2553   -8.5675   13.5476 C   0  0  0  0  0  0  0  0  0  0  0  0
   17.2686   -9.6908   12.6318 N   0  0  0  0  0  0  0  0  0  0  0  0
   18.1585  -10.7595   13.0494 C   0  0  0  0  0  0  0  0  0  0  0  0
   18.9586  -10.1857   14.2069 C   0  0  0  0  0  0  0  0  0  0  0  0
   16.4455   -9.7633   11.4570 C   0  0  0  0  0  0  0  0  0  0  0  0
   16.8557   -9.2777   10.2084 C   0  0  0  0  0  0  0  0  0  0  0  0
   15.9995   -9.3457    9.1340 C   0  0  0  0  0  0  0  0  0  0  0  0
   16.5425   -8.8798    7.9883 N   0  0  0  0  0  0  0  0  0  0  0  0
   17.7911   -8.5150    8.3628 C   0  0  0  0  0  0  0  0  0  0  0  0
   18.0262   -8.7534    9.7052 C   0  0  0  0  0  0  0  0  0  0  0  0
   19.2716   -8.5250   10.2859 C   0  0  0  0  0  0  0  0  0  0  0  0
   20.2930   -8.0152    9.4687 C   0  0  0  0  0  0  0  0  0  0  0  0
   20.0567   -7.7540    8.1039 C   0  0  0  0  0  0  0  0  0  0  0  0
   18.7898   -7.9893    7.5318 C   0  0  0  0  0  0  0  0  0  0  0  0
   14.7630   -9.8871    9.2422 N   0  0  0  0  0  0  0  0  0  0  0  0
   14.3631  -10.3744   10.4520 C   0  0  0  0  0  0  0  0  0  0  0  0
   15.1971  -10.3129   11.5350 N   0  0  0  0  0  0  0  0  0  0  0  0
   13.0129  -10.9782   10.5946 C   0  0  0  0  0  0  0  0  0  0  0  0
   16.1298   -8.8201    7.0964 H   0  0  0  0  0  0  0  0  0  0  0  0
   18.5591   -7.7725    6.0639 C   0  0  0  0  0  0  0  0  0  0  0  0
   19.3747   -8.7560    5.2396 C   0  0  0  0  0  0  0  0  0  0  0  0
   19.8474   -7.3294    5.3903 C   0  0  0  0  0  0  0  0  0  0  0  0
   17.4923   -9.0991   15.9520 C   0  0  0  0  0  0  0  0  0  0  0  0
   16.6355   -8.1785   16.4283 N   0  0  0  0  0  0  0  0  0  0  0  0
   16.1854   -8.6864   17.5890 C   0  0  0  0  0  0  0  0  0  0  0  0
   16.7462   -9.9194   17.8631 C   0  0  0  0  0  0  0  0  0  0  0  0
   17.5941  -10.1872   16.8047 C   0  0  0  0  0  0  0  0  0  0  0  0
   16.3908   -7.3185   16.0162 H   0  0  0  0  0  0  0  0  0  0  0  0
   15.2151   -7.9965   18.4475 C   0  0  0  0  0  0  0  0  0  0  0  0
   14.2778   -7.3319   17.9329 O   0  0  0  0  0  0  0  0  0  0  0  0
   15.3254   -8.0733   19.8651 N   0  0  0  0  0  0  0  0  0  0  0  0
   16.0557   -8.5911   20.2747 H   0  0  0  0  0  0  0  0  0  0  0  0
   14.6715   -7.6085   20.4357 H   0  0  0  0  0  0  0  0  0  0  0  0
   17.3562  -11.9606   13.5318 C   0  0  0  0  0  0  0  0  0  0  0  0
   18.2193  -12.9781   13.9385 O   0  0  0  0  0  0  0  0  0  0  0  0
   18.7751  -13.2487   13.1909 H   0  0  0  0  0  0  0  0  0  0  0  0
  1  2  1  0  0  0
  2  3  1  0  0  0
  3  6  1  0  0  0
  6  7  1  0  0  0
  7  8  2  0  0  0
  8  9  1  0  0  0
  9 10  1  0  0  0
 10 11  2  0  0  0
 11 12  1  0  0  0
 12 13  2  0  0  0
 13 14  1  0  0  0
 14 15  2  0  0  0
 15 21  1  0  0  0
 21 22  1  0  0  0
 22 23  1  0  0  0
  8 16  1  0  0  0
 16 17  2  0  0  0
 17 18  1  0  0  0
 17 19  1  0  0  0
  3  4  1  0  0  0
  4  5  1  0  0  0
  4 35  1  0  0  0
 35 36  1  0  0  0
  1 24  1  0  0  0
 24 25  1  0  0  0
 25 26  1  0  0  0
 26 27  2  0  0  0
 27 28  1  0  0  0
 26 30  1  0  0  0
 30 31  2  0  0  0
 30 32  1  0  0  0
  5  1  1  0  0  0
 28 24  2  0  0  0
 18  6  2  0  0  0
 11  7  1  0  0  0
 23 21  1  0  0  0
 15 10  1  0  0  0
  9 20  1  0  0  0
 36 37  1  0  0  0
 25 29  1  0  0  0
 32 33  1  0  0  0
 32 34  1  0  0  0
M  END
>  <minimizedAffinity>
-4.34268

>  <minimizedRMSD>
2.20667

$$$$
CHEMBL4286375 PubChem-67155626


 33 35  0  0  0  0  0  0  0  0999 V2000
   16.7325   -9.0960   13.5551 C   0  0  0  0  0  0  0  0  0  0  0  0
   15.7751   -8.3323   13.2540 O   0  0  0  0  0  0  0  0  0  0  0  0
   17.4502   -9.7886   12.5219 N   0  0  0  0  0  0  0  0  0  0  0  0
   18.1992  -10.3574   12.8131 H   0  0  0  0  0  0  0  0  0  0  0  0
   17.1935   -9.7412   11.1119 C   0  0  0  0  0  0  0  0  0  0  0  0
   16.0230  -10.3566   10.6121 C   0  0  0  0  0  0  0  0  0  0  0  0
   15.7360  -10.3370    9.2758 N   0  0  0  0  0  0  0  0  0  0  0  0
   16.5903   -9.7141    8.4265 C   0  0  0  0  0  0  0  0  0  0  0  0
   17.7282   -9.1033    8.8654 C   0  0  0  0  0  0  0  0  0  0  0  0
   18.0690   -9.0961   10.2143 C   0  0  0  0  0  0  0  0  0  0  0  0
   18.3396   -8.5887    7.7443 C   0  0  0  0  0  0  0  0  0  0  0  0
   17.5233   -8.9242    6.6642 C   0  0  0  0  0  0  0  0  0  0  0  0
   16.4392   -9.6215    7.0930 N   0  0  0  0  0  0  0  0  0  0  0  0
   15.7032   -9.9808    6.5468 H   0  0  0  0  0  0  0  0  0  0  0  0
   19.5738   -7.8549    7.6740 N   0  0  0  0  0  0  0  0  0  0  0  0
   20.3794   -7.6024    8.8566 C   0  0  0  0  0  0  0  0  0  0  0  0
   20.0516   -7.3395    6.4016 C   0  0  0  0  0  0  0  0  0  0  0  0
   16.5237   -9.3175   17.3644 C   0  0  0  0  0  0  0  0  0  0  0  0
   16.1549   -9.1299   16.0117 C   0  0  0  0  0  0  0  0  0  0  0  0
   17.1148   -9.2807   14.9813 C   0  0  0  0  0  0  0  0  0  0  0  0
   18.4431   -9.6072   15.3300 C   0  0  0  0  0  0  0  0  0  0  0  0
   18.8003   -9.7712   16.6660 C   0  0  0  0  0  0  0  0  0  0  0  0
   17.8493   -9.6275   17.6706 C   0  0  0  0  0  0  0  0  0  0  0  0
   19.4117   -9.7365   14.3897 F   0  0  0  0  0  0  0  0  0  0  0  0
   14.8838   -8.7970   15.6859 F   0  0  0  0  0  0  0  0  0  0  0  0
   15.6138   -9.1958   18.4701 N   0  0  0  0  0  0  0  0  0  0  0  0
   15.4117  -10.0321   18.9488 H   0  0  0  0  0  0  0  0  0  0  0  0
   14.8218   -7.7730   19.0769 S   0  0  0  0  0  0  0  0  0  0  0  0
   14.7343   -6.7219   18.0058 O   0  0  0  0  0  0  0  0  0  0  0  0
   13.4219   -8.1490   19.4732 O   0  0  0  0  0  0  0  0  0  0  0  0
   15.6508   -7.1289   20.5214 C   0  0  0  0  0  0  0  0  0  0  0  0
   17.7702   -6.2706   21.4716 C   0  0  0  0  0  0  0  0  0  0  0  0
   17.1056   -6.8107   20.2237 C   0  0  0  0  0  0  0  0  0  0  0  0
 32 33  1  0  0  0
 33 31  1  0  0  0
 31 28  1  0  0  0
 28 29  2  0  0  0
 28 30  2  0  0  0
 28 26  1  0  0  0
 26 18  1  0  0  0
 18 19  2  0  0  0
 19 20  1  0  0  0
 19 25  1  0  0  0
 20 21  2  0  0  0
 20  1  1  0  0  0
 21 22  1  0  0  0
 21 24  1  0  0  0
 22 23  2  0  0  0
 23 18  1  0  0  0
  1  2  2  0  0  0
  1  3  1  0  0  0
  3  5  1  0  0  0
  5  6  2  0  0  0
  6  7  1  0  0  0
  7  8  2  0  0  0
  8  9  1  0  0  0
  9 10  2  0  0  0
  9 11  1  0  0  0
 10  5  1  0  0  0
 11 12  2  0  0  0
 11 15  1  0  0  0
 12 13  1  0  0  0
 13  8  1  0  0  0
 15 16  1  0  0  0
 15 17  1  0  0  0
 26 27  1  0  0  0
  3  4  1  0  0  0
 13 14  1  0  0  0
M  END
>  <minimizedAffinity>
-2.45284

>  <minimizedRMSD>
2.20907

$$$$
CHEMBL5172294 PubChem-155927062 PubChem-163573150


 36 40  0  0  0  0  0  0  0  0999 V2000
   15.3821   -7.4069   16.1491 O   0  0  0  0  0  0  0  0  0  0  0  0
   15.2582   -8.0541   17.2246 C   0  0  0  0  0  0  0  0  0  0  0  0
   15.8872   -9.3353   17.3835 N   0  0  0  0  0  0  0  0  0  0  0  0
   15.7476   -9.7907   18.2451 H   0  0  0  0  0  0  0  0  0  0  0  0
   16.6974  -10.0212   16.4193 C   0  0  0  0  0  0  0  0  0  0  0  0
   16.5928   -9.7647   15.0446 C   0  0  0  0  0  0  0  0  0  0  0  0
   17.3969  -10.4482   14.1274 C   0  0  0  0  0  0  0  0  0  0  0  0
   18.3216  -11.4045   14.5890 C   0  0  0  0  0  0  0  0  0  0  0  0
   18.4264  -11.6594   15.9596 C   0  0  0  0  0  0  0  0  0  0  0  0
   17.6190  -10.9714   16.8690 C   0  0  0  0  0  0  0  0  0  0  0  0
   19.2027  -12.1601   13.6514 C   0  0  0  0  0  0  0  0  0  0  0  0
   17.2573  -10.1473   12.7260 C   0  0  0  0  0  0  0  0  0  0  0  0
   17.1409   -9.8986   11.5523 C   0  0  0  0  0  0  0  0  0  0  0  0
   17.0026   -9.6063   10.1518 C   0  0  0  0  0  0  0  0  0  0  0  0
   17.8494   -8.8694    9.4274 N   0  0  0  0  0  0  0  0  0  0  0  0
   18.9701   -8.2538    9.7986 N   0  0  0  0  0  0  0  0  0  0  0  0
   19.6741   -7.5519    8.8652 C   0  0  0  0  0  0  0  0  0  0  0  0
   19.2061   -7.4920    7.5377 C   0  0  0  0  0  0  0  0  0  0  0  0
   18.0200   -8.1528    7.1799 C   0  0  0  0  0  0  0  0  0  0  0  0
   17.3587   -8.8471    8.1857 C   0  0  0  0  0  0  0  0  0  0  0  0
   16.2125   -9.5463    8.0632 N   0  0  0  0  0  0  0  0  0  0  0  0
   15.9814  -10.0322    9.3134 C   0  0  0  0  0  0  0  0  0  0  0  0
   14.4601   -7.4906   18.3278 C   0  0  0  0  0  0  0  0  0  0  0  0
   14.9555   -7.5049   19.6398 C   0  0  0  0  0  0  0  0  0  0  0  0
   14.1992   -6.9707   20.6869 C   0  0  0  0  0  0  0  0  0  0  0  0
   12.9389   -6.4219   20.4309 C   0  0  0  0  0  0  0  0  0  0  0  0
   12.4416   -6.3968   19.1246 C   0  0  0  0  0  0  0  0  0  0  0  0
   13.1982   -6.9312   18.0778 C   0  0  0  0  0  0  0  0  0  0  0  0
   12.1427   -5.8302   21.5433 C   0  0  0  0  0  0  0  0  0  0  0  0
   13.0194   -5.4627   22.6434 N   0  0  0  0  0  0  0  0  0  0  0  0
   13.4365   -4.0771   22.4210 C   0  0  0  0  0  0  0  0  0  0  0  0
   14.2703   -3.5543   23.6014 C   0  0  0  0  0  0  0  0  0  0  0  0
   14.3177   -4.5215   24.7000 N   0  0  0  0  0  0  0  0  0  0  0  0
   12.9522   -4.9011   25.0615 C   0  0  0  0  0  0  0  0  0  0  0  0
   12.2142   -5.5236   23.8653 C   0  0  0  0  0  0  0  0  0  0  0  0
   14.8792   -3.8293   25.8451 C   0  0  0  0  0  0  0  0  0  0  0  0
  1  2  2  0  0  0
  2  3  1  0  0  0
  3  5  1  0  0  0
  5  6  2  0  0  0
  6  7  1  0  0  0
  7  8  2  0  0  0
  8  9  1  0  0  0
  9 10  2  0  0  0
  8 11  1  0  0  0
  7 12  1  0  0  0
 12 13  3  0  0  0
 13 14  1  0  0  0
 14 15  1  0  0  0
 15 16  1  0  0  0
 16 17  2  0  0  0
 17 18  1  0  0  0
 18 19  2  0  0  0
 19 20  1  0  0  0
 20 21  2  0  0  0
 21 22  1  0  0  0
  2 23  1  0  0  0
 23 24  2  0  0  0
 24 25  1  0  0  0
 25 26  2  0  0  0
 26 29  1  0  0  0
 29 30  1  0  0  0
 30 31  1  0  0  0
 31 32  1  0  0  0
 32 33  1  0  0  0
 33 34  1  0  0  0
 34 35  1  0  0  0
 33 36  1  0  0  0
 26 27  1  0  0  0
 27 28  2  0  0  0
 10  5  1  0  0  0
 22 14  2  0  0  0
 28 23  1  0  0  0
 20 15  1  0  0  0
 35 30  1  0  0  0
  3  4  1  0  0  0
M  END
>  <minimizedAffinity>
-11.51773

>  <minimizedRMSD>
2.21211

$$$$
CHEMBL1884010 8583001 LN01059960 MCULE-3663123971 MolPort-004-901-648 PubChem-16033913 ZINC000008583001


 32 35  0  0  0  0  0  0  0  0999 V2000
   18.9437   -8.1369    7.7518 N   0  0  0  0  0  0  0  0  0  0  0  0
   19.6334   -7.5650    8.7362 N   0  0  0  0  0  0  0  0  0  0  0  0
   19.1115   -7.9396    9.9350 C   0  0  0  0  0  0  0  0  0  0  0  0
   18.0517   -8.7820    9.6631 C   0  0  0  0  0  0  0  0  0  0  0  0
   17.1469   -9.4645   10.4631 C   0  0  0  0  0  0  0  0  0  0  0  0
   16.1977  -10.2267    9.8395 N   0  0  0  0  0  0  0  0  0  0  0  0
   16.1390  -10.3140    8.4719 C   0  0  0  0  0  0  0  0  0  0  0  0
   17.0354   -9.6357    7.6936 N   0  0  0  0  0  0  0  0  0  0  0  0
   17.9761   -8.8812    8.3140 C   0  0  0  0  0  0  0  0  0  0  0  0
   19.2335   -7.9492    6.3549 C   0  0  0  0  0  0  0  0  0  0  0  0
   18.3923   -8.4753    5.3614 C   0  0  0  0  0  0  0  0  0  0  0  0
   18.6861   -8.2852    4.0082 C   0  0  0  0  0  0  0  0  0  0  0  0
   19.8247   -7.5667    3.6351 C   0  0  0  0  0  0  0  0  0  0  0  0
   20.6690   -7.0388    4.6150 C   0  0  0  0  0  0  0  0  0  0  0  0
   20.3745   -7.2293    5.9681 C   0  0  0  0  0  0  0  0  0  0  0  0
   20.1376   -7.3644    2.1967 C   0  0  0  0  0  0  0  0  0  0  0  0
   17.2075   -9.3698   11.8884 N   0  0  0  0  0  0  0  0  0  0  0  0
   16.4984   -8.8738   12.3578 H   0  0  0  0  0  0  0  0  0  0  0  0
   18.2728   -9.9753   12.6763 C   0  0  0  0  0  0  0  0  0  0  0  0
   17.7001  -10.8863   13.7569 C   0  0  0  0  0  0  0  0  0  0  0  0
   17.1331  -10.1041   14.8959 C   0  0  0  0  0  0  0  0  0  0  0  0
   17.3364  -10.5492   16.2062 C   0  0  0  0  0  0  0  0  0  0  0  0
   16.7924   -9.8394   17.2807 C   0  0  0  0  0  0  0  0  0  0  0  0
   16.0355   -8.6856   17.0487 C   0  0  0  0  0  0  0  0  0  0  0  0
   15.8254   -8.2435   15.7379 C   0  0  0  0  0  0  0  0  0  0  0  0
   16.3690   -8.9530   14.6636 C   0  0  0  0  0  0  0  0  0  0  0  0
   15.3633   -7.7886   18.3975 S   0  0  0  0  0  0  0  0  0  0  0  0
   14.7422   -8.8873   19.5776 N   0  0  0  0  0  0  0  0  0  0  0  0
   14.2422   -6.9121   17.9142 O   0  0  0  0  0  0  0  0  0  0  0  0
   16.4338   -6.9377   19.0197 O   0  0  0  0  0  0  0  0  0  0  0  0
   14.0154   -9.4650   19.1551 H   0  0  0  0  0  0  0  0  0  0  0  0
   14.3481   -8.3615   20.3576 H   0  0  0  0  0  0  0  0  0  0  0  0
  1 10  1  0  0  0
 10 11  2  0  0  0
 11 12  1  0  0  0
 12 13  2  0  0  0
 13 14  1  0  0  0
 14 15  2  0  0  0
 13 16  1  0  0  0
  1  2  1  0  0  0
  2  3  2  0  0  0
  3  4  1  0  0  0
  4  5  2  0  0  0
  5 17  1  0  0  0
 17 19  1  0  0  0
 19 20  1  0  0  0
 20 21  1  0  0  0
 21 22  2  0  0  0
 22 23  1  0  0  0
 23 24  2  0  0  0
 24 25  1  0  0  0
 25 26  2  0  0  0
 24 27  1  0  0  0
 27 28  1  0  0  0
 27 29  2  0  0  0
 27 30  2  0  0  0
  5  6  1  0  0  0
  6  7  2  0  0  0
  7  8  1  0  0  0
  8  9  2  0  0  0
  9  1  1  0  0  0
 15 10  1  0  0  0
  9  4  1  0  0  0
 26 21  1  0  0  0
 17 18  1  0  0  0
 28 31  1  0  0  0
 28 32  1  0  0  0
M  END
>  <minimizedAffinity>
-6.17384

>  <minimizedRMSD>
2.21216

$$$$
CHEMBL412278 PubChem-24823252


 33 36  0  0  0  0  0  0  0  0999 V2000
   18.5584  -10.7615   13.9603 C   0  0  0  0  0  0  0  0  0  0  0  0
   18.8286  -10.7199   15.3259 C   0  0  0  0  0  0  0  0  0  0  0  0
   18.0513   -9.9255   16.1689 C   0  0  0  0  0  0  0  0  0  0  0  0
   16.9878   -9.1554   15.6716 C   0  0  0  0  0  0  0  0  0  0  0  0
   16.7113   -9.1974   14.2780 C   0  0  0  0  0  0  0  0  0  0  0  0
   17.5102  -10.0092   13.4316 C   0  0  0  0  0  0  0  0  0  0  0  0
   17.2560  -10.0622   12.0595 C   0  0  0  0  0  0  0  0  0  0  0  0
   16.2155   -9.3076   11.4981 C   0  0  0  0  0  0  0  0  0  0  0  0
   15.4186   -8.5163   12.3278 C   0  0  0  0  0  0  0  0  0  0  0  0
   15.6649   -8.4599   13.7016 C   0  0  0  0  0  0  0  0  0  0  0  0
   16.2139   -8.3388   16.6449 C   0  0  0  0  0  0  0  0  0  0  0  0
   15.5055   -7.3686   16.2615 O   0  0  0  0  0  0  0  0  0  0  0  0
   16.2723   -8.6569   18.0385 N   0  0  0  0  0  0  0  0  0  0  0  0
   16.8286   -9.4146   18.3310 H   0  0  0  0  0  0  0  0  0  0  0  0
   15.5367   -7.8976   19.0372 C   0  0  0  0  0  0  0  0  0  0  0  0
   14.0863   -7.7604   18.6146 C   0  0  0  0  0  0  0  0  0  0  0  0
   13.5111   -6.6546   19.2413 O   0  0  0  0  0  0  0  0  0  0  0  0
   12.6729   -7.1997   20.2126 C   0  0  0  0  0  0  0  0  0  0  0  0
   15.9354   -9.3455   10.1256 O   0  0  0  0  0  0  0  0  0  0  0  0
   16.8035   -9.8568    9.1504 C   0  0  0  0  0  0  0  0  0  0  0  0
   16.8592  -11.2029    8.9694 N   0  0  0  0  0  0  0  0  0  0  0  0
   17.6791  -11.7618    8.0410 C   0  0  0  0  0  0  0  0  0  0  0  0
   18.4615  -10.9754    7.2577 N   0  0  0  0  0  0  0  0  0  0  0  0
   18.4324   -9.6241    7.3797 C   0  0  0  0  0  0  0  0  0  0  0  0
   17.5881   -9.0216    8.3325 C   0  0  0  0  0  0  0  0  0  0  0  0
   17.5316   -7.6258    8.4156 C   0  0  0  0  0  0  0  0  0  0  0  0
   18.3288   -6.8246    7.5830 C   0  0  0  0  0  0  0  0  0  0  0  0
   19.1827   -7.4297    6.6473 C   0  0  0  0  0  0  0  0  0  0  0  0
   19.2256   -8.8305    6.5490 C   0  0  0  0  0  0  0  0  0  0  0  0
   19.9756   -6.6218    5.8248 O   0  0  0  0  0  0  0  0  0  0  0  0
   21.1653   -7.0891    5.2037 C   0  0  0  0  0  0  0  0  0  0  0  0
   18.2895   -5.4289    7.6711 O   0  0  0  0  0  0  0  0  0  0  0  0
   18.0620   -4.7421    8.8946 C   0  0  0  0  0  0  0  0  0  0  0  0
  1  2  2  0  0  0
  2  3  1  0  0  0
  3  4  2  0  0  0
  4  5  1  0  0  0
  5  6  2  0  0  0
  6  7  1  0  0  0
  7  8  2  0  0  0
  8  9  1  0  0  0
  9 10  2  0  0  0
  8 19  1  0  0  0
 19 20  1  0  0  0
 20 21  2  0  0  0
 21 22  1  0  0  0
 22 23  2  0  0  0
 23 24  1  0  0  0
 24 25  2  0  0  0
 25 26  1  0  0  0
 26 27  2  0  0  0
 27 28  1  0  0  0
 28 29  2  0  0  0
 28 30  1  0  0  0
 30 31  1  0  0  0
 27 32  1  0  0  0
 32 33  1  0  0  0
  4 11  1  0  0  0
 11 12  2  0  0  0
 11 13  1  0  0  0
 13 15  1  0  0  0
 15 16  1  0  0  0
 16 17  1  0  0  0
 17 18  1  0  0  0
  6  1  1  0  0  0
 25 20  1  0  0  0
 10  5  1  0  0  0
 29 24  1  0  0  0
 13 14  1  0  0  0
M  END
>  <minimizedAffinity>
1.15534

>  <minimizedRMSD>
2.21339

$$$$
CHEMBL4173465 PubChem-145951848


 32 36  0  0  0  0  0  0  0  0999 V2000
   17.1193   -9.9186   12.0094 C   0  0  0  0  0  0  0  0  0  0  0  0
   16.2486   -8.9933   12.6169 C   0  0  0  0  0  0  0  0  0  0  0  0
   16.2271   -8.9362   14.0075 C   0  0  0  0  0  0  0  0  0  0  0  0
   17.0222   -9.7364   14.7749 C   0  0  0  0  0  0  0  0  0  0  0  0
   17.9078  -10.6570   14.2185 C   0  0  0  0  0  0  0  0  0  0  0  0
   17.9519  -10.7388   12.8153 C   0  0  0  0  0  0  0  0  0  0  0  0
   16.7947   -9.4661   16.0670 N   0  0  0  0  0  0  0  0  0  0  0  0
   15.8476   -8.4887   16.0393 C   0  0  0  0  0  0  0  0  0  0  0  0
   15.4725   -8.1349   14.7822 N   0  0  0  0  0  0  0  0  0  0  0  0
   17.4375  -10.0951   17.2115 C   0  0  0  0  0  0  0  0  0  0  0  0
   15.2760   -7.8661   17.1957 N   0  0  0  0  0  0  0  0  0  0  0  0
   14.5386   -7.2288   17.0565 H   0  0  0  0  0  0  0  0  0  0  0  0
   15.7111   -8.1117   18.5609 C   0  0  0  0  0  0  0  0  0  0  0  0
   14.7377   -7.5148   19.5142 C   0  0  0  0  0  0  0  0  0  0  0  0
   13.5835   -6.8876   19.0348 C   0  0  0  0  0  0  0  0  0  0  0  0
   12.6798   -6.3079   19.9298 C   0  0  0  0  0  0  0  0  0  0  0  0
   12.9279   -6.3477   21.3121 C   0  0  0  0  0  0  0  0  0  0  0  0
   14.0887   -6.9702   21.7838 C   0  0  0  0  0  0  0  0  0  0  0  0
   14.9927   -7.5501   20.8887 C   0  0  0  0  0  0  0  0  0  0  0  0
   12.0437   -5.7785   22.2324 O   0  0  0  0  0  0  0  0  0  0  0  0
   11.3880   -4.5390   22.0017 C   0  0  0  0  0  0  0  0  0  0  0  0
   17.1701   -9.9726   10.6106 O   0  0  0  0  0  0  0  0  0  0  0  0
   19.0630   -8.5259   10.3937 N   0  0  0  0  0  0  0  0  0  0  0  0
   19.9356   -7.7708    9.6520 C   0  0  0  0  0  0  0  0  0  0  0  0
   19.8099   -7.6975    8.2932 N   0  0  0  0  0  0  0  0  0  0  0  0
   18.8034   -8.3936    7.7124 C   0  0  0  0  0  0  0  0  0  0  0  0
   17.9279   -9.1473    8.4219 C   0  0  0  0  0  0  0  0  0  0  0  0
   18.0528   -9.2366    9.8091 C   0  0  0  0  0  0  0  0  0  0  0  0
   17.0127   -9.6358    7.5035 C   0  0  0  0  0  0  0  0  0  0  0  0
   17.3838   -9.1690    6.2804 N   0  0  0  0  0  0  0  0  0  0  0  0
   18.4697   -8.4176    6.4186 N   0  0  0  0  0  0  0  0  0  0  0  0
   19.1376   -7.7292    5.3283 C   0  0  0  0  0  0  0  0  0  0  0  0
 23 24  2  0  0  0
 24 25  1  0  0  0
 25 26  2  0  0  0
 26 27  1  0  0  0
 27 28  2  0  0  0
 28 22  1  0  0  0
 22  1  1  0  0  0
  1  2  2  0  0  0
  2  3  1  0  0  0
  3  4  2  0  0  0
  4  5  1  0  0  0
  5  6  2  0  0  0
  4  7  1  0  0  0
  7  8  1  0  0  0
  8  9  2  0  0  0
  8 11  1  0  0  0
 11 13  1  0  0  0
 13 14  1  0  0  0
 14 15  2  0  0  0
 15 16  1  0  0  0
 16 17  2  0  0  0
 17 18  1  0  0  0
 18 19  2  0  0  0
 17 20  1  0  0  0
 20 21  1  0  0  0
  7 10  1  0  0  0
 27 29  1  0  0  0
 29 30  2  0  0  0
 30 31  1  0  0  0
 31 32  1  0  0  0
 28 23  1  0  0  0
  6  1  1  0  0  0
 19 14  1  0  0  0
 31 26  1  0  0  0
  9  3  1  0  0  0
 11 12  1  0  0  0
M  END
>  <minimizedAffinity>
-7.64800

>  <minimizedRMSD>
2.21610

$$$$
CHEMBL1872755


 36 38  0  0  0  0  0  0  0  0999 V2000
   15.7160   -8.7834   16.4802 N   0  0  0  0  0  0  0  0  0  0  0  0
   16.6423   -9.1415   17.5441 C   0  0  0  0  0  0  0  0  0  0  0  0
   16.1476   -8.7314   15.1109 C   0  0  0  0  0  0  0  0  0  0  0  0
   15.3347   -8.4122   14.2021 O   0  0  0  0  0  0  0  0  0  0  0  0
   14.3530   -8.4194   16.8438 C   0  0  0  0  0  0  0  0  0  0  0  0
   15.0061   -8.0444   19.2523 N   0  0  0  0  0  0  0  0  0  0  0  0
   14.3556   -7.5681   18.0671 C   0  0  0  0  0  0  0  0  0  0  0  0
   13.8130   -6.4321   18.0300 O   0  0  0  0  0  0  0  0  0  0  0  0
   15.4127   -8.9397   19.2030 H   0  0  0  0  0  0  0  0  0  0  0  0
   15.4426   -5.9801   22.9391 C   0  0  0  0  0  0  0  0  0  0  0  0
   14.1848   -6.4746   22.5590 C   0  0  0  0  0  0  0  0  0  0  0  0
   14.0285   -7.1546   21.3499 C   0  0  0  0  0  0  0  0  0  0  0  0
   15.1260   -7.3519   20.5021 C   0  0  0  0  0  0  0  0  0  0  0  0
   16.3780   -6.8600   20.8806 C   0  0  0  0  0  0  0  0  0  0  0  0
   16.5460   -6.1728   22.0943 C   0  0  0  0  0  0  0  0  0  0  0  0
   15.6181   -5.2964   24.1471 O   0  0  0  0  0  0  0  0  0  0  0  0
   16.3493   -3.0231   24.3505 C   0  0  0  0  0  0  0  0  0  0  0  0
   15.1643   -3.9652   24.3507 C   0  0  0  0  0  0  0  0  0  0  0  0
   17.7982   -5.6784   22.4817 O   0  0  0  0  0  0  0  0  0  0  0  0
   18.8885   -6.5148   22.8536 C   0  0  0  0  0  0  0  0  0  0  0  0
   20.0436   -6.3289   21.8878 C   0  0  0  0  0  0  0  0  0  0  0  0
   17.5481   -9.0831   14.7318 C   0  0  0  0  0  0  0  0  0  0  0  0
   17.5750  -10.4467   14.0632 C   0  0  0  0  0  0  0  0  0  0  0  0
   18.6706  -10.5006   13.0100 C   0  0  0  0  0  0  0  0  0  0  0  0
   18.1636  -10.0420   11.6838 C   0  0  0  0  0  0  0  0  0  0  0  0
   16.9411  -10.4450   11.2421 N   0  0  0  0  0  0  0  0  0  0  0  0
   16.4590  -10.0431   10.0368 C   0  0  0  0  0  0  0  0  0  0  0  0
   15.2042  -10.4744    9.6213 O   0  0  0  0  0  0  0  0  0  0  0  0
   17.2306   -9.2010    9.2290 C   0  0  0  0  0  0  0  0  0  0  0  0
   16.7802   -8.7577    7.9791 C   0  0  0  0  0  0  0  0  0  0  0  0
   17.5865   -7.9173    7.2050 C   0  0  0  0  0  0  0  0  0  0  0  0
   18.8419   -7.5185    7.6763 C   0  0  0  0  0  0  0  0  0  0  0  0
   19.2968   -7.9580    8.9236 C   0  0  0  0  0  0  0  0  0  0  0  0
   18.4960   -8.7981    9.7025 C   0  0  0  0  0  0  0  0  0  0  0  0
   18.9326   -9.2273   10.9141 N   0  0  0  0  0  0  0  0  0  0  0  0
   14.6968  -11.0383   10.1712 H   0  0  0  0  0  0  0  0  0  0  0  0
 17 18  1  0  0  0
 18 16  1  0  0  0
 16 10  1  0  0  0
 10 11  2  0  0  0
 11 12  1  0  0  0
 12 13  2  0  0  0
 13  6  1  0  0  0
 13 14  1  0  0  0
  6  7  1  0  0  0
  7  8  2  0  0  0
  7  5  1  0  0  0
  5  1  1  0  0  0
  1  2  1  0  0  0
  1  3  1  0  0  0
  3  4  2  0  0  0
  3 22  1  0  0  0
 22 23  1  0  0  0
 23 24  1  0  0  0
 24 25  1  0  0  0
 25 26  2  0  0  0
 26 27  1  0  0  0
 27 28  1  0  0  0
 27 29  2  0  0  0
 29 30  1  0  0  0
 30 31  2  0  0  0
 31 32  1  0  0  0
 32 33  2  0  0  0
 33 34  1  0  0  0
 34 35  2  0  0  0
 34 29  1  0  0  0
 35 25  1  0  0  0
 14 15  2  0  0  0
 15 19  1  0  0  0
 15 10  1  0  0  0
 19 20  1  0  0  0
 20 21  1  0  0  0
  6  9  1  0  0  0
 28 36  1  0  0  0
M  END
>  <minimizedAffinity>
-7.02291

>  <minimizedRMSD>
2.21796

$$$$
CHEMBL1893403 ChemDiv-G357-0527 MCULE-3236993045 MolPort-007-847-222 PubChem-16027564 ZINC000008607371


 35 38  0  0  0  0  0  0  0  0999 V2000
   17.1225   -9.9685   15.0032 C   0  0  0  0  0  0  0  0  0  0  0  0
   16.6500   -8.7177   14.5856 C   0  0  0  0  0  0  0  0  0  0  0  0
   15.9929   -7.8754   15.4865 C   0  0  0  0  0  0  0  0  0  0  0  0
   15.7976   -8.2739   16.8170 C   0  0  0  0  0  0  0  0  0  0  0  0
   16.2706   -9.5223   17.2332 C   0  0  0  0  0  0  0  0  0  0  0  0
   16.9285  -10.3658   16.3334 C   0  0  0  0  0  0  0  0  0  0  0  0
   15.1369   -7.4329   17.7721 N   0  0  0  0  0  0  0  0  0  0  0  0
   13.7275   -7.3719   18.0295 C   0  0  0  0  0  0  0  0  0  0  0  0
   12.9248   -8.1563   17.4586 O   0  0  0  0  0  0  0  0  0  0  0  0
   15.7097   -6.8361   18.3059 H   0  0  0  0  0  0  0  0  0  0  0  0
   13.2019   -6.3809   19.0122 C   0  0  0  0  0  0  0  0  0  0  0  0
   13.3260   -6.8839   20.3383 O   0  0  0  0  0  0  0  0  0  0  0  0
   14.2994   -6.4814   21.2668 C   0  0  0  0  0  0  0  0  0  0  0  0
   15.4939   -7.2112   21.2935 C   0  0  0  0  0  0  0  0  0  0  0  0
   16.5211   -6.8728   22.1763 C   0  0  0  0  0  0  0  0  0  0  0  0
   16.3616   -5.7993   23.0520 C   0  0  0  0  0  0  0  0  0  0  0  0
   15.1709   -5.0712   23.0519 C   0  0  0  0  0  0  0  0  0  0  0  0
   14.1345   -5.4015   22.1722 C   0  0  0  0  0  0  0  0  0  0  0  0
   12.8709   -4.6195   22.2800 C   0  0  0  0  0  0  0  0  0  0  0  0
   17.8159  -10.8509   14.0511 C   0  0  0  0  0  0  0  0  0  0  0  0
   18.3059  -11.9454   14.4448 O   0  0  0  0  0  0  0  0  0  0  0  0
   17.9295  -10.4701   12.7123 O   0  0  0  0  0  0  0  0  0  0  0  0
   17.1531   -9.4162   12.1621 C   0  0  0  0  0  0  0  0  0  0  0  0
   17.7234   -9.1936    7.9904 N   0  0  0  0  0  0  0  0  0  0  0  0
   18.0057   -9.0032    6.7040 N   0  0  0  0  0  0  0  0  0  0  0  0
   18.9322   -8.0304    6.5257 C   0  0  0  0  0  0  0  0  0  0  0  0
   19.4570   -7.3698    7.9987 S   0  0  0  0  0  0  0  0  0  0  0  0
   18.4169   -8.3948    8.8287 C   0  0  0  0  0  0  0  0  0  0  0  0
   18.2523   -8.4579   10.1726 N   0  0  0  0  0  0  0  0  0  0  0  0
   17.3676   -9.3553   10.6923 C   0  0  0  0  0  0  0  0  0  0  0  0
   16.6262  -10.1940    9.8436 C   0  0  0  0  0  0  0  0  0  0  0  0
   16.8257  -10.0986    8.4620 C   0  0  0  0  0  0  0  0  0  0  0  0
   16.1800  -10.8398    7.6744 O   0  0  0  0  0  0  0  0  0  0  0  0
   19.4632   -7.6428    5.1911 C   0  0  0  0  0  0  0  0  0  0  0  0
   20.9016   -7.1844    5.3228 C   0  0  0  0  0  0  0  0  0  0  0  0
 24 25  1  0  0  0
 25 26  2  0  0  0
 26 27  1  0  0  0
 27 28  1  0  0  0
 28 29  2  0  0  0
 29 30  1  0  0  0
 30 23  1  0  0  0
 23 22  1  0  0  0
 22 20  1  0  0  0
 20 21  2  0  0  0
 20  1  1  0  0  0
  1  2  2  0  0  0
  2  3  1  0  0  0
  3  4  2  0  0  0
  4  5  1  0  0  0
  5  6  2  0  0  0
  4  7  1  0  0  0
  7  8  1  0  0  0
  8 11  1  0  0  0
 11 12  1  0  0  0
 12 13  1  0  0  0
 13 14  2  0  0  0
 14 15  1  0  0  0
 15 16  2  0  0  0
 16 17  1  0  0  0
 17 18  2  0  0  0
 18 19  1  0  0  0
  8  9  2  0  0  0
 30 31  2  0  0  0
 31 32  1  0  0  0
 32 33  2  0  0  0
 26 34  1  0  0  0
 34 35  1  0  0  0
 28 24  1  0  0  0
  6  1  1  0  0  0
 18 13  1  0  0  0
 32 24  1  0  0  0
  7 10  1  0  0  0
M  END
>  <minimizedAffinity>
-7.44263

>  <minimizedRMSD>
2.21814

$$$$
CHEMBL2235550 PubChem-25108449


 30 33  0  0  0  0  0  0  0  0999 V2000
   16.5931  -10.5149   16.8703 S   0  0  0  0  0  0  0  0  0  0  0  0
   17.5701  -10.3679   15.3825 C   0  0  0  0  0  0  0  0  0  0  0  0
   18.5067   -9.4217   15.1865 N   0  0  0  0  0  0  0  0  0  0  0  0
   19.0021   -9.6390   13.9780 N   0  0  0  0  0  0  0  0  0  0  0  0
   18.3489  -10.7108   13.4922 C   0  0  0  0  0  0  0  0  0  0  0  0
   17.4648  -11.1638   14.3469 O   0  0  0  0  0  0  0  0  0  0  0  0
   18.5767  -11.2821   12.1359 C   0  0  0  0  0  0  0  0  0  0  0  0
   17.8730  -10.4883   11.1406 N   0  0  0  0  0  0  0  0  0  0  0  0
   16.5721  -10.5747   10.8824 N   0  0  0  0  0  0  0  0  0  0  0  0
   16.2086   -9.6766    9.9665 N   0  0  0  0  0  0  0  0  0  0  0  0
   17.3302   -9.0017    9.6526 C   0  0  0  0  0  0  0  0  0  0  0  0
   17.4931   -7.9487    8.7582 C   0  0  0  0  0  0  0  0  0  0  0  0
   18.7895   -7.4095    8.6349 C   0  0  0  0  0  0  0  0  0  0  0  0
   19.8636   -7.9275    9.3982 C   0  0  0  0  0  0  0  0  0  0  0  0
   19.6588   -8.9939   10.2956 C   0  0  0  0  0  0  0  0  0  0  0  0
   18.3642   -9.4996   10.3828 C   0  0  0  0  0  0  0  0  0  0  0  0
   16.5229   -8.7108   17.0869 C   0  0  0  0  0  0  0  0  0  0  0  0
   15.0853   -8.2229   17.0243 C   0  0  0  0  0  0  0  0  0  0  0  0
   15.3576   -7.8242   19.5016 N   0  0  0  0  0  0  0  0  0  0  0  0
   14.7308   -7.4752   18.2634 C   0  0  0  0  0  0  0  0  0  0  0  0
   13.9369   -6.4990   18.1954 O   0  0  0  0  0  0  0  0  0  0  0  0
   16.0811   -8.4914   19.4737 H   0  0  0  0  0  0  0  0  0  0  0  0
   17.4087   -6.5343   21.0512 C   0  0  0  0  0  0  0  0  0  0  0  0
   16.0103   -6.6534   21.5542 C   0  0  0  0  0  0  0  0  0  0  0  0
   15.6992   -6.1136   22.8049 C   0  0  0  0  0  0  0  0  0  0  0  0
   14.4014   -6.2059   23.3082 C   0  0  0  0  0  0  0  0  0  0  0  0
   13.4101   -6.8480   22.5654 C   0  0  0  0  0  0  0  0  0  0  0  0
   13.7036   -7.3880   21.3099 C   0  0  0  0  0  0  0  0  0  0  0  0
   12.6264   -8.1366   20.6015 C   0  0  0  0  0  0  0  0  0  0  0  0
   15.0103   -7.2741   20.7816 C   0  0  0  0  0  0  0  0  0  0  0  0
 23 24  1  0  0  0
 24 25  2  0  0  0
 25 26  1  0  0  0
 26 27  2  0  0  0
 27 28  1  0  0  0
 28 29  1  0  0  0
 28 30  2  0  0  0
 30 19  1  0  0  0
 30 24  1  0  0  0
 19 20  1  0  0  0
 20 21  2  0  0  0
 20 18  1  0  0  0
 18 17  1  0  0  0
 17  1  1  0  0  0
  1  2  1  0  0  0
  2  3  2  0  0  0
  3  4  1  0  0  0
  4  5  2  0  0  0
  5  7  1  0  0  0
  5  6  1  0  0  0
  7  8  1  0  0  0
  8  9  1  0  0  0
  9 10  2  0  0  0
 10 11  1  0  0  0
 11 12  2  0  0  0
 12 13  1  0  0  0
 13 14  2  0  0  0
 14 15  1  0  0  0
 15 16  2  0  0  0
 16  8  1  0  0  0
 16 11  1  0  0  0
  6  2  1  0  0  0
 19 22  1  0  0  0
M  END
>  <minimizedAffinity>
-5.54229

>  <minimizedRMSD>
2.21814

$$$$
CHEMBL2407810 MCULE-3833472822 PubChem-71765013 VOLVYDZZOSTLOJ-UHFFFAOYSA-N


 28 30  0  0  0  0  0  0  0  0999 V2000
   17.5784   -9.2510   13.3930 N   0  0  0  0  0  0  0  0  0  0  0  0
   17.6448  -10.1761   12.3040 C   0  0  0  0  0  0  0  0  0  0  0  0
   18.1248  -11.3272   12.4877 O   0  0  0  0  0  0  0  0  0  0  0  0
   17.2526   -8.3390   13.2160 H   0  0  0  0  0  0  0  0  0  0  0  0
   17.1571   -9.7847   10.9633 C   0  0  0  0  0  0  0  0  0  0  0  0
   17.8721   -9.1452   10.0193 N   0  0  0  0  0  0  0  0  0  0  0  0
   19.1578   -8.7067   10.0250 C   0  0  0  0  0  0  0  0  0  0  0  0
   19.6428   -8.0595    8.8803 C   0  0  0  0  0  0  0  0  0  0  0  0
   18.7948   -7.8840    7.7712 C   0  0  0  0  0  0  0  0  0  0  0  0
   17.4719   -8.3512    7.8065 C   0  0  0  0  0  0  0  0  0  0  0  0
   17.0444   -8.9868    8.9700 C   0  0  0  0  0  0  0  0  0  0  0  0
   15.8121   -9.4927    9.1767 N   0  0  0  0  0  0  0  0  0  0  0  0
   15.8880   -9.9932   10.4322 C   0  0  0  0  0  0  0  0  0  0  0  0
   14.7422  -10.6648   11.1071 C   0  0  0  0  0  0  0  0  0  0  0  0
   19.3032   -7.1986    6.5548 C   0  0  0  0  0  0  0  0  0  0  0  0
   17.9711   -9.5978   14.7520 C   0  0  0  0  0  0  0  0  0  0  0  0
   15.1001   -8.0907   17.5628 C   0  0  0  0  0  0  0  0  0  0  0  0
   16.1054   -8.9667   17.9872 C   0  0  0  0  0  0  0  0  0  0  0  0
   17.0440   -9.4527   17.0723 C   0  0  0  0  0  0  0  0  0  0  0  0
   16.9801   -9.0644   15.7301 C   0  0  0  0  0  0  0  0  0  0  0  0
   15.9710   -8.1939   15.3032 C   0  0  0  0  0  0  0  0  0  0  0  0
   15.0327   -7.7080   16.2184 C   0  0  0  0  0  0  0  0  0  0  0  0
   13.6961   -6.0204   18.4862 O   0  0  0  0  0  0  0  0  0  0  0  0
   13.9155   -7.4904   18.7083 S   0  0  0  0  0  0  0  0  0  0  0  0
   12.6185   -8.2257   18.5230 O   0  0  0  0  0  0  0  0  0  0  0  0
   14.4889   -7.7307   20.3204 N   0  0  0  0  0  0  0  0  0  0  0  0
   13.7972   -7.3803   20.9831 H   0  0  0  0  0  0  0  0  0  0  0  0
   15.3670   -7.2275   20.4476 H   0  0  0  0  0  0  0  0  0  0  0  0
 23 24  2  0  0  0
 24 25  2  0  0  0
 24 17  1  0  0  0
 17 18  2  0  0  0
 18 19  1  0  0  0
 19 20  2  0  0  0
 20 16  1  0  0  0
 16  1  1  0  0  0
  1  2  1  0  0  0
  2  3  2  0  0  0
  2  5  1  0  0  0
  5  6  1  0  0  0
  6  7  1  0  0  0
  7  8  2  0  0  0
  8  9  1  0  0  0
  9 10  2  0  0  0
 10 11  1  0  0  0
 11 12  2  0  0  0
 12 13  1  0  0  0
 13 14  1  0  0  0
  9 15  1  0  0  0
 20 21  1  0  0  0
 21 22  2  0  0  0
 24 26  1  0  0  0
 22 17  1  0  0  0
 13  5  2  0  0  0
 11  6  1  0  0  0
  1  4  1  0  0  0
 26 27  1  0  0  0
 26 28  1  0  0  0
M  END
>  <minimizedAffinity>
-5.47063

>  <minimizedRMSD>
2.22194

$$$$
CHEMBL2180439 PubChem-71452033


 34 38  0  0  0  0  0  0  0  0999 V2000
   17.2729   -9.9207   13.9676 C   0  0  0  0  0  0  0  0  0  0  0  0
   16.3515   -9.0472   14.4537 N   0  0  0  0  0  0  0  0  0  0  0  0
   16.0872   -8.9739   15.7858 C   0  0  0  0  0  0  0  0  0  0  0  0
   16.7774   -9.8067   16.6702 C   0  0  0  0  0  0  0  0  0  0  0  0
   17.7265  -10.6978   16.1590 C   0  0  0  0  0  0  0  0  0  0  0  0
   17.9534  -10.7328   14.8178 N   0  0  0  0  0  0  0  0  0  0  0  0
   18.4573  -11.5679   17.0341 N   0  0  0  0  0  0  0  0  0  0  0  0
   18.9347  -12.8742   16.6304 C   0  0  0  0  0  0  0  0  0  0  0  0
   19.7550  -13.3891   17.7975 C   0  0  0  0  0  0  0  0  0  0  0  0
   19.4430  -12.4807   18.9788 C   0  0  0  0  0  0  0  0  0  0  0  0
   18.7943  -11.2361   18.4041 C   0  0  0  0  0  0  0  0  0  0  0  0
   15.0857   -8.0202   16.2854 C   0  0  0  0  0  0  0  0  0  0  0  0
   14.5724   -7.1813   15.4962 O   0  0  0  0  0  0  0  0  0  0  0  0
   14.6897   -8.0481   17.6601 N   0  0  0  0  0  0  0  0  0  0  0  0
   15.0482   -8.7585   18.2398 H   0  0  0  0  0  0  0  0  0  0  0  0
   13.7775   -7.0687   18.2386 C   0  0  0  0  0  0  0  0  0  0  0  0
   14.1919   -6.6957   19.6594 C   0  0  0  0  0  0  0  0  0  0  0  0
   14.9570   -7.8148   20.3328 C   0  0  0  0  0  0  0  0  0  0  0  0
   14.3706   -7.8764   21.7099 C   0  0  0  0  0  0  0  0  0  0  0  0
   13.4248   -6.7006   21.7527 C   0  0  0  0  0  0  0  0  0  0  0  0
   13.0684   -6.3726   20.4370 O   0  0  0  0  0  0  0  0  0  0  0  0
   17.5539   -9.9790   12.5069 C   0  0  0  0  0  0  0  0  0  0  0  0
   16.6015   -9.0678   11.7529 C   0  0  0  0  0  0  0  0  0  0  0  0
   15.0703  -10.6534    9.7637 C   0  0  0  0  0  0  0  0  0  0  0  0
   16.2341   -9.8124    9.3608 C   0  0  0  0  0  0  0  0  0  0  0  0
   16.6053   -9.7806    8.0529 N   0  0  0  0  0  0  0  0  0  0  0  0
   17.6593   -9.0320    7.6381 C   0  0  0  0  0  0  0  0  0  0  0  0
   18.0294   -9.0095    6.2908 C   0  0  0  0  0  0  0  0  0  0  0  0
   19.1195   -8.2339    5.8820 C   0  0  0  0  0  0  0  0  0  0  0  0
   19.8391   -7.4821    6.8183 C   0  0  0  0  0  0  0  0  0  0  0  0
   19.4721   -7.5019    8.1682 C   0  0  0  0  0  0  0  0  0  0  0  0
   18.3834   -8.2749    8.5805 C   0  0  0  0  0  0  0  0  0  0  0  0
   18.0135   -8.3062    9.8863 N   0  0  0  0  0  0  0  0  0  0  0  0
   16.9536   -9.0515   10.3021 C   0  0  0  0  0  0  0  0  0  0  0  0
 24 25  1  0  0  0
 25 26  2  0  0  0
 26 27  1  0  0  0
 27 28  2  0  0  0
 28 29  1  0  0  0
 29 30  2  0  0  0
 30 31  1  0  0  0
 31 32  2  0  0  0
 32 33  1  0  0  0
 32 27  1  0  0  0
 33 34  2  0  0  0
 34 23  1  0  0  0
 34 25  1  0  0  0
 23 22  1  0  0  0
 22  1  1  0  0  0
  1  2  2  0  0  0
  2  3  1  0  0  0
  3 12  1  0  0  0
  3  4  2  0  0  0
 12 13  2  0  0  0
 12 14  1  0  0  0
 14 16  1  0  0  0
 17 16  1  0  0  0
 17 18  1  0  0  0
 18 19  1  0  0  0
 19 20  1  0  0  0
 20 21  1  0  0  0
 21 17  1  0  0  0
  4  5  1  0  0  0
  5  7  1  0  0  0
  5  6  2  0  0  0
  7  8  1  0  0  0
  8  9  1  0  0  0
  9 10  1  0  0  0
 10 11  1  0  0  0
 11  7  1  0  0  0
  6  1  1  0  0  0
 14 15  1  0  0  0
M  END
>  <minimizedAffinity>
1.02306

>  <minimizedRMSD>
2.22343

$$$$
CHEMBL4238467 PubChem-145985205


 37 40  0  0  0  0  0  0  0  0999 V2000
   17.4659  -11.0502   13.1180 C   0  0  0  0  0  0  0  0  0  0  0  0
   17.9667  -12.3577   13.1021 C   0  0  0  0  0  0  0  0  0  0  0  0
   18.5635  -12.9013   14.2442 C   0  0  0  0  0  0  0  0  0  0  0  0
   18.6608  -12.1391   15.4113 C   0  0  0  0  0  0  0  0  0  0  0  0
   18.1693  -10.8274   15.4425 C   0  0  0  0  0  0  0  0  0  0  0  0
   17.5658  -10.2925   14.2938 C   0  0  0  0  0  0  0  0  0  0  0  0
   16.8397  -10.5333   11.9361 N   0  0  0  0  0  0  0  0  0  0  0  0
   15.8610   -9.4855   11.8732 C   0  0  0  0  0  0  0  0  0  0  0  0
   15.5048   -8.8625   12.9084 O   0  0  0  0  0  0  0  0  0  0  0  0
   17.1086  -10.9386   11.0801 H   0  0  0  0  0  0  0  0  0  0  0  0
   15.2423   -9.1330   10.5634 C   0  0  0  0  0  0  0  0  0  0  0  0
   16.1540   -9.4376    9.4693 N   0  0  0  0  0  0  0  0  0  0  0  0
   16.0294  -10.4462    8.5735 C   0  0  0  0  0  0  0  0  0  0  0  0
   17.0555  -10.4716    7.6786 N   0  0  0  0  0  0  0  0  0  0  0  0
   17.8279   -9.4344    8.0544 C   0  0  0  0  0  0  0  0  0  0  0  0
   17.2885   -8.8085    9.1368 C   0  0  0  0  0  0  0  0  0  0  0  0
   17.8944   -7.7074    9.7423 C   0  0  0  0  0  0  0  0  0  0  0  0
   19.1027   -7.2503    9.1821 C   0  0  0  0  0  0  0  0  0  0  0  0
   19.6618   -7.8962    8.0560 C   0  0  0  0  0  0  0  0  0  0  0  0
   19.0214   -9.0088    7.4757 C   0  0  0  0  0  0  0  0  0  0  0  0
   18.2506  -10.0523   16.7277 C   0  0  0  0  0  0  0  0  0  0  0  0
   16.9323   -9.7331   17.2776 N   0  0  0  0  0  0  0  0  0  0  0  0
   16.0834   -8.6595   16.8570 C   0  0  0  0  0  0  0  0  0  0  0  0
   16.4411   -7.8834   15.9304 O   0  0  0  0  0  0  0  0  0  0  0  0
   16.5987  -10.3092   18.0029 H   0  0  0  0  0  0  0  0  0  0  0  0
   14.8511   -8.4838   17.4886 O   0  0  0  0  0  0  0  0  0  0  0  0
   14.2913   -7.1979   17.7247 C   0  0  0  0  0  0  0  0  0  0  0  0
   13.8782   -7.0717   19.1502 C   0  0  0  0  0  0  0  0  0  0  0  0
   12.7973   -6.2521   19.4983 C   0  0  0  0  0  0  0  0  0  0  0  0
   12.4336   -6.1092   20.8391 C   0  0  0  0  0  0  0  0  0  0  0  0
   13.1512   -6.7819   21.8345 C   0  0  0  0  0  0  0  0  0  0  0  0
   14.2332   -7.5977   21.4885 C   0  0  0  0  0  0  0  0  0  0  0  0
   14.5983   -7.7411   20.1469 C   0  0  0  0  0  0  0  0  0  0  0  0
   19.1657   -8.8632   16.6870 C   0  0  0  0  0  0  0  0  0  0  0  0
   19.9338   -8.6688   15.7076 O   0  0  0  0  0  0  0  0  0  0  0  0
   19.1912   -7.9833   17.7603 O   0  0  0  0  0  0  0  0  0  0  0  0
   18.6231   -8.1209   18.4926 H   0  0  0  0  0  0  0  0  0  0  0  0
  1  2  2  0  0  0
  2  3  1  0  0  0
  3  4  2  0  0  0
  4  5  1  0  0  0
  5  6  2  0  0  0
  5 21  1  0  0  0
 21 22  1  0  0  0
 22 23  1  0  0  0
 23 24  2  0  0  0
 23 26  1  0  0  0
 26 27  1  0  0  0
 27 28  1  0  0  0
 28 29  2  0  0  0
 29 30  1  0  0  0
 30 31  2  0  0  0
 31 32  1  0  0  0
 32 33  2  0  0  0
 21 34  1  0  0  0
 34 35  2  0  0  0
 34 36  1  0  0  0
  1  7  1  0  0  0
  7  8  1  0  0  0
  8  9  2  0  0  0
  8 11  1  0  0  0
 11 12  1  0  0  0
 12 13  1  0  0  0
 13 14  2  0  0  0
 14 15  1  0  0  0
 15 16  2  0  0  0
 16 17  1  0  0  0
 17 18  2  0  0  0
 18 19  1  0  0  0
 19 20  2  0  0  0
  6  1  1  0  0  0
 33 28  1  0  0  0
 16 12  1  0  0  0
 20 15  1  0  0  0
 22 25  1  0  0  0
 36 37  1  0  0  0
  7 10  1  0  0  0
M  END
>  <minimizedAffinity>
-4.69640

>  <minimizedRMSD>
2.22495

$$$$
CHEMBL4787903 PubChem-151924623 PubChem-160177248


 35 38  0  0  0  0  0  0  0  0999 V2000
   17.6098   -9.9789   12.9726 C   0  0  0  0  0  0  0  0  0  0  0  0
   18.8064  -10.3592   12.8484 O   0  0  0  0  0  0  0  0  0  0  0  0
   16.7625   -9.9569   11.8110 N   0  0  0  0  0  0  0  0  0  0  0  0
   15.3137  -10.0196   11.8530 C   0  0  0  0  0  0  0  0  0  0  0  0
   14.8472  -10.0040   10.4095 C   0  0  0  0  0  0  0  0  0  0  0  0
   16.0955  -10.1651    9.5499 C   0  0  0  0  0  0  0  0  0  0  0  0
   17.2983  -10.0320   10.4669 C   0  0  0  0  0  0  0  0  0  0  0  0
   16.0715   -7.9328   15.7755 C   0  0  0  0  0  0  0  0  0  0  0  0
   16.4939   -8.3238   14.5024 C   0  0  0  0  0  0  0  0  0  0  0  0
   17.1304   -9.5582   14.3101 C   0  0  0  0  0  0  0  0  0  0  0  0
   17.3527  -10.3854   15.4208 C   0  0  0  0  0  0  0  0  0  0  0  0
   16.9303   -9.9945   16.6946 C   0  0  0  0  0  0  0  0  0  0  0  0
   16.2854   -8.7684   16.8807 C   0  0  0  0  0  0  0  0  0  0  0  0
   15.8648   -8.4033   18.2022 N   0  0  0  0  0  0  0  0  0  0  0  0
   14.7036   -7.6349   18.5541 C   0  0  0  0  0  0  0  0  0  0  0  0
   13.9233   -7.1975   17.6678 O   0  0  0  0  0  0  0  0  0  0  0  0
   16.4313   -8.7117   18.9460 H   0  0  0  0  0  0  0  0  0  0  0  0
   14.4062   -7.3476   19.9599 C   0  0  0  0  0  0  0  0  0  0  0  0
   15.3564   -7.3284   20.8874 C   0  0  0  0  0  0  0  0  0  0  0  0
   15.0311   -7.0353   22.3271 C   0  0  0  0  0  0  0  0  0  0  0  0
   16.1900   -6.6460   23.1434 N   0  0  0  0  0  0  0  0  0  0  0  0
   17.3432   -6.3872   22.2942 C   0  0  0  0  0  0  0  0  0  0  0  0
   15.8946   -5.4355   23.8972 C   0  0  0  0  0  0  0  0  0  0  0  0
   16.1329   -9.1699    8.4808 N   0  0  0  0  0  0  0  0  0  0  0  0
   15.2712   -8.8288    8.1485 H   0  0  0  0  0  0  0  0  0  0  0  0
   17.3248   -8.6513    7.8776 C   0  0  0  0  0  0  0  0  0  0  0  0
   17.5280   -8.8275    6.5443 N   0  0  0  0  0  0  0  0  0  0  0  0
   18.6458   -8.3488    5.9399 C   0  0  0  0  0  0  0  0  0  0  0  0
   19.6110   -7.6602    6.6993 C   0  0  0  0  0  0  0  0  0  0  0  0
   19.3850   -7.4901    8.0620 C   0  0  0  0  0  0  0  0  0  0  0  0
   18.2517   -7.9863    8.6234 N   0  0  0  0  0  0  0  0  0  0  0  0
   20.7646   -7.1632    6.0882 C   0  0  0  0  0  0  0  0  0  0  0  0
   20.9580   -7.3523    4.7155 C   0  0  0  0  0  0  0  0  0  0  0  0
   20.0001   -8.0362    3.9577 C   0  0  0  0  0  0  0  0  0  0  0  0
   18.8441   -8.5346    4.5687 C   0  0  0  0  0  0  0  0  0  0  0  0
  8  9  2  0  0  0
  9 10  1  0  0  0
 10 11  2  0  0  0
 11 12  1  0  0  0
 12 13  2  0  0  0
 13 14  1  0  0  0
 14 15  1  0  0  0
 15 16  2  0  0  0
 15 18  1  0  0  0
 18 19  2  0  0  0
 19 20  1  0  0  0
 20 21  1  0  0  0
 21 22  1  0  0  0
 21 23  1  0  0  0
 10  1  1  0  0  0
  1  2  2  0  0  0
  1  3  1  0  0  0
  3  4  1  0  0  0
  4  5  1  0  0  0
  5  6  1  0  0  0
  6  7  1  0  0  0
  6 24  1  0  0  0
 24 26  1  0  0  0
 26 27  2  0  0  0
 27 28  1  0  0  0
 28 29  2  0  0  0
 29 30  1  0  0  0
 30 31  2  0  0  0
 29 32  1  0  0  0
 32 33  2  0  0  0
 33 34  1  0  0  0
 34 35  2  0  0  0
 13  8  1  0  0  0
  7  3  1  0  0  0
 31 26  1  0  0  0
 35 28  1  0  0  0
 14 17  1  0  0  0
 24 25  1  0  0  0
M  END
>  <minimizedAffinity>
-9.61123

>  <minimizedRMSD>
2.22624

$$$$
CHEMBL3899514 PubChem-132961629


 38 41  0  0  0  0  0  0  0  0999 V2000
   17.3535   -9.4102   15.2983 C   0  0  0  0  0  0  0  0  0  0  0  0
   16.3992   -8.3874   15.2821 C   0  0  0  0  0  0  0  0  0  0  0  0
   15.7390   -8.0173   16.4570 C   0  0  0  0  0  0  0  0  0  0  0  0
   16.0309   -8.6669   17.6602 C   0  0  0  0  0  0  0  0  0  0  0  0
   16.9834   -9.6904   17.6836 C   0  0  0  0  0  0  0  0  0  0  0  0
   17.6421  -10.0600   16.5080 C   0  0  0  0  0  0  0  0  0  0  0  0
   17.6580   -9.3217   12.7551 C   0  0  0  0  0  0  0  0  0  0  0  0
   16.6978   -8.5290   12.5647 O   0  0  0  0  0  0  0  0  0  0  0  0
   18.0129   -9.7579   14.0737 N   0  0  0  0  0  0  0  0  0  0  0  0
   18.7897  -10.3583   14.1457 H   0  0  0  0  0  0  0  0  0  0  0  0
   18.4210   -9.8413   11.5834 C   0  0  0  0  0  0  0  0  0  0  0  0
   19.9402   -7.5742    8.3203 C   0  0  0  0  0  0  0  0  0  0  0  0
   19.1708   -7.3999    7.1672 C   0  0  0  0  0  0  0  0  0  0  0  0
   17.9014   -7.9762    7.0786 C   0  0  0  0  0  0  0  0  0  0  0  0
   17.3977   -8.7278    8.1440 C   0  0  0  0  0  0  0  0  0  0  0  0
   18.1657   -8.9102    9.3157 C   0  0  0  0  0  0  0  0  0  0  0  0
   19.4423   -8.3250    9.3887 C   0  0  0  0  0  0  0  0  0  0  0  0
   17.6525   -9.6528   10.3493 N   0  0  0  0  0  0  0  0  0  0  0  0
   16.4077  -10.2163   10.2410 C   0  0  0  0  0  0  0  0  0  0  0  0
   15.9348  -10.9078   11.1861 O   0  0  0  0  0  0  0  0  0  0  0  0
   15.6547  -10.0270    9.0714 C   0  0  0  0  0  0  0  0  0  0  0  0
   16.1672   -9.2885    8.0555 N   0  0  0  0  0  0  0  0  0  0  0  0
   14.2968  -10.6242    8.9223 C   0  0  0  0  0  0  0  0  0  0  0  0
   15.1964   -8.2032   19.1320 S   0  0  0  0  0  0  0  0  0  0  0  0
   15.3789   -9.2823   20.1608 O   0  0  0  0  0  0  0  0  0  0  0  0
   15.7564   -6.9143   19.6654 O   0  0  0  0  0  0  0  0  0  0  0  0
   13.5067   -7.9977   18.8140 N   0  0  0  0  0  0  0  0  0  0  0  0
   12.7851   -6.8349   19.2209 C   0  0  0  0  0  0  0  0  0  0  0  0
   13.3715   -5.9023   19.8349 O   0  0  0  0  0  0  0  0  0  0  0  0
   11.3921   -6.7369   18.9206 N   0  0  0  0  0  0  0  0  0  0  0  0
   13.0252   -8.7099   18.3342 H   0  0  0  0  0  0  0  0  0  0  0  0
   10.9639   -7.4724   18.4258 H   0  0  0  0  0  0  0  0  0  0  0  0
   10.5785   -5.5957   19.3147 C   0  0  0  0  0  0  0  0  0  0  0  0
   10.1639   -5.7557   20.7837 C   0  0  0  0  0  0  0  0  0  0  0  0
    9.8684   -4.4032   21.4256 C   0  0  0  0  0  0  0  0  0  0  0  0
   11.1102   -3.5012   21.4257 C   0  0  0  0  0  0  0  0  0  0  0  0
   12.0771   -3.7858   20.2681 C   0  0  0  0  0  0  0  0  0  0  0  0
   11.3302   -4.2823   19.0331 C   0  0  0  0  0  0  0  0  0  0  0  0
 12 13  2  0  0  0
 13 14  1  0  0  0
 14 15  2  0  0  0
 15 16  1  0  0  0
 16 17  2  0  0  0
 16 18  1  0  0  0
 18 19  1  0  0  0
 19 20  2  0  0  0
 19 21  1  0  0  0
 21 22  2  0  0  0
 21 23  1  0  0  0
 18 11  1  0  0  0
 11  7  1  0  0  0
  7  8  2  0  0  0
  7  9  1  0  0  0
  9  1  1  0  0  0
  1  2  2  0  0  0
  2  3  1  0  0  0
  3  4  2  0  0  0
  4  5  1  0  0  0
  5  6  2  0  0  0
  4 24  1  0  0  0
 24 25  2  0  0  0
 24 26  2  0  0  0
 24 27  1  0  0  0
 27 28  1  0  0  0
 28 29  2  0  0  0
 28 30  1  0  0  0
 30 33  1  0  0  0
 33 34  1  0  0  0
 34 35  1  0  0  0
 35 36  1  0  0  0
 36 37  1  0  0  0
 37 38  1  0  0  0
 17 12  1  0  0  0
  6  1  1  0  0  0
 38 33  1  0  0  0
 22 15  1  0  0  0
  9 10  1  0  0  0
 27 31  1  0  0  0
 30 32  1  0  0  0
M  END
>  <minimizedAffinity>
-0.58235

>  <minimizedRMSD>
2.22629

$$$$
CHEMBL3985188 PubChem-73775925


 34 38  0  0  0  0  0  0  0  0999 V2000
   19.6094  -11.6806   11.0295 C   0  0  0  0  0  0  0  0  0  0  0  0
   18.2666  -10.9724   11.0846 C   0  0  0  0  0  0  0  0  0  0  0  0
   18.1758   -9.9227   10.0163 C   0  0  0  0  0  0  0  0  0  0  0  0
   19.3280   -9.4628    9.4451 N   0  0  0  0  0  0  0  0  0  0  0  0
   19.2556   -8.5457    8.4878 N   0  0  0  0  0  0  0  0  0  0  0  0
   20.2693   -7.9832    7.8195 C   0  0  0  0  0  0  0  0  0  0  0  0
   19.7200   -7.0801    6.9121 C   0  0  0  0  0  0  0  0  0  0  0  0
   18.3294   -7.1137    7.0533 C   0  0  0  0  0  0  0  0  0  0  0  0
   18.1059   -8.0439    8.0463 C   0  0  0  0  0  0  0  0  0  0  0  0
   16.9090   -8.4775    8.6028 C   0  0  0  0  0  0  0  0  0  0  0  0
   15.8118   -7.9963    8.2052 O   0  0  0  0  0  0  0  0  0  0  0  0
   16.9551   -9.4243    9.6002 N   0  0  0  0  0  0  0  0  0  0  0  0
   15.7307   -9.8813   10.2088 C   0  0  0  0  0  0  0  0  0  0  0  0
   14.6837  -10.3690    9.4124 C   0  0  0  0  0  0  0  0  0  0  0  0
   13.4961  -10.8103   10.0028 C   0  0  0  0  0  0  0  0  0  0  0  0
   13.3467  -10.7655   11.3918 C   0  0  0  0  0  0  0  0  0  0  0  0
   14.3840  -10.2780   12.1915 C   0  0  0  0  0  0  0  0  0  0  0  0
   15.5717   -9.8359   11.6026 C   0  0  0  0  0  0  0  0  0  0  0  0
   18.0676  -10.3644   12.3915 N   0  0  0  0  0  0  0  0  0  0  0  0
   17.9450   -9.3888   12.4408 H   0  0  0  0  0  0  0  0  0  0  0  0
   18.0416  -11.1167   13.6082 C   0  0  0  0  0  0  0  0  0  0  0  0
   18.4204  -12.4232   13.5960 N   0  0  0  0  0  0  0  0  0  0  0  0
   18.4430  -13.1631   14.7310 C   0  0  0  0  0  0  0  0  0  0  0  0
   18.0857  -12.6033   15.9121 N   0  0  0  0  0  0  0  0  0  0  0  0
   17.6994  -11.3041   15.9882 C   0  0  0  0  0  0  0  0  0  0  0  0
   17.6560  -10.5098   14.8230 C   0  0  0  0  0  0  0  0  0  0  0  0
   17.3058  -10.7790   17.2534 N   0  0  0  0  0  0  0  0  0  0  0  0
   17.3428  -11.3483   18.0557 H   0  0  0  0  0  0  0  0  0  0  0  0
   16.9969   -9.8469   17.3249 H   0  0  0  0  0  0  0  0  0  0  0  0
   17.2257   -9.0887   14.8849 C   0  0  0  0  0  0  0  0  0  0  0  0
   17.7883   -8.1703   15.6986 N   0  0  0  0  0  0  0  0  0  0  0  0
   17.2025   -6.9461   15.5920 C   0  0  0  0  0  0  0  0  0  0  0  0
   16.1458   -6.8620   14.6869 C   0  0  0  0  0  0  0  0  0  0  0  0
   15.9662   -8.3941   14.0156 S   0  0  0  0  0  0  0  0  0  0  0  0
  2  1  1  0  0  0
  2  3  1  0  0  0
  2 19  1  0  0  0
  3  4  2  0  0  0
  4  5  1  0  0  0
  5  6  1  0  0  0
  6  7  2  0  0  0
  7  8  1  0  0  0
  8  9  2  0  0  0
  9 10  1  0  0  0
  9  5  1  0  0  0
 10 11  2  0  0  0
 10 12  1  0  0  0
 12 13  1  0  0  0
 12  3  1  0  0  0
 13 14  2  0  0  0
 14 15  1  0  0  0
 15 16  2  0  0  0
 16 17  1  0  0  0
 17 18  2  0  0  0
 18 13  1  0  0  0
 19 21  1  0  0  0
 21 22  2  0  0  0
 22 23  1  0  0  0
 23 24  2  0  0  0
 24 25  1  0  0  0
 25 26  2  0  0  0
 25 27  1  0  0  0
 26 30  1  0  0  0
 26 21  1  0  0  0
 30 31  2  0  0  0
 31 32  1  0  0  0
 32 33  2  0  0  0
 33 34  1  0  0  0
 34 30  1  0  0  0
 19 20  1  0  0  0
 27 28  1  0  0  0
 27 29  1  0  0  0
M  END
>  <minimizedAffinity>
6.73985

>  <minimizedRMSD>
2.22960

$$$$
CHEMBL4784521 PubChem-162665911


 31 32  0  0  0  0  0  0  0  0999 V2000
   16.7657   -9.5965   12.2902 C   0  0  0  0  0  0  0  0  0  0  0  0
   16.9936   -9.3327   11.0042 C   0  0  0  0  0  0  0  0  0  0  0  0
   15.3719   -9.6832   12.8238 C   0  0  0  0  0  0  0  0  0  0  0  0
   15.9761   -8.9362   15.1657 C   0  0  0  0  0  0  0  0  0  0  0  0
   16.3959   -7.8246   14.7421 O   0  0  0  0  0  0  0  0  0  0  0  0
   15.3921   -9.8798   14.2662 N   0  0  0  0  0  0  0  0  0  0  0  0
   14.9866  -10.6968   14.6370 H   0  0  0  0  0  0  0  0  0  0  0  0
   16.1053   -9.2953   16.6179 C   0  0  0  0  0  0  0  0  0  0  0  0
   15.2466   -8.4236   17.5409 C   0  0  0  0  0  0  0  0  0  0  0  0
   14.8496   -7.2598   16.8812 O   0  0  0  0  0  0  0  0  0  0  0  0
   15.9489   -8.0671   18.8420 C   0  0  0  0  0  0  0  0  0  0  0  0
   15.6325   -6.7352   16.6515 H   0  0  0  0  0  0  0  0  0  0  0  0
   17.5017   -9.2664   17.0330 N   0  0  0  0  0  0  0  0  0  0  0  0
   17.5681   -8.9961   18.0143 H   0  0  0  0  0  0  0  0  0  0  0  0
   18.0392  -10.6088   16.8485 C   0  0  0  0  0  0  0  0  0  0  0  0
   18.6245  -10.7975   15.4761 C   0  0  0  0  0  0  0  0  0  0  0  0
   19.3798   -9.8816   14.8683 C   0  0  0  0  0  0  0  0  0  0  0  0
   18.3901   -9.2407   10.4736 C   0  0  0  0  0  0  0  0  0  0  0  0
   18.3842   -9.0146    9.0317 N   0  0  0  0  0  0  0  0  0  0  0  0
   17.4059   -9.6049    8.2915 C   0  0  0  0  0  0  0  0  0  0  0  0
   17.3521   -9.4250    6.9469 N   0  0  0  0  0  0  0  0  0  0  0  0
   18.2688   -8.6546    6.3108 C   0  0  0  0  0  0  0  0  0  0  0  0
   18.1986   -8.4820    4.9267 C   0  0  0  0  0  0  0  0  0  0  0  0
   19.1424   -7.6896    4.2662 C   0  0  0  0  0  0  0  0  0  0  0  0
   20.1667   -7.0630    4.9984 C   0  0  0  0  0  0  0  0  0  0  0  0
   20.2375   -7.2349    6.3840 C   0  0  0  0  0  0  0  0  0  0  0  0
   19.2926   -8.0292    7.0473 C   0  0  0  0  0  0  0  0  0  0  0  0
   19.3315   -8.2281    8.4347 C   0  0  0  0  0  0  0  0  0  0  0  0
   20.2378   -7.6860    9.1281 O   0  0  0  0  0  0  0  0  0  0  0  0
   21.3738   -6.0590    4.2131 Cl  0  0  0  0  0  0  0  0  0  0  0  0
   19.0115   -7.5006    2.5254 Cl  0  0  0  0  0  0  0  0  0  0  0  0
  9  8  1  0  0  0
  8  4  1  0  0  0
  4  5  2  0  0  0
  4  6  1  0  0  0
  6  3  1  0  0  0
  3  1  1  0  0  0
  1  2  2  0  0  0
  2 18  1  0  0  0
 18 19  1  0  0  0
 19 20  1  0  0  0
 20 21  2  0  0  0
 21 22  1  0  0  0
 22 23  2  0  0  0
 23 24  1  0  0  0
 24 25  2  0  0  0
 25 26  1  0  0  0
 26 27  2  0  0  0
 27 28  1  0  0  0
 28 29  2  0  0  0
 25 30  1  0  0  0
 24 31  1  0  0  0
  8 13  1  0  0  0
 13 15  1  0  0  0
 15 16  1  0  0  0
 16 17  2  0  0  0
  9 10  1  0  0  0
  9 11  1  0  0  0
 28 19  1  0  0  0
 27 22  1  0  0  0
  6  7  1  0  0  0
 13 14  1  0  0  0
 10 12  1  0  0  0
M  END
>  <minimizedAffinity>
-6.09134

>  <minimizedRMSD>
2.23290

$$$$
CHEMBL247972 PubChem-44440372


 36 40  0  0  0  0  0  0  0  0999 V2000
   18.8398  -11.1381   13.0740 C   0  0  0  0  0  0  0  0  0  0  0  0
   19.3733  -10.1821   13.9428 C   0  0  0  0  0  0  0  0  0  0  0  0
   19.1307  -10.2638   15.3162 C   0  0  0  0  0  0  0  0  0  0  0  0
   18.3487  -11.2993   15.8384 C   0  0  0  0  0  0  0  0  0  0  0  0
   17.8266  -12.2666   14.9685 C   0  0  0  0  0  0  0  0  0  0  0  0
   18.0685  -12.1878   13.5963 C   0  0  0  0  0  0  0  0  0  0  0  0
   18.1028  -11.3294   17.2522 N   0  0  0  0  0  0  0  0  0  0  0  0
   16.9557  -10.8412   17.9617 C   0  0  0  0  0  0  0  0  0  0  0  0
   16.9322  -10.9519   19.2170 O   0  0  0  0  0  0  0  0  0  0  0  0
   18.8097  -11.7359   17.8039 H   0  0  0  0  0  0  0  0  0  0  0  0
   15.8241  -10.1364   17.2546 C   0  0  0  0  0  0  0  0  0  0  0  0
   14.5775  -10.1027   18.1288 C   0  0  0  0  0  0  0  0  0  0  0  0
   14.3858   -8.6663   18.5951 C   0  0  0  0  0  0  0  0  0  0  0  0
   15.5372   -7.8499   18.0336 C   0  0  0  0  0  0  0  0  0  0  0  0
   16.1058   -8.6733   16.8978 C   0  0  0  0  0  0  0  0  0  0  0  0
   15.4234   -8.3427   15.6520 N   0  0  0  0  0  0  0  0  0  0  0  0
   16.4193   -7.9142   14.7331 C   0  0  0  0  0  0  0  0  0  0  0  0
   16.1555   -7.5971   13.5457 O   0  0  0  0  0  0  0  0  0  0  0  0
   17.7341   -7.8872   15.2596 N   0  0  0  0  0  0  0  0  0  0  0  0
   17.5389   -8.3269   16.5946 C   0  0  0  0  0  0  0  0  0  0  0  0
   18.4779   -8.3705   17.4326 O   0  0  0  0  0  0  0  0  0  0  0  0
   14.4560   -8.4047   15.4800 H   0  0  0  0  0  0  0  0  0  0  0  0
   18.5720   -7.6285   14.8121 H   0  0  0  0  0  0  0  0  0  0  0  0
   19.0742  -11.0126   11.7022 O   0  0  0  0  0  0  0  0  0  0  0  0
   19.2221   -9.7553   11.0512 C   0  0  0  0  0  0  0  0  0  0  0  0
   14.3899  -10.3389    9.9618 C   0  0  0  0  0  0  0  0  0  0  0  0
   15.7290   -9.8018    9.6058 C   0  0  0  0  0  0  0  0  0  0  0  0
   16.8117  -10.0128   10.4623 C   0  0  0  0  0  0  0  0  0  0  0  0
   18.0729   -9.5147   10.1239 C   0  0  0  0  0  0  0  0  0  0  0  0
   18.2333   -8.8064    8.9194 C   0  0  0  0  0  0  0  0  0  0  0  0
   19.4755   -8.2847    8.5307 C   0  0  0  0  0  0  0  0  0  0  0  0
   19.5968   -7.5778    7.3313 C   0  0  0  0  0  0  0  0  0  0  0  0
   18.4808   -7.3872    6.5115 C   0  0  0  0  0  0  0  0  0  0  0  0
   17.2383   -7.9034    6.8866 C   0  0  0  0  0  0  0  0  0  0  0  0
   17.1072   -8.6120    8.0843 C   0  0  0  0  0  0  0  0  0  0  0  0
   15.8962   -9.1115    8.4464 N   0  0  0  0  0  0  0  0  0  0  0  0
 26 27  1  0  0  0
 27 28  2  0  0  0
 28 29  1  0  0  0
 29 25  1  0  0  0
 29 30  2  0  0  0
 25 24  1  0  0  0
 24  1  1  0  0  0
  1  2  2  0  0  0
  2  3  1  0  0  0
  3  4  2  0  0  0
  4  7  1  0  0  0
  4  5  1  0  0  0
  7  8  1  0  0  0
  8  9  2  0  0  0
 11  8  1  0  0  0
 11 12  1  0  0  0
 12 13  1  0  0  0
 13 14  1  0  0  0
 15 14  1  0  0  0
 15 16  1  0  0  0
 15 11  1  0  0  0
 16 17  1  0  0  0
 17 18  2  0  0  0
 17 19  1  0  0  0
 19 20  1  0  0  0
 20 21  2  0  0  0
 20 15  1  0  0  0
  5  6  2  0  0  0
  6  1  1  0  0  0
 30 31  1  0  0  0
 31 32  2  0  0  0
 32 33  1  0  0  0
 33 34  2  0  0  0
 34 35  1  0  0  0
 35 36  2  0  0  0
 35 30  1  0  0  0
 36 27  1  0  0  0
  7 10  1  0  0  0
 16 22  1  0  0  0
 19 23  1  0  0  0
M  END
>  <minimizedAffinity>
6.33625

>  <minimizedRMSD>
2.23368

$$$$
CHEMBL196753 PubChem-44405566


 39 43  0  0  0  0  0  0  0  0999 V2000
   15.8430   -8.5756   15.2529 C   0  0  0  0  0  0  0  0  0  0  0  0
   16.5311   -7.5619   14.9483 O   0  0  0  0  0  0  0  0  0  0  0  0
   16.0361   -9.8586   14.4926 C   0  0  0  0  0  0  0  0  0  0  0  0
   16.9292  -10.7699   15.3180 C   0  0  0  0  0  0  0  0  0  0  0  0
   16.2299  -12.0746   15.7021 C   0  0  0  0  0  0  0  0  0  0  0  0
   14.7898  -11.9081   16.1950 C   0  0  0  0  0  0  0  0  0  0  0  0
   14.6441  -10.8172   17.2449 C   0  0  0  0  0  0  0  0  0  0  0  0
   13.9763   -9.6035   16.6102 C   0  0  0  0  0  0  0  0  0  0  0  0
   14.9502   -8.5215   16.3825 N   0  0  0  0  0  0  0  0  0  0  0  0
   15.0361   -7.3748   17.3014 C   0  0  0  0  0  0  0  0  0  0  0  0
   13.7396   -7.1933   18.0974 C   0  0  0  0  0  0  0  0  0  0  0  0
   13.2943   -8.4262   18.5948 O   0  0  0  0  0  0  0  0  0  0  0  0
   12.8122   -9.1257   17.4797 C   0  0  0  0  0  0  0  0  0  0  0  0
   16.2149   -7.5181   18.2108 C   0  0  0  0  0  0  0  0  0  0  0  0
   17.2426   -8.1158   17.7946 O   0  0  0  0  0  0  0  0  0  0  0  0
   16.1608   -6.9986   19.5463 N   0  0  0  0  0  0  0  0  0  0  0  0
   15.3498   -6.5069   19.8105 H   0  0  0  0  0  0  0  0  0  0  0  0
   17.2168   -7.1434   20.5442 C   0  0  0  0  0  0  0  0  0  0  0  0
   16.7806   -6.5764   21.9040 C   0  0  0  0  0  0  0  0  0  0  0  0
   17.7754   -5.6356   22.2622 O   0  0  0  0  0  0  0  0  0  0  0  0
   18.7334   -5.5228   21.2802 C   0  0  0  0  0  0  0  0  0  0  0  0
   19.7164   -4.7433   21.3718 O   0  0  0  0  0  0  0  0  0  0  0  0
   18.4824   -6.3959   20.1195 C   0  0  0  0  0  0  0  0  0  0  0  0
   16.7451   -7.6016   22.8483 O   0  0  0  0  0  0  0  0  0  0  0  0
   17.6189   -8.0189   22.9055 H   0  0  0  0  0  0  0  0  0  0  0  0
   16.6433   -9.6246   13.1885 N   0  0  0  0  0  0  0  0  0  0  0  0
   15.9523   -9.8581   11.9573 C   0  0  0  0  0  0  0  0  0  0  0  0
   14.7840  -10.3333   11.9845 O   0  0  0  0  0  0  0  0  0  0  0  0
   17.5690   -9.2914   13.1531 H   0  0  0  0  0  0  0  0  0  0  0  0
   16.5812   -9.5667   10.6433 C   0  0  0  0  0  0  0  0  0  0  0  0
   15.8290   -9.7838    9.5265 N   0  0  0  0  0  0  0  0  0  0  0  0
   16.2920   -9.5564    8.2699 C   0  0  0  0  0  0  0  0  0  0  0  0
   17.5848   -9.0798    8.0755 C   0  0  0  0  0  0  0  0  0  0  0  0
   18.3950   -8.8384    9.1814 C   0  0  0  0  0  0  0  0  0  0  0  0
   17.9049   -9.0776   10.4893 C   0  0  0  0  0  0  0  0  0  0  0  0
   18.7492   -8.8148   11.5801 C   0  0  0  0  0  0  0  0  0  0  0  0
   20.0453   -8.3320   11.3823 C   0  0  0  0  0  0  0  0  0  0  0  0
   20.5167   -8.1033   10.0884 C   0  0  0  0  0  0  0  0  0  0  0  0
   19.6929   -8.3557    8.9898 C   0  0  0  0  0  0  0  0  0  0  0  0
  1  2  2  0  0  0
  1  3  1  0  0  0
  3  4  1  0  0  0
  4  5  1  0  0  0
  5  6  1  0  0  0
  6  7  1  0  0  0
  8  7  1  0  0  0
  8  9  1  0  0  0
  9 10  1  0  0  0
 10 11  1  0  0  0
 11 12  1  0  0  0
 12 13  1  0  0  0
 10 14  1  0  0  0
 14 15  2  0  0  0
 14 16  1  0  0  0
 18 16  1  0  0  0
 18 19  1  0  0  0
 19 20  1  0  0  0
 20 21  1  0  0  0
 21 22  2  0  0  0
 21 23  1  0  0  0
 19 24  1  0  0  0
  3 26  1  0  0  0
 26 27  1  0  0  0
 27 28  2  0  0  0
 27 30  1  0  0  0
 30 31  2  0  0  0
 31 32  1  0  0  0
 32 33  2  0  0  0
 33 34  1  0  0  0
 34 35  2  0  0  0
 35 36  1  0  0  0
 36 37  2  0  0  0
 37 38  1  0  0  0
 38 39  2  0  0  0
  9  1  1  0  0  0
 23 18  1  0  0  0
 35 30  1  0  0  0
 13  8  1  0  0  0
 39 34  1  0  0  0
 16 17  1  0  0  0
 24 25  1  0  0  0
 26 29  1  0  0  0
M  END
>  <minimizedAffinity>
14.42193

>  <minimizedRMSD>
2.23577

$$$$
CHEMBL1476208 12901464 CSC026364661 MCULE-5239128706 MolPort-009-503-435 PubChem-24980103 Z29903554 ZINC000012901464


 29 31  0  0  0  0  0  0  0  0999 V2000
   18.1226   -9.5587   15.4312 C   0  0  0  0  0  0  0  0  0  0  0  0
   17.7023   -9.1621   14.0586 C   0  0  0  0  0  0  0  0  0  0  0  0
   18.2506   -9.8515   12.9313 N   0  0  0  0  0  0  0  0  0  0  0  0
   16.9090   -8.1958   13.8985 O   0  0  0  0  0  0  0  0  0  0  0  0
   19.0209  -10.4436   13.0905 H   0  0  0  0  0  0  0  0  0  0  0  0
   17.7630   -9.7450   11.5867 C   0  0  0  0  0  0  0  0  0  0  0  0
   16.3975   -9.9082   11.2562 C   0  0  0  0  0  0  0  0  0  0  0  0
   15.9869   -9.7995    9.9056 C   0  0  0  0  0  0  0  0  0  0  0  0
   14.6774   -9.9579    9.5746 N   0  0  0  0  0  0  0  0  0  0  0  0
   13.7327  -10.2369   10.5120 C   0  0  0  0  0  0  0  0  0  0  0  0
   14.0938  -10.3748   11.8530 C   0  0  0  0  0  0  0  0  0  0  0  0
   15.4297  -10.2142   12.2212 C   0  0  0  0  0  0  0  0  0  0  0  0
   16.9292   -9.5527    8.9054 C   0  0  0  0  0  0  0  0  0  0  0  0
   18.2796   -9.4224    9.2332 C   0  0  0  0  0  0  0  0  0  0  0  0
   18.6921   -9.5260   10.5636 C   0  0  0  0  0  0  0  0  0  0  0  0
   16.8358  -10.5752   16.2210 S   0  0  0  0  0  0  0  0  0  0  0  0
   15.5006   -9.4096   15.8095 C   0  0  0  0  0  0  0  0  0  0  0  0
   14.5392   -8.5232   17.9661 N   0  0  0  0  0  0  0  0  0  0  0  0
   15.4122   -8.3425   16.8434 C   0  0  0  0  0  0  0  0  0  0  0  0
   16.1231   -7.3095   16.7269 O   0  0  0  0  0  0  0  0  0  0  0  0
   14.0172   -9.3575   17.9894 H   0  0  0  0  0  0  0  0  0  0  0  0
   14.0293   -5.8724   21.2445 C   0  0  0  0  0  0  0  0  0  0  0  0
   13.2884   -5.6753   20.0685 C   0  0  0  0  0  0  0  0  0  0  0  0
   13.4476   -6.5411   18.9834 C   0  0  0  0  0  0  0  0  0  0  0  0
   14.3478   -7.6142   19.0586 C   0  0  0  0  0  0  0  0  0  0  0  0
   15.0845   -7.8076   20.2317 C   0  0  0  0  0  0  0  0  0  0  0  0
   14.9266   -6.9422   21.3182 C   0  0  0  0  0  0  0  0  0  0  0  0
   13.2880   -3.7427   22.2608 C   0  0  0  0  0  0  0  0  0  0  0  0
   13.8940   -5.0251   22.3478 O   0  0  0  0  0  0  0  0  0  0  0  0
 28 29  1  0  0  0
 29 22  1  0  0  0
 22 23  2  0  0  0
 23 24  1  0  0  0
 24 25  2  0  0  0
 25 18  1  0  0  0
 18 19  1  0  0  0
 19 17  1  0  0  0
 17 16  1  0  0  0
 16  1  1  0  0  0
  1  2  1  0  0  0
  2  3  1  0  0  0
  3  6  1  0  0  0
  6  7  1  0  0  0
  7  8  1  0  0  0
  8  9  2  0  0  0
  9 10  1  0  0  0
 10 11  2  0  0  0
 11 12  1  0  0  0
  8 13  1  0  0  0
 13 14  2  0  0  0
 14 15  1  0  0  0
  2  4  2  0  0  0
 19 20  2  0  0  0
 25 26  1  0  0  0
 26 27  2  0  0  0
 27 22  1  0  0  0
 15  6  2  0  0  0
 12  7  2  0  0  0
 18 21  1  0  0  0
  3  5  1  0  0  0
M  END
>  <minimizedAffinity>
-3.23583

>  <minimizedRMSD>
2.23610

$$$$
CHEMBL3828377


 36 38  0  0  0  0  0  0  0  0999 V2000
   16.8022   -9.9442   16.4720 C   0  0  0  0  0  0  0  0  0  0  0  0
   18.3743   -9.7663   15.5697 S   0  0  0  0  0  0  0  0  0  0  0  0
   17.5575   -9.2585   14.0234 C   0  0  0  0  0  0  0  0  0  0  0  0
   17.9897  -10.1271   12.8863 C   0  0  0  0  0  0  0  0  0  0  0  0
   18.5312  -11.2370   13.1387 O   0  0  0  0  0  0  0  0  0  0  0  0
   19.2695   -7.5243    7.4726 C   0  0  0  0  0  0  0  0  0  0  0  0
   18.0673   -7.8432    6.8385 C   0  0  0  0  0  0  0  0  0  0  0  0
   17.0813   -8.5544    7.5263 C   0  0  0  0  0  0  0  0  0  0  0  0
   17.2901   -8.9526    8.8558 C   0  0  0  0  0  0  0  0  0  0  0  0
   18.5034   -8.6288    9.4979 C   0  0  0  0  0  0  0  0  0  0  0  0
   19.4875   -7.9152    8.7958 C   0  0  0  0  0  0  0  0  0  0  0  0
   18.7099   -9.0157   10.7895 N   0  0  0  0  0  0  0  0  0  0  0  0
   17.7519   -9.7147   11.4776 C   0  0  0  0  0  0  0  0  0  0  0  0
   16.5364  -10.0364   10.8261 C   0  0  0  0  0  0  0  0  0  0  0  0
   16.3354   -9.6485    9.5331 N   0  0  0  0  0  0  0  0  0  0  0  0
   15.1466   -9.9606    8.9069 O   0  0  0  0  0  0  0  0  0  0  0  0
   15.4396  -10.7605   11.5466 C   0  0  0  0  0  0  0  0  0  0  0  0
   19.9203   -8.7298   11.3853 O   0  0  0  0  0  0  0  0  0  0  0  0
   16.1906   -8.5843   16.7627 C   0  0  0  0  0  0  0  0  0  0  0  0
   15.9255   -8.4512   18.1865 N   0  0  0  0  0  0  0  0  0  0  0  0
   14.8145   -7.7031   18.6801 C   0  0  0  0  0  0  0  0  0  0  0  0
   14.0193   -7.1366   17.8810 O   0  0  0  0  0  0  0  0  0  0  0  0
   16.5297   -8.8898   18.8283 H   0  0  0  0  0  0  0  0  0  0  0  0
   14.6011   -7.6009   20.1529 C   0  0  0  0  0  0  0  0  0  0  0  0
   15.6938   -6.8581   20.7596 N   0  0  0  0  0  0  0  0  0  0  0  0
   15.7248   -5.9173   20.3667 H   0  0  0  0  0  0  0  0  0  0  0  0
   16.5755   -7.3348   20.5703 H   0  0  0  0  0  0  0  0  0  0  0  0
   13.2712   -6.9174   20.4443 C   0  0  0  0  0  0  0  0  0  0  0  0
   13.4106   -5.8798   21.5092 C   0  0  0  0  0  0  0  0  0  0  0  0
   13.1741   -4.5277   21.2281 C   0  0  0  0  0  0  0  0  0  0  0  0
   13.2889   -3.5704   22.2406 C   0  0  0  0  0  0  0  0  0  0  0  0
   13.6345   -3.9628   23.5373 C   0  0  0  0  0  0  0  0  0  0  0  0
   13.8619   -5.3125   23.8224 C   0  0  0  0  0  0  0  0  0  0  0  0
   13.7472   -6.2701   22.8098 C   0  0  0  0  0  0  0  0  0  0  0  0
   13.7502   -3.0124   24.5423 O   0  0  0  0  0  0  0  0  0  0  0  0
   13.5978   -2.1078   24.3514 H   0  0  0  0  0  0  0  0  0  0  0  0
  6  7  2  0  0  0
  7  8  1  0  0  0
  8  9  2  0  0  0
  9 10  1  0  0  0
 10 11  2  0  0  0
 10 12  1  0  0  0
 12 13  2  0  0  0
 13 14  1  0  0  0
 14 15  2  0  0  0
 15 16  1  0  0  0
 14 17  1  0  0  0
 13  4  1  0  0  0
  4  5  2  0  0  0
  4  3  1  0  0  0
  3  2  1  0  0  0
  2  1  1  0  0  0
  1 19  1  0  0  0
 19 20  1  0  0  0
 20 21  1  0  0  0
 21 22  2  0  0  0
 24 21  1  0  0  0
 24 25  1  0  0  0
 24 28  1  0  0  0
 28 29  1  0  0  0
 29 30  2  0  0  0
 30 31  1  0  0  0
 31 32  2  0  0  0
 32 33  1  0  0  0
 33 34  2  0  0  0
 32 35  1  0  0  0
 12 18  1  0  0  0
 11  6  1  0  0  0
 34 29  1  0  0  0
 15  9  1  0  0  0
 20 23  1  0  0  0
 25 26  1  0  0  0
 25 27  1  0  0  0
 35 36  1  0  0  0
M  CHG 1  12   1
M  CHG 1  15   1
M  CHG 1  16  -1
M  CHG 1  18  -1
M  END
>  <minimizedAffinity>
-7.54452

>  <minimizedRMSD>
2.24560

$$$$
CHEMBL3752903


 38 42  0  0  0  0  0  0  0  0999 V2000
   14.3901   -8.1950   16.9862 C   0  0  0  0  0  0  0  0  0  0  0  0
   13.0242   -8.8705   16.9341 C   0  0  0  0  0  0  0  0  0  0  0  0
   15.0612   -8.5692   18.3253 C   0  0  0  0  0  0  0  0  0  0  0  0
   16.5080   -8.0989   18.3880 C   0  0  0  0  0  0  0  0  0  0  0  0
   17.3090   -8.7666   17.2760 C   0  0  0  0  0  0  0  0  0  0  0  0
   16.7629   -8.4249   15.8838 C   0  0  0  0  0  0  0  0  0  0  0  0
   15.2488   -8.7600   15.8242 C   0  0  0  0  0  0  0  0  0  0  0  0
   14.6781   -8.4517   14.4362 C   0  0  0  0  0  0  0  0  0  0  0  0
   15.4856   -9.1191   13.3615 C   0  0  0  0  0  0  0  0  0  0  0  0
   16.7907   -9.4158   13.4917 C   0  0  0  0  0  0  0  0  0  0  0  0
   17.4945   -9.3040   14.8362 C   0  0  0  0  0  0  0  0  0  0  0  0
   17.0149   -6.9414   15.5906 C   0  0  0  0  0  0  0  0  0  0  0  0
   14.3526   -8.0737   19.4230 O   0  0  0  0  0  0  0  0  0  0  0  0
   14.3513   -7.1041   19.3960 H   0  0  0  0  0  0  0  0  0  0  0  0
   14.2146   -6.6722   16.8340 C   0  0  0  0  0  0  0  0  0  0  0  0
   13.3314   -6.1509   17.7834 O   0  0  0  0  0  0  0  0  0  0  0  0
   12.4570   -6.5545   17.6676 H   0  0  0  0  0  0  0  0  0  0  0  0
   18.9777   -8.9533   14.6730 C   0  0  0  0  0  0  0  0  0  0  0  0
   19.8709  -10.1379   15.0194 C   0  0  0  0  0  0  0  0  0  0  0  0
   19.1161  -11.4243   14.9336 C   0  0  0  0  0  0  0  0  0  0  0  0
   18.9773  -12.1596   13.8402 C   0  0  0  0  0  0  0  0  0  0  0  0
   18.0960  -13.3476   14.1387 C   0  0  0  0  0  0  0  0  0  0  0  0
   17.7382  -13.1795   15.5072 O   0  0  0  0  0  0  0  0  0  0  0  0
   18.3442  -12.0373   15.9832 C   0  0  0  0  0  0  0  0  0  0  0  0
   18.2261  -11.6102   17.1611 O   0  0  0  0  0  0  0  0  0  0  0  0
   17.4637  -10.1575   12.3675 C   0  0  0  0  0  0  0  0  0  0  0  0
   16.7696   -9.9464   11.1005 N   0  0  0  0  0  0  0  0  0  0  0  0
   15.5066  -10.3398   10.7928 C   0  0  0  0  0  0  0  0  0  0  0  0
   15.1431   -9.9968    9.5264 N   0  0  0  0  0  0  0  0  0  0  0  0
   16.2376   -9.3742    9.0577 C   0  0  0  0  0  0  0  0  0  0  0  0
   17.2185   -9.3425    9.9897 C   0  0  0  0  0  0  0  0  0  0  0  0
   18.4518   -8.7732    9.6836 C   0  0  0  0  0  0  0  0  0  0  0  0
   18.6128   -8.2426    8.4360 N   0  0  0  0  0  0  0  0  0  0  0  0
   17.5995   -8.2736    7.5123 C   0  0  0  0  0  0  0  0  0  0  0  0
   16.3983   -8.8507    7.8189 N   0  0  0  0  0  0  0  0  0  0  0  0
   19.5290   -8.7620   10.6125 N   0  0  0  0  0  0  0  0  0  0  0  0
   19.4082   -9.1458   11.5110 H   0  0  0  0  0  0  0  0  0  0  0  0
   20.3954   -8.3705   10.3569 H   0  0  0  0  0  0  0  0  0  0  0  0
 15  1  1  0  0  0
  1  2  1  0  0  0
  1  3  1  0  0  0
  3  4  1  0  0  0
  4  5  1  0  0  0
  5  6  1  0  0  0
  6  7  1  0  0  0
  7  8  1  0  0  0
  8  9  1  0  0  0
  9 10  2  0  0  0
 10 11  1  0  0  0
 11 18  1  0  0  0
 18 19  1  0  0  0
 19 20  1  0  0  0
 20 21  2  0  0  0
 21 22  1  0  0  0
 22 23  1  0  0  0
 23 24  1  0  0  0
 24 25  2  0  0  0
 10 26  1  0  0  0
 26 27  1  0  0  0
 27 28  1  0  0  0
 28 29  2  0  0  0
 29 30  1  0  0  0
 30 31  2  0  0  0
 31 32  1  0  0  0
 32 33  2  0  0  0
 33 34  1  0  0  0
 34 35  2  0  0  0
 32 36  1  0  0  0
  6 12  1  0  0  0
  3 13  1  0  0  0
 15 16  1  0  0  0
  7  1  1  0  0  0
 24 20  1  0  0  0
 31 27  1  0  0  0
 11  6  1  0  0  0
 35 30  1  0  0  0
 36 37  1  0  0  0
 36 38  1  0  0  0
 13 14  1  0  0  0
 16 17  1  0  0  0
M  END
>  <minimizedAffinity>
4.58880

>  <minimizedRMSD>
2.24703

$$$$
CHEMBL3605587 PubChem-56932135


 33 36  0  0  0  0  0  0  0  0999 V2000
   17.1102  -10.4468   12.7914 N   0  0  0  0  0  0  0  0  0  0  0  0
   18.3041  -10.1494   12.0380 C   0  0  0  0  0  0  0  0  0  0  0  0
   19.3249   -9.6850   12.6132 O   0  0  0  0  0  0  0  0  0  0  0  0
   16.3052   -8.7138   16.6049 C   0  0  0  0  0  0  0  0  0  0  0  0
   16.8266  -10.0072   16.5097 C   0  0  0  0  0  0  0  0  0  0  0  0
   17.0970  -10.5709   15.2601 C   0  0  0  0  0  0  0  0  0  0  0  0
   16.8524   -9.8484   14.0808 C   0  0  0  0  0  0  0  0  0  0  0  0
   16.3187   -8.5535   14.1819 C   0  0  0  0  0  0  0  0  0  0  0  0
   16.0497   -7.9905   15.4317 C   0  0  0  0  0  0  0  0  0  0  0  0
   14.8372   -7.5115   18.3271 C   0  0  0  0  0  0  0  0  0  0  0  0
   13.8903   -7.3006   17.5225 O   0  0  0  0  0  0  0  0  0  0  0  0
   16.0373   -8.1713   17.9053 N   0  0  0  0  0  0  0  0  0  0  0  0
   16.7513   -8.2614   18.5771 H   0  0  0  0  0  0  0  0  0  0  0  0
   14.7215   -7.0493   19.7401 C   0  0  0  0  0  0  0  0  0  0  0  0
   13.2663   -6.8384   20.1249 C   0  0  0  0  0  0  0  0  0  0  0  0
   11.6980   -8.3377   19.7276 C   0  0  0  0  0  0  0  0  0  0  0  0
   12.7249   -8.0267   20.6172 O   0  0  0  0  0  0  0  0  0  0  0  0
   16.1355  -11.3875   12.2357 C   0  0  0  0  0  0  0  0  0  0  0  0
   15.1408  -10.6789   11.3760 C   0  0  0  0  0  0  0  0  0  0  0  0
   13.8463  -10.3978   11.7961 C   0  0  0  0  0  0  0  0  0  0  0  0
   13.1142   -9.6186   10.5034 S   0  0  0  0  0  0  0  0  0  0  0  0
   14.3968   -9.6376    9.4191 C   0  0  0  0  0  0  0  0  0  0  0  0
   15.4471  -10.2709   10.0709 C   0  0  0  0  0  0  0  0  0  0  0  0
   18.3581  -10.3785   10.5618 C   0  0  0  0  0  0  0  0  0  0  0  0
   18.7225   -9.1449    9.8816 N   0  0  0  0  0  0  0  0  0  0  0  0
   18.4863   -8.8132    8.6064 C   0  0  0  0  0  0  0  0  0  0  0  0
   17.8072   -9.5089    7.6092 C   0  0  0  0  0  0  0  0  0  0  0  0
   17.7284   -8.8902    6.3460 C   0  0  0  0  0  0  0  0  0  0  0  0
   18.3201   -7.6231    6.1241 C   0  0  0  0  0  0  0  0  0  0  0  0
   19.0012   -6.9553    7.1616 C   0  0  0  0  0  0  0  0  0  0  0  0
   19.0575   -7.5970    8.3949 C   0  0  0  0  0  0  0  0  0  0  0  0
   19.6473   -7.1870    9.5333 N   0  0  0  0  0  0  0  0  0  0  0  0
   19.4290   -8.1569   10.4215 N   0  0  0  0  0  0  0  0  0  0  0  0
 16 17  1  0  0  0
 17 15  1  0  0  0
 15 14  1  0  0  0
 14 10  1  0  0  0
 10 11  2  0  0  0
 10 12  1  0  0  0
 12  4  1  0  0  0
  4  5  2  0  0  0
  5  6  1  0  0  0
  6  7  2  0  0  0
  7  8  1  0  0  0
  7  1  1  0  0  0
  8  9  2  0  0  0
  9  4  1  0  0  0
  1 18  1  0  0  0
  1  2  1  0  0  0
 18 19  1  0  0  0
 19 20  2  0  0  0
 20 21  1  0  0  0
 21 22  1  0  0  0
 22 23  2  0  0  0
 23 19  1  0  0  0
  2  3  2  0  0  0
  2 24  1  0  0  0
 24 25  1  0  0  0
 25 26  1  0  0  0
 26 27  2  0  0  0
 27 28  1  0  0  0
 28 29  2  0  0  0
 29 30  1  0  0  0
 30 31  2  0  0  0
 31 32  1  0  0  0
 31 26  1  0  0  0
 32 33  2  0  0  0
 33 25  1  0  0  0
 12 13  1  0  0  0
M  END
>  <minimizedAffinity>
-0.25544

>  <minimizedRMSD>
2.25255

$$$$
CHEMBL1886072


 29 31  0  0  0  0  0  0  0  0999 V2000
   17.3810   -9.2969   13.6457 N   0  0  0  0  0  0  0  0  0  0  0  0
   17.8222  -10.0406   12.5052 C   0  0  0  0  0  0  0  0  0  0  0  0
   18.7172  -10.9189   12.6485 O   0  0  0  0  0  0  0  0  0  0  0  0
   16.7395   -8.5629   13.5085 H   0  0  0  0  0  0  0  0  0  0  0  0
   17.2660   -9.7787   11.1506 C   0  0  0  0  0  0  0  0  0  0  0  0
   17.9655   -9.0928   10.1248 C   0  0  0  0  0  0  0  0  0  0  0  0
   17.3328   -8.9070    8.8691 C   0  0  0  0  0  0  0  0  0  0  0  0
   16.0761   -9.3769    8.6595 N   0  0  0  0  0  0  0  0  0  0  0  0
   15.3885  -10.0292    9.6305 C   0  0  0  0  0  0  0  0  0  0  0  0
   14.1044  -10.4914    9.3783 O   0  0  0  0  0  0  0  0  0  0  0  0
   15.9684  -10.2364   10.8807 C   0  0  0  0  0  0  0  0  0  0  0  0
   17.9946   -8.2323    7.8390 C   0  0  0  0  0  0  0  0  0  0  0  0
   19.2819   -7.7310    8.0410 C   0  0  0  0  0  0  0  0  0  0  0  0
   19.9123   -7.9008    9.2748 C   0  0  0  0  0  0  0  0  0  0  0  0
   19.2578   -8.5751   10.3085 C   0  0  0  0  0  0  0  0  0  0  0  0
   13.7132  -10.3528    8.5382 H   0  0  0  0  0  0  0  0  0  0  0  0
   17.8379   -9.5766   15.0002 C   0  0  0  0  0  0  0  0  0  0  0  0
   15.0625   -7.9870   17.8609 C   0  0  0  0  0  0  0  0  0  0  0  0
   16.1205   -8.7990   18.2850 C   0  0  0  0  0  0  0  0  0  0  0  0
   17.0272   -9.3127   17.3533 C   0  0  0  0  0  0  0  0  0  0  0  0
   16.8817   -9.0122   15.9951 C   0  0  0  0  0  0  0  0  0  0  0  0
   15.8244   -8.2000   15.5698 C   0  0  0  0  0  0  0  0  0  0  0  0
   14.9179   -7.6864   16.5018 C   0  0  0  0  0  0  0  0  0  0  0  0
   13.9313   -7.3333   19.0315 S   0  0  0  0  0  0  0  0  0  0  0  0
   12.7740   -8.2772   19.1993 O   0  0  0  0  0  0  0  0  0  0  0  0
   13.4119   -6.0083   18.5488 O   0  0  0  0  0  0  0  0  0  0  0  0
   14.7283   -7.1223   20.5490 N   0  0  0  0  0  0  0  0  0  0  0  0
   14.0698   -6.7422   21.2289 H   0  0  0  0  0  0  0  0  0  0  0  0
   15.5102   -6.4772   20.4356 H   0  0  0  0  0  0  0  0  0  0  0  0
 24 25  2  0  0  0
 24 26  2  0  0  0
 24 27  1  0  0  0
 24 18  1  0  0  0
 18 19  2  0  0  0
 19 20  1  0  0  0
 20 21  2  0  0  0
 21 17  1  0  0  0
 17  1  1  0  0  0
  1  2  1  0  0  0
  2  3  2  0  0  0
  2  5  1  0  0  0
  5  6  2  0  0  0
  6  7  1  0  0  0
  7  8  2  0  0  0
  8  9  1  0  0  0
  9 10  1  0  0  0
  9 11  2  0  0  0
  7 12  1  0  0  0
 12 13  2  0  0  0
 13 14  1  0  0  0
 14 15  2  0  0  0
 21 22  1  0  0  0
 22 23  2  0  0  0
 23 18  1  0  0  0
 11  5  1  0  0  0
 15  6  1  0  0  0
 27 28  1  0  0  0
 27 29  1  0  0  0
  1  4  1  0  0  0
 10 16  1  0  0  0
M  END
>  <minimizedAffinity>
-6.49751

>  <minimizedRMSD>
2.25679

$$$$
CHEMBL251724 PubChem-25093460


 33 36  0  0  0  0  0  0  0  0999 V2000
   18.7244  -10.6087   15.0805 C   0  0  0  0  0  0  0  0  0  0  0  0
   18.5799  -11.9981   15.1671 C   0  0  0  0  0  0  0  0  0  0  0  0
   18.3003  -12.7452   14.0201 C   0  0  0  0  0  0  0  0  0  0  0  0
   18.1669  -12.1053   12.7845 C   0  0  0  0  0  0  0  0  0  0  0  0
   18.3154  -10.7139   12.6861 C   0  0  0  0  0  0  0  0  0  0  0  0
   18.5998   -9.9733   13.8415 C   0  0  0  0  0  0  0  0  0  0  0  0
   18.1684  -10.0352   11.3861 C   0  0  0  0  0  0  0  0  0  0  0  0
   16.9517   -9.8416   10.7160 C   0  0  0  0  0  0  0  0  0  0  0  0
   17.1402   -9.1612    9.5126 C   0  0  0  0  0  0  0  0  0  0  0  0
   16.1546   -8.8203    8.6318 N   0  0  0  0  0  0  0  0  0  0  0  0
   16.4660   -8.1470    7.4760 C   0  0  0  0  0  0  0  0  0  0  0  0
   17.8138   -7.8231    7.2309 C   0  0  0  0  0  0  0  0  0  0  0  0
   18.2991   -7.1685    6.1564 N   0  0  0  0  0  0  0  0  0  0  0  0
   19.6371   -7.1004    6.3801 C   0  0  0  0  0  0  0  0  0  0  0  0
   19.9200   -7.7193    7.5886 C   0  0  0  0  0  0  0  0  0  0  0  0
   21.2714   -7.8598    8.1995 C   0  0  0  0  0  0  0  0  0  0  0  0
   18.7683   -8.1676    8.1107 N   0  0  0  0  0  0  0  0  0  0  0  0
   18.4566   -8.8323    9.2493 C   0  0  0  0  0  0  0  0  0  0  0  0
   19.4512   -9.3655   10.4881 S   0  0  0  0  0  0  0  0  0  0  0  0
   15.4491   -7.7814    6.5416 N   0  0  0  0  0  0  0  0  0  0  0  0
   14.8060   -6.4789    6.5727 C   0  0  0  0  0  0  0  0  0  0  0  0
   15.1756   -8.4322    5.8554 H   0  0  0  0  0  0  0  0  0  0  0  0
   19.0315   -9.7920   16.2973 C   0  0  0  0  0  0  0  0  0  0  0  0
   17.8246   -9.5873   17.2180 C   0  0  0  0  0  0  0  0  0  0  0  0
   17.3735  -10.8490   17.7852 N   0  0  0  0  0  0  0  0  0  0  0  0
   17.0580  -11.4652   17.0360 H   0  0  0  0  0  0  0  0  0  0  0  0
   16.6024  -10.6756   18.4301 H   0  0  0  0  0  0  0  0  0  0  0  0
   16.9988   -8.0191   15.4211 N   0  0  0  0  0  0  0  0  0  0  0  0
   16.7048   -8.8665   16.5315 C   0  0  0  0  0  0  0  0  0  0  0  0
   15.5103   -9.0510   16.8938 O   0  0  0  0  0  0  0  0  0  0  0  0
   17.9378   -7.8885   15.1553 H   0  0  0  0  0  0  0  0  0  0  0  0
   15.6124   -8.1543   13.4385 C   0  0  0  0  0  0  0  0  0  0  0  0
   15.9533   -7.3436   14.6713 C   0  0  0  0  0  0  0  0  0  0  0  0
 32 33  1  0  0  0
 33 28  1  0  0  0
 28 29  1  0  0  0
 29 30  2  0  0  0
 24 29  1  0  0  0
 24 25  1  0  0  0
 24 23  1  0  0  0
 23  1  1  0  0  0
  1  2  2  0  0  0
  2  3  1  0  0  0
  3  4  2  0  0  0
  4  5  1  0  0  0
  5  7  1  0  0  0
  5  6  2  0  0  0
  7  8  2  0  0  0
  8  9  1  0  0  0
  9 10  1  0  0  0
 10 11  2  0  0  0
 11 20  1  0  0  0
 11 12  1  0  0  0
 20 21  1  0  0  0
 12 13  2  0  0  0
 13 14  1  0  0  0
 14 15  2  0  0  0
 15 16  1  0  0  0
 15 17  1  0  0  0
 17 18  1  0  0  0
 17 12  1  0  0  0
 18 19  1  0  0  0
 18  9  2  0  0  0
 19  7  1  0  0  0
  6  1  1  0  0  0
 28 31  1  0  0  0
 25 26  1  0  0  0
 25 27  1  0  0  0
 20 22  1  0  0  0
M  END
>  <minimizedAffinity>
3.92323

>  <minimizedRMSD>
2.25790

$$$$
CHEMBL4067604 PubChem-72545687


 27 28  0  0  0  0  0  0  0  0999 V2000
   17.3524   -9.5338   12.6806 N   0  0  0  0  0  0  0  0  0  0  0  0
   16.9835   -8.9465   13.3793 H   0  0  0  0  0  0  0  0  0  0  0  0
   18.1269   -8.5066    7.7427 C   0  0  0  0  0  0  0  0  0  0  0  0
   16.8639   -9.0996    7.8336 C   0  0  0  0  0  0  0  0  0  0  0  0
   16.3664   -9.4972    9.0780 C   0  0  0  0  0  0  0  0  0  0  0  0
   17.1392   -9.2998   10.2413 C   0  0  0  0  0  0  0  0  0  0  0  0
   18.4042   -8.7046   10.1422 C   0  0  0  0  0  0  0  0  0  0  0  0
   18.8958   -8.3093    8.8944 C   0  0  0  0  0  0  0  0  0  0  0  0
   20.1796   -7.7057    8.7961 N   0  0  0  0  0  0  0  0  0  0  0  0
   16.6062   -9.7106   11.4706 C   0  0  0  0  0  0  0  0  0  0  0  0
   15.3718  -10.2843   11.5044 N   0  0  0  0  0  0  0  0  0  0  0  0
   14.6438  -10.4652   10.3712 C   0  0  0  0  0  0  0  0  0  0  0  0
   15.1407  -10.0733    9.1691 N   0  0  0  0  0  0  0  0  0  0  0  0
   20.7214   -7.5665    9.6062 H   0  0  0  0  0  0  0  0  0  0  0  0
   20.5266   -7.4270    7.9179 H   0  0  0  0  0  0  0  0  0  0  0  0
   18.6316  -10.1839   12.9227 C   0  0  0  0  0  0  0  0  0  0  0  0
   18.4091  -11.5987   13.4213 C   0  0  0  0  0  0  0  0  0  0  0  0
   18.9354  -11.7235   14.8347 C   0  0  0  0  0  0  0  0  0  0  0  0
   17.8369  -12.2521   15.7370 C   0  0  0  0  0  0  0  0  0  0  0  0
   17.6116  -11.3083   16.9085 C   0  0  0  0  0  0  0  0  0  0  0  0
   17.9522   -9.8689   16.5413 C   0  0  0  0  0  0  0  0  0  0  0  0
   16.7198   -9.0412   16.3873 C   0  0  0  0  0  0  0  0  0  0  0  0
   16.1372   -8.9713   15.2721 O   0  0  0  0  0  0  0  0  0  0  0  0
   16.2193   -8.3128   17.5055 N   0  0  0  0  0  0  0  0  0  0  0  0
   15.1089   -7.5470   17.3947 O   0  0  0  0  0  0  0  0  0  0  0  0
   16.6874   -8.3675   18.3699 H   0  0  0  0  0  0  0  0  0  0  0  0
   14.7694   -7.5992   16.4875 H   0  0  0  0  0  0  0  0  0  0  0  0
  3  4  2  0  0  0
  4  5  1  0  0  0
  5  6  2  0  0  0
  6  7  1  0  0  0
  6 10  1  0  0  0
  7  8  2  0  0  0
  8  9  1  0  0  0
  8  3  1  0  0  0
 10 11  2  0  0  0
 10  1  1  0  0  0
 11 12  1  0  0  0
 12 13  2  0  0  0
 13  5  1  0  0  0
  1 16  1  0  0  0
 16 17  1  0  0  0
 17 18  1  0  0  0
 18 19  1  0  0  0
 19 20  1  0  0  0
 20 21  1  0  0  0
 21 22  1  0  0  0
 22 23  2  0  0  0
 22 24  1  0  0  0
 24 25  1  0  0  0
  9 14  1  0  0  0
  9 15  1  0  0  0
  1  2  1  0  0  0
 24 26  1  0  0  0
 25 27  1  0  0  0
M  END
>  <minimizedAffinity>
-6.74740

>  <minimizedRMSD>
2.25819

$$$$
CHEMBL1475640 3373677 CSC027880459 MCULE-1536119508 MolPort-004-278-037 PubChem-2491450 Z19573077 ZINC000003373677 ZINC03373677


 28 30  0  0  0  0  0  0  0  0999 V2000
   16.6556   -9.4939   11.2311 C   0  0  0  0  0  0  0  0  0  0  0  0
   17.4485  -10.0189   12.3810 C   0  0  0  0  0  0  0  0  0  0  0  0
   18.4311  -10.7716   12.1452 O   0  0  0  0  0  0  0  0  0  0  0  0
   16.5003   -8.9337   16.4243 C   0  0  0  0  0  0  0  0  0  0  0  0
   17.2063  -10.1097   16.1527 C   0  0  0  0  0  0  0  0  0  0  0  0
   17.5142  -10.4625   14.8357 C   0  0  0  0  0  0  0  0  0  0  0  0
   17.1194   -9.6419   13.7698 C   0  0  0  0  0  0  0  0  0  0  0  0
   16.4110   -8.4627   14.0429 C   0  0  0  0  0  0  0  0  0  0  0  0
   16.1038   -8.1112   15.3599 C   0  0  0  0  0  0  0  0  0  0  0  0
   14.9481   -7.5900   19.7216 C   0  0  0  0  0  0  0  0  0  0  0  0
   15.0997   -7.8248   18.2622 C   0  0  0  0  0  0  0  0  0  0  0  0
   14.2561   -7.3331   17.4671 O   0  0  0  0  0  0  0  0  0  0  0  0
   16.2036   -8.6064   17.7887 N   0  0  0  0  0  0  0  0  0  0  0  0
   16.8224   -8.9546   18.4707 H   0  0  0  0  0  0  0  0  0  0  0  0
   17.5245   -9.2092   10.1447 O   0  0  0  0  0  0  0  0  0  0  0  0
   17.1108   -9.3338    8.8180 C   0  0  0  0  0  0  0  0  0  0  0  0
   16.0374   -9.9318    8.5333 O   0  0  0  0  0  0  0  0  0  0  0  0
   17.9329   -8.7622    7.7484 C   0  0  0  0  0  0  0  0  0  0  0  0
   17.7135   -9.0018    6.4309 N   0  0  0  0  0  0  0  0  0  0  0  0
   18.6539   -8.3151    5.8135 N   0  0  0  0  0  0  0  0  0  0  0  0
   19.4001   -7.6937    6.7270 C   0  0  0  0  0  0  0  0  0  0  0  0
   18.9907   -7.9388    7.9830 N   0  0  0  0  0  0  0  0  0  0  0  0
   20.4484   -6.9106    6.3735 N   0  0  0  0  0  0  0  0  0  0  0  0
   20.7372   -6.7625    5.0463 C   0  0  0  0  0  0  0  0  0  0  0  0
   21.8812   -5.9101    4.6309 C   0  0  0  0  0  0  0  0  0  0  0  0
   19.9588   -7.4122    4.0666 C   0  0  0  0  0  0  0  0  0  0  0  0
   18.8851   -8.2113    4.4813 C   0  0  0  0  0  0  0  0  0  0  0  0
   18.0338   -8.9180    3.4842 C   0  0  0  0  0  0  0  0  0  0  0  0
 10 11  1  0  0  0
 11 12  2  0  0  0
 11 13  1  0  0  0
 13  4  1  0  0  0
  4  5  2  0  0  0
  5  6  1  0  0  0
  6  7  2  0  0  0
  7  8  1  0  0  0
  7  2  1  0  0  0
  8  9  2  0  0  0
  9  4  1  0  0  0
  2  3  2  0  0  0
  2  1  1  0  0  0
  1 15  1  0  0  0
 15 16  1  0  0  0
 16 17  2  0  0  0
 16 18  1  0  0  0
 18 19  2  0  0  0
 19 20  1  0  0  0
 20 21  1  0  0  0
 21 22  2  0  0  0
 21 23  1  0  0  0
 22 18  1  0  0  0
 23 24  2  0  0  0
 24 25  1  0  0  0
 24 26  1  0  0  0
 26 27  2  0  0  0
 27 28  1  0  0  0
 27 20  1  0  0  0
 13 14  1  0  0  0
M  END
>  <minimizedAffinity>
-8.40862

>  <minimizedRMSD>
2.26012

$$$$
CHEMBL199480 PubChem-11670438 PubChem-11671634


 37 41  0  0  0  0  0  0  0  0999 V2000
   18.0807  -11.0892   16.6687 C   0  0  0  0  0  0  0  0  0  0  0  0
   18.7743  -10.2119   15.6375 C   0  0  0  0  0  0  0  0  0  0  0  0
   17.4513  -10.1402   12.4306 N   0  0  0  0  0  0  0  0  0  0  0  0
   18.5726   -9.2887   12.8016 C   0  0  0  0  0  0  0  0  0  0  0  0
   19.6828  -10.1485   13.4117 C   0  0  0  0  0  0  0  0  0  0  0  0
   19.1931  -11.0167   14.4929 N   0  0  0  0  0  0  0  0  0  0  0  0
   18.0789  -11.8619   14.0375 C   0  0  0  0  0  0  0  0  0  0  0  0
   16.9282  -11.0453   13.4433 C   0  0  0  0  0  0  0  0  0  0  0  0
   18.6173   -8.2700    8.4019 C   0  0  0  0  0  0  0  0  0  0  0  0
   17.5799   -8.4567    7.4503 C   0  0  0  0  0  0  0  0  0  0  0  0
   16.3909   -9.1235    7.7976 C   0  0  0  0  0  0  0  0  0  0  0  0
   16.2784   -9.5859    9.1048 C   0  0  0  0  0  0  0  0  0  0  0  0
   15.2826  -10.2355    9.6571 O   0  0  0  0  0  0  0  0  0  0  0  0
   15.5559  -10.5103   10.9057 N   0  0  0  0  0  0  0  0  0  0  0  0
   16.7859  -10.0074   11.1682 C   0  0  0  0  0  0  0  0  0  0  0  0
   17.2709   -9.4075   10.0247 C   0  0  0  0  0  0  0  0  0  0  0  0
   18.4612   -8.7549    9.7152 C   0  0  0  0  0  0  0  0  0  0  0  0
   20.1991   -7.3791    6.7216 C   0  0  0  0  0  0  0  0  0  0  0  0
   19.8019   -7.6092    8.0663 O   0  0  0  0  0  0  0  0  0  0  0  0
   16.7567  -10.4801   17.1128 C   0  0  0  0  0  0  0  0  0  0  0  0
   16.7713   -8.9657   16.9730 C   0  0  0  0  0  0  0  0  0  0  0  0
   15.9970   -8.3616   18.0456 N   0  0  0  0  0  0  0  0  0  0  0  0
   14.7743   -7.6624   17.8000 C   0  0  0  0  0  0  0  0  0  0  0  0
   14.3681   -7.5007   16.6167 O   0  0  0  0  0  0  0  0  0  0  0  0
   16.3253   -8.4365   18.9707 H   0  0  0  0  0  0  0  0  0  0  0  0
   13.9846   -7.1422   18.9299 C   0  0  0  0  0  0  0  0  0  0  0  0
   12.6343   -6.8107   18.7607 C   0  0  0  0  0  0  0  0  0  0  0  0
   11.8865   -6.3255   19.8357 C   0  0  0  0  0  0  0  0  0  0  0  0
   12.4841   -6.1688   21.0885 C   0  0  0  0  0  0  0  0  0  0  0  0
   13.8381   -6.4900   21.2786 C   0  0  0  0  0  0  0  0  0  0  0  0
   14.5775   -6.9787   20.1889 C   0  0  0  0  0  0  0  0  0  0  0  0
   14.4528   -6.3434   22.5725 N   0  0  0  0  0  0  0  0  0  0  0  0
   14.0158   -5.2917   23.4935 C   0  0  0  0  0  0  0  0  0  0  0  0
   14.1763   -5.7834   24.9302 C   0  0  0  0  0  0  0  0  0  0  0  0
   15.5009   -6.2029   25.1437 O   0  0  0  0  0  0  0  0  0  0  0  0
   15.6648   -7.3966   24.4188 C   0  0  0  0  0  0  0  0  0  0  0  0
   15.6546   -7.1076   22.9166 C   0  0  0  0  0  0  0  0  0  0  0  0
 18 19  1  0  0  0
 19  9  1  0  0  0
  9 10  2  0  0  0
 10 11  1  0  0  0
 11 12  2  0  0  0
 12 13  1  0  0  0
 13 14  1  0  0  0
 14 15  2  0  0  0
 15  3  1  0  0  0
 15 16  1  0  0  0
  3  4  1  0  0  0
  4  5  1  0  0  0
  5  6  1  0  0  0
  6  2  1  0  0  0
  6  7  1  0  0  0
  2  1  1  0  0  0
  1 20  1  0  0  0
 20 21  1  0  0  0
 21 22  1  0  0  0
 22 23  1  0  0  0
 23 24  2  0  0  0
 23 26  1  0  0  0
 26 27  2  0  0  0
 27 28  1  0  0  0
 28 29  2  0  0  0
 29 30  1  0  0  0
 30 32  1  0  0  0
 30 31  2  0  0  0
 32 33  1  0  0  0
 33 34  1  0  0  0
 34 35  1  0  0  0
 35 36  1  0  0  0
 36 37  1  0  0  0
 37 32  1  0  0  0
 31 26  1  0  0  0
  7  8  1  0  0  0
  8  3  1  0  0  0
 16 17  2  0  0  0
 16 12  1  0  0  0
 17  9  1  0  0  0
 22 25  1  0  0  0
M  END
>  <minimizedAffinity>
-6.39025

>  <minimizedRMSD>
2.26238

$$$$
CHEMBL1884010 8583001 LN01059960 MCULE-3663123971 MolPort-004-901-648 PubChem-16033913 ZINC000008583001


 32 35  0  0  0  0  0  0  0  0999 V2000
   18.2410   -8.6687    6.8209 N   0  0  0  0  0  0  0  0  0  0  0  0
   17.1274   -9.3840    6.9529 N   0  0  0  0  0  0  0  0  0  0  0  0
   16.9326   -9.6799    8.2649 C   0  0  0  0  0  0  0  0  0  0  0  0
   17.9809   -9.1169    8.9702 C   0  0  0  0  0  0  0  0  0  0  0  0
   18.3305   -9.0750   10.3222 C   0  0  0  0  0  0  0  0  0  0  0  0
   19.4714   -8.4006   10.6529 N   0  0  0  0  0  0  0  0  0  0  0  0
   20.2474   -7.7883    9.7031 C   0  0  0  0  0  0  0  0  0  0  0  0
   19.8961   -7.8360    8.3841 N   0  0  0  0  0  0  0  0  0  0  0  0
   18.7651   -8.5029    8.0475 C   0  0  0  0  0  0  0  0  0  0  0  0
   18.7400   -8.1878    5.5595 C   0  0  0  0  0  0  0  0  0  0  0  0
   19.8304   -7.3054    5.4981 C   0  0  0  0  0  0  0  0  0  0  0  0
   20.3043   -6.8467    4.2658 C   0  0  0  0  0  0  0  0  0  0  0  0
   19.6921   -7.2661    3.0822 C   0  0  0  0  0  0  0  0  0  0  0  0
   18.6065   -8.1440    3.1311 C   0  0  0  0  0  0  0  0  0  0  0  0
   18.1331   -8.6023    4.3638 C   0  0  0  0  0  0  0  0  0  0  0  0
   20.1955   -6.7787    1.7719 C   0  0  0  0  0  0  0  0  0  0  0  0
   17.5547   -9.6940   11.3548 N   0  0  0  0  0  0  0  0  0  0  0  0
   16.6596  -10.0291   11.1188 H   0  0  0  0  0  0  0  0  0  0  0  0
   18.0016   -9.8605   12.7300 C   0  0  0  0  0  0  0  0  0  0  0  0
   16.9645  -10.6397   13.5236 C   0  0  0  0  0  0  0  0  0  0  0  0
   16.5658   -9.9051   14.7607 C   0  0  0  0  0  0  0  0  0  0  0  0
   16.8672  -10.4470   16.0143 C   0  0  0  0  0  0  0  0  0  0  0  0
   16.4906   -9.7713   17.1788 C   0  0  0  0  0  0  0  0  0  0  0  0
   15.8059   -8.5541   17.0939 C   0  0  0  0  0  0  0  0  0  0  0  0
   15.5011   -8.0131   15.8399 C   0  0  0  0  0  0  0  0  0  0  0  0
   15.8775   -8.6882   14.6751 C   0  0  0  0  0  0  0  0  0  0  0  0
   15.3445   -7.7007   18.5551 S   0  0  0  0  0  0  0  0  0  0  0  0
   14.8645   -8.8353   19.7666 N   0  0  0  0  0  0  0  0  0  0  0  0
   14.1888   -6.7855   18.2633 O   0  0  0  0  0  0  0  0  0  0  0  0
   16.5092   -6.8950   19.0564 O   0  0  0  0  0  0  0  0  0  0  0  0
   14.0737   -9.3822   19.4261 H   0  0  0  0  0  0  0  0  0  0  0  0
   14.5926   -8.3347   20.6126 H   0  0  0  0  0  0  0  0  0  0  0  0
  1 10  1  0  0  0
 10 11  2  0  0  0
 11 12  1  0  0  0
 12 13  2  0  0  0
 13 14  1  0  0  0
 14 15  2  0  0  0
 13 16  1  0  0  0
  1  2  1  0  0  0
  2  3  2  0  0  0
  3  4  1  0  0  0
  4  5  2  0  0  0
  5 17  1  0  0  0
 17 19  1  0  0  0
 19 20  1  0  0  0
 20 21  1  0  0  0
 21 22  2  0  0  0
 22 23  1  0  0  0
 23 24  2  0  0  0
 24 25  1  0  0  0
 25 26  2  0  0  0
 24 27  1  0  0  0
 27 28  1  0  0  0
 27 29  2  0  0  0
 27 30  2  0  0  0
  5  6  1  0  0  0
  6  7  2  0  0  0
  7  8  1  0  0  0
  8  9  2  0  0  0
  9  1  1  0  0  0
 15 10  1  0  0  0
  9  4  1  0  0  0
 26 21  1  0  0  0
 17 18  1  0  0  0
 28 31  1  0  0  0
 28 32  1  0  0  0
M  END
>  <minimizedAffinity>
-3.87984

>  <minimizedRMSD>
2.26581

$$$$
CHEMBL1189894 CHEMBL539740 PubChem-10622209 PubChem-45264014


 32 35  0  0  0  0  0  0  0  0999 V2000
   19.0539   -9.6756   15.2570 C   0  0  0  0  0  0  0  0  0  0  0  0
   17.3757  -10.2958   11.9551 N   0  0  0  0  0  0  0  0  0  0  0  0
   18.2363  -11.4477   12.2090 C   0  0  0  0  0  0  0  0  0  0  0  0
   19.1299  -11.1460   13.4098 C   0  0  0  0  0  0  0  0  0  0  0  0
   18.3738  -10.7979   14.6263 N   0  0  0  0  0  0  0  0  0  0  0  0
   16.9748  -10.4006   14.3906 C   0  0  0  0  0  0  0  0  0  0  0  0
   16.7840   -9.5985   13.0982 C   0  0  0  0  0  0  0  0  0  0  0  0
   17.0983   -9.9125   10.5929 C   0  0  0  0  0  0  0  0  0  0  0  0
   15.9668  -10.3479    9.9649 N   0  0  0  0  0  0  0  0  0  0  0  0
   16.0036   -9.7066    8.4271 S   0  0  0  0  0  0  0  0  0  0  0  0
   17.4361   -8.8756    8.5200 C   0  0  0  0  0  0  0  0  0  0  0  0
   17.9384   -9.0847    9.7954 C   0  0  0  0  0  0  0  0  0  0  0  0
   19.1591   -8.4996   10.1511 C   0  0  0  0  0  0  0  0  0  0  0  0
   19.8407   -7.7126    9.2071 C   0  0  0  0  0  0  0  0  0  0  0  0
   19.3053   -7.5157    7.9197 C   0  0  0  0  0  0  0  0  0  0  0  0
   18.0836   -8.1038    7.5609 C   0  0  0  0  0  0  0  0  0  0  0  0
   18.5353   -9.4625   16.6729 C   0  0  0  0  0  0  0  0  0  0  0  0
   17.6401   -8.2366   16.7469 C   0  0  0  0  0  0  0  0  0  0  0  0
   16.1963   -8.6464   16.9850 C   0  0  0  0  0  0  0  0  0  0  0  0
   15.7634   -8.2159   18.3061 N   0  0  0  0  0  0  0  0  0  0  0  0
   14.5482   -7.4900   18.5274 C   0  0  0  0  0  0  0  0  0  0  0  0
   13.7903   -7.2366   17.5518 O   0  0  0  0  0  0  0  0  0  0  0  0
   16.3301   -8.4329   19.0813 H   0  0  0  0  0  0  0  0  0  0  0  0
   14.1935   -7.0514   19.9001 C   0  0  0  0  0  0  0  0  0  0  0  0
   13.0226   -6.3075   20.1951 C   0  0  0  0  0  0  0  0  0  0  0  0
   12.7606   -5.9311   21.5225 C   0  0  0  0  0  0  0  0  0  0  0  0
   13.6369   -6.2799   22.5502 C   0  0  0  0  0  0  0  0  0  0  0  0
   14.7882   -7.0106   22.2635 C   0  0  0  0  0  0  0  0  0  0  0  0
   15.0623   -7.3920   20.9494 C   0  0  0  0  0  0  0  0  0  0  0  0
   12.1065   -5.9364   19.1575 N   0  0  0  0  0  0  0  0  0  0  0  0
   11.9461   -4.5700   18.6852 C   0  0  0  0  0  0  0  0  0  0  0  0
   11.5582   -6.6416   18.7436 H   0  0  0  0  0  0  0  0  0  0  0  0
  8  9  2  0  0  0
  9 10  1  0  0  0
 10 11  1  0  0  0
 11 12  2  0  0  0
 12 13  1  0  0  0
 13 14  2  0  0  0
 14 15  1  0  0  0
 15 16  2  0  0  0
  8  2  1  0  0  0
  2  3  1  0  0  0
  3  4  1  0  0  0
  4  5  1  0  0  0
  5  6  1  0  0  0
  6  7  1  0  0  0
  5  1  1  0  0  0
  1 17  1  0  0  0
 17 18  1  0  0  0
 18 19  1  0  0  0
 19 20  1  0  0  0
 20 21  1  0  0  0
 21 22  2  0  0  0
 21 24  1  0  0  0
 24 25  2  0  0  0
 25 30  1  0  0  0
 30 31  1  0  0  0
 25 26  1  0  0  0
 26 27  2  0  0  0
 27 28  1  0  0  0
 28 29  2  0  0  0
 12  8  1  0  0  0
  7  2  1  0  0  0
 29 24  1  0  0  0
 16 11  1  0  0  0
 20 23  1  0  0  0
 30 32  1  0  0  0
M  END
>  <minimizedAffinity>
-7.73938

>  <minimizedRMSD>
2.26637

$$$$
CHEMBL5195408 PubChem-156771139


 38 41  0  0  0  0  0  0  0  0999 V2000
   16.0128   -8.4801   15.5055 C   0  0  0  0  0  0  0  0  0  0  0  0
   15.7363   -8.0381   14.2001 C   0  0  0  0  0  0  0  0  0  0  0  0
   16.1280   -8.8260   13.1081 C   0  0  0  0  0  0  0  0  0  0  0  0
   16.8009  -10.0396   13.3024 C   0  0  0  0  0  0  0  0  0  0  0  0
   17.0701  -10.4706   14.6018 C   0  0  0  0  0  0  0  0  0  0  0  0
   16.6861   -9.6996   15.7100 C   0  0  0  0  0  0  0  0  0  0  0  0
   16.9657  -10.1257   17.0143 O   0  0  0  0  0  0  0  0  0  0  0  0
   17.7961  -11.2433   17.2988 C   0  0  0  0  0  0  0  0  0  0  0  0
   15.0728   -6.8202   14.0070 O   0  0  0  0  0  0  0  0  0  0  0  0
   15.1530   -6.0836   12.7942 C   0  0  0  0  0  0  0  0  0  0  0  0
   15.6028   -7.6382   16.6726 C   0  0  0  0  0  0  0  0  0  0  0  0
   14.8777   -8.4529   17.6472 N   0  0  0  0  0  0  0  0  0  0  0  0
   14.1537   -8.9831   17.1624 H   0  0  0  0  0  0  0  0  0  0  0  0
   14.2691   -6.1484   18.2781 C   0  0  0  0  0  0  0  0  0  0  0  0
   14.2485   -7.6226   18.6823 C   0  0  0  0  0  0  0  0  0  0  0  0
   15.0348   -7.7914   19.9804 C   0  0  0  0  0  0  0  0  0  0  0  0
   16.3053   -7.2189   19.8759 O   0  0  0  0  0  0  0  0  0  0  0  0
   16.7997   -7.6567   19.1655 H   0  0  0  0  0  0  0  0  0  0  0  0
   12.8072   -8.0838   18.9264 C   0  0  0  0  0  0  0  0  0  0  0  0
   12.5584   -8.2745   20.2887 O   0  0  0  0  0  0  0  0  0  0  0  0
   13.1521   -8.9601   20.6329 H   0  0  0  0  0  0  0  0  0  0  0  0
   17.1908  -10.8472   12.2259 O   0  0  0  0  0  0  0  0  0  0  0  0
   17.1638  -10.4414   10.8847 C   0  0  0  0  0  0  0  0  0  0  0  0
   16.1312  -10.8486   10.1026 N   0  0  0  0  0  0  0  0  0  0  0  0
   16.0436  -10.4810    8.7995 C   0  0  0  0  0  0  0  0  0  0  0  0
   17.0057   -9.7016    8.2442 N   0  0  0  0  0  0  0  0  0  0  0  0
   18.0829   -9.2811    8.9610 C   0  0  0  0  0  0  0  0  0  0  0  0
   18.1851   -9.6512   10.3234 C   0  0  0  0  0  0  0  0  0  0  0  0
   19.2944   -9.2482   11.0742 C   0  0  0  0  0  0  0  0  0  0  0  0
   20.2848   -8.4586   10.4966 C   0  0  0  0  0  0  0  0  0  0  0  0
   20.1802   -8.0748    9.1604 C   0  0  0  0  0  0  0  0  0  0  0  0
   19.0924   -8.4782    8.3674 C   0  0  0  0  0  0  0  0  0  0  0  0
   19.0602   -8.0441    6.9413 C   0  0  0  0  0  0  0  0  0  0  0  0
   19.8714   -6.9779    6.5136 C   0  0  0  0  0  0  0  0  0  0  0  0
   19.8704   -6.5692    5.1770 C   0  0  0  0  0  0  0  0  0  0  0  0
   19.0614   -7.2255    4.2472 C   0  0  0  0  0  0  0  0  0  0  0  0
   18.2564   -8.2914    4.6537 C   0  0  0  0  0  0  0  0  0  0  0  0
   18.2590   -8.6987    5.9906 C   0  0  0  0  0  0  0  0  0  0  0  0
 14 15  1  0  0  0
 15 16  1  0  0  0
 16 17  1  0  0  0
 15 19  1  0  0  0
 19 20  1  0  0  0
 15 12  1  0  0  0
 12 11  1  0  0  0
 11  1  1  0  0  0
  1  2  2  0  0  0
  2  3  1  0  0  0
  3  4  2  0  0  0
  4  5  1  0  0  0
  5  6  2  0  0  0
  6  7  1  0  0  0
  7  8  1  0  0  0
  4 22  1  0  0  0
 22 23  1  0  0  0
 23 24  2  0  0  0
 24 25  1  0  0  0
 25 26  2  0  0  0
 26 27  1  0  0  0
 27 28  2  0  0  0
 28 29  1  0  0  0
 29 30  2  0  0  0
 30 31  1  0  0  0
 31 32  2  0  0  0
 32 33  1  0  0  0
 33 34  2  0  0  0
 34 35  1  0  0  0
 35 36  2  0  0  0
 36 37  1  0  0  0
 37 38  2  0  0  0
  2  9  1  0  0  0
  9 10  1  0  0  0
  6  1  1  0  0  0
 28 23  1  0  0  0
 32 27  1  0  0  0
 38 33  1  0  0  0
 17 18  1  0  0  0
 20 21  1  0  0  0
 12 13  1  0  0  0
M  END
>  <minimizedAffinity>
0.80630

>  <minimizedRMSD>
2.26716

$$$$
CHEMBL250649


 40 42  0  0  0  0  0  0  0  0999 V2000
   17.4430   -9.7460   16.6291 C   0  0  0  0  0  0  0  0  0  0  0  0
   17.5637  -11.0876   17.0400 C   0  0  0  0  0  0  0  0  0  0  0  0
   17.2098  -11.5834   18.6885 Cl  0  0  0  0  0  0  0  0  0  0  0  0
   17.9758  -12.0608   16.1280 C   0  0  0  0  0  0  0  0  0  0  0  0
   18.2631  -11.7110   14.8088 C   0  0  0  0  0  0  0  0  0  0  0  0
   18.1498  -10.3792   14.3867 C   0  0  0  0  0  0  0  0  0  0  0  0
   17.7434   -9.3965   15.3003 C   0  0  0  0  0  0  0  0  0  0  0  0
   17.6298   -8.1052   14.8927 F   0  0  0  0  0  0  0  0  0  0  0  0
   18.4336  -10.0112   13.0338 N   0  0  0  0  0  0  0  0  0  0  0  0
   19.0967   -9.3027   12.8676 H   0  0  0  0  0  0  0  0  0  0  0  0
   17.7834  -10.6400   11.8904 C   0  0  0  0  0  0  0  0  0  0  0  0
   16.7829   -9.6918   11.2345 C   0  0  0  0  0  0  0  0  0  0  0  0
   15.5330  -10.2863   11.2936 F   0  0  0  0  0  0  0  0  0  0  0  0
   16.7263   -8.5012   11.9402 F   0  0  0  0  0  0  0  0  0  0  0  0
   17.1632   -9.4202    9.8009 C   0  0  0  0  0  0  0  0  0  0  0  0
   16.4405   -9.9954    8.7427 C   0  0  0  0  0  0  0  0  0  0  0  0
   16.7854   -9.7449    7.4513 N   0  0  0  0  0  0  0  0  0  0  0  0
   17.8304   -8.9338    7.1409 C   0  0  0  0  0  0  0  0  0  0  0  0
   18.1620   -8.6949    5.8047 C   0  0  0  0  0  0  0  0  0  0  0  0
   19.2386   -7.8591    5.4906 C   0  0  0  0  0  0  0  0  0  0  0  0
   19.9858   -7.2603    6.5118 C   0  0  0  0  0  0  0  0  0  0  0  0
   19.6601   -7.4957    7.8526 C   0  0  0  0  0  0  0  0  0  0  0  0
   18.5859   -8.3313    8.1704 C   0  0  0  0  0  0  0  0  0  0  0  0
   18.2448   -8.5803    9.4987 C   0  0  0  0  0  0  0  0  0  0  0  0
   16.9506   -8.6969   17.5806 C   0  0  0  0  0  0  0  0  0  0  0  0
   14.7333   -7.7205   18.2994 N   0  0  0  0  0  0  0  0  0  0  0  0
   15.5253   -8.3604   17.2956 C   0  0  0  0  0  0  0  0  0  0  0  0
   15.0242   -8.6700   16.1822 O   0  0  0  0  0  0  0  0  0  0  0  0
   15.1436   -7.5366   19.1752 H   0  0  0  0  0  0  0  0  0  0  0  0
   13.3474   -7.3284   18.0852 C   0  0  0  0  0  0  0  0  0  0  0  0
   13.0164   -6.0707   18.8750 C   0  0  0  0  0  0  0  0  0  0  0  0
   13.4647   -6.1948   20.1950 O   0  0  0  0  0  0  0  0  0  0  0  0
   12.4396   -5.7466   20.9618 N   0  0  0  0  0  0  0  0  0  0  0  0
   11.6250   -6.2937   21.0409 H   0  0  0  0  0  0  0  0  0  0  0  0
   13.5244   -3.7160   21.4922 N   0  0  0  0  0  0  0  0  0  0  0  0
   12.5115   -4.5007   21.6579 C   0  0  0  0  0  0  0  0  0  0  0  0
   11.5024   -4.1638   22.6036 N   0  0  0  0  0  0  0  0  0  0  0  0
   13.5674   -2.8591   21.9750 H   0  0  0  0  0  0  0  0  0  0  0  0
   11.5465   -3.3069   23.0863 H   0  0  0  0  0  0  0  0  0  0  0  0
   10.7603   -4.7877   22.7749 H   0  0  0  0  0  0  0  0  0  0  0  0
 35 36  2  0  0  0
 36 37  1  0  0  0
 36 33  1  0  0  0
 33 32  1  0  0  0
 32 31  1  0  0  0
 31 30  1  0  0  0
 30 26  1  0  0  0
 26 27  1  0  0  0
 27 28  2  0  0  0
 27 25  1  0  0  0
 25  1  1  0  0  0
  1  2  2  0  0  0
  2  3  1  0  0  0
  2  4  1  0  0  0
  4  5  2  0  0  0
  5  6  1  0  0  0
  6  9  1  0  0  0
  6  7  2  0  0  0
  9 11  1  0  0  0
 11 12  1  0  0  0
 12 13  1  0  0  0
 12 14  1  0  0  0
 12 15  1  0  0  0
 15 16  2  0  0  0
 16 17  1  0  0  0
 17 18  2  0  0  0
 18 19  1  0  0  0
 19 20  2  0  0  0
 20 21  1  0  0  0
 21 22  2  0  0  0
 22 23  1  0  0  0
 23 24  2  0  0  0
 23 18  1  0  0  0
 24 15  1  0  0  0
  7  8  1  0  0  0
  7  1  1  0  0  0
 35 38  1  0  0  0
 37 39  1  0  0  0
 37 40  1  0  0  0
 33 34  1  0  0  0
 26 29  1  0  0  0
  9 10  1  0  0  0
M  END
>  <minimizedAffinity>
-6.86530

>  <minimizedRMSD>
2.26789

$$$$
CHEMBL1860352 PubChem-136208086


 27 30  0  0  0  0  0  0  0  0999 V2000
   15.8754   -9.3976   13.5321 C   0  0  0  0  0  0  0  0  0  0  0  0
   16.8746   -9.6520   12.5843 C   0  0  0  0  0  0  0  0  0  0  0  0
   16.5308  -10.1524   11.3270 C   0  0  0  0  0  0  0  0  0  0  0  0
   15.2207  -10.3731   11.0225 N   0  0  0  0  0  0  0  0  0  0  0  0
   14.2285  -10.1279   11.9186 C   0  0  0  0  0  0  0  0  0  0  0  0
   14.5381   -9.6354   13.1874 C   0  0  0  0  0  0  0  0  0  0  0  0
   15.3795   -8.0902   15.4829 N   0  0  0  0  0  0  0  0  0  0  0  0
   16.2246   -8.8611   14.8665 C   0  0  0  0  0  0  0  0  0  0  0  0
   15.6457   -7.5662   16.7273 O   0  0  0  0  0  0  0  0  0  0  0  0
   15.0165   -7.0131   17.1471 H   0  0  0  0  0  0  0  0  0  0  0  0
   17.4974   -9.1650   15.4646 N   0  0  0  0  0  0  0  0  0  0  0  0
   17.8541  -10.2764   16.1362 C   0  0  0  0  0  0  0  0  0  0  0  0
   19.1256  -10.2279   16.5707 N   0  0  0  0  0  0  0  0  0  0  0  0
   19.5857   -9.0305   16.1483 C   0  0  0  0  0  0  0  0  0  0  0  0
   18.5798   -8.3673   15.4663 C   0  0  0  0  0  0  0  0  0  0  0  0
   16.9401  -11.4157   16.4374 C   0  0  0  0  0  0  0  0  0  0  0  0
   17.5407  -10.3961   10.3899 O   0  0  0  0  0  0  0  0  0  0  0  0
   18.3868   -9.4048    9.8767 C   0  0  0  0  0  0  0  0  0  0  0  0
   18.1760   -8.8111    8.6120 C   0  0  0  0  0  0  0  0  0  0  0  0
   19.0668   -7.8126    8.1547 C   0  0  0  0  0  0  0  0  0  0  0  0
   20.1556   -7.4277    8.9387 C   0  0  0  0  0  0  0  0  0  0  0  0
   20.3722   -8.0350   10.1770 C   0  0  0  0  0  0  0  0  0  0  0  0
   19.4959   -9.0205   10.6386 C   0  0  0  0  0  0  0  0  0  0  0  0
   18.8611   -7.2287    6.9036 C   0  0  0  0  0  0  0  0  0  0  0  0
   17.8184   -7.6286    6.1278 N   0  0  0  0  0  0  0  0  0  0  0  0
   16.9572   -8.5996    6.5345 C   0  0  0  0  0  0  0  0  0  0  0  0
   17.1229   -9.2099    7.7796 C   0  0  0  0  0  0  0  0  0  0  0  0
  7  8  2  0  0  0
  8 11  1  0  0  0
 11 12  1  0  0  0
 12 13  2  0  0  0
 13 14  1  0  0  0
 14 15  2  0  0  0
 12 16  1  0  0  0
  8  1  1  0  0  0
  1  2  2  0  0  0
  2  3  1  0  0  0
  3 17  1  0  0  0
 17 18  1  0  0  0
 18 19  2  0  0  0
 19 20  1  0  0  0
 20 21  2  0  0  0
 21 22  1  0  0  0
 22 23  2  0  0  0
 20 24  1  0  0  0
 24 25  2  0  0  0
 25 26  1  0  0  0
 26 27  2  0  0  0
  3  4  2  0  0  0
  4  5  1  0  0  0
  5  6  2  0  0  0
  7  9  1  0  0  0
 15 11  1  0  0  0
  6  1  1  0  0  0
 23 18  1  0  0  0
 27 19  1  0  0  0
  9 10  1  0  0  0
M  END
>  <minimizedAffinity>
-1.50942

>  <minimizedRMSD>
2.26849

$$$$
CHEMBL1354785 ChemDiv-G357-0504 MCULE-3680404120 MolPort-007-847-206 PubChem-16027560 ZINC000008607357


 31 34  0  0  0  0  0  0  0  0999 V2000
   17.0648  -10.3146   15.2703 C   0  0  0  0  0  0  0  0  0  0  0  0
   17.6029  -11.3755   15.6927 O   0  0  0  0  0  0  0  0  0  0  0  0
   16.3891   -9.4059   16.2103 C   0  0  0  0  0  0  0  0  0  0  0  0
   16.7729   -9.3586   17.5576 C   0  0  0  0  0  0  0  0  0  0  0  0
   16.1273   -8.4934   18.4457 C   0  0  0  0  0  0  0  0  0  0  0  0
   15.0919   -7.6654   18.0007 C   0  0  0  0  0  0  0  0  0  0  0  0
   14.7075   -7.7125   16.6526 C   0  0  0  0  0  0  0  0  0  0  0  0
   15.3521   -8.5769   15.7636 C   0  0  0  0  0  0  0  0  0  0  0  0
   14.4545   -6.7917   18.9425 N   0  0  0  0  0  0  0  0  0  0  0  0
   13.2410   -7.0437   19.6649 C   0  0  0  0  0  0  0  0  0  0  0  0
   12.6094   -8.1237   19.5123 O   0  0  0  0  0  0  0  0  0  0  0  0
   14.8963   -5.9281   19.1110 H   0  0  0  0  0  0  0  0  0  0  0  0
   12.7287   -6.0300   20.5941 C   0  0  0  0  0  0  0  0  0  0  0  0
   12.1696   -4.8125   20.2369 C   0  0  0  0  0  0  0  0  0  0  0  0
   11.7700   -4.0525   21.3459 C   0  0  0  0  0  0  0  0  0  0  0  0
   12.0087   -4.6593   22.5771 C   0  0  0  0  0  0  0  0  0  0  0  0
   12.7221   -6.1508   22.2667 S   0  0  0  0  0  0  0  0  0  0  0  0
   17.1073   -9.9968   13.9109 O   0  0  0  0  0  0  0  0  0  0  0  0
   18.0134  -10.6296   13.0193 C   0  0  0  0  0  0  0  0  0  0  0  0
   17.4163   -9.0778    9.1445 N   0  0  0  0  0  0  0  0  0  0  0  0
   17.3677   -8.5106    7.9415 N   0  0  0  0  0  0  0  0  0  0  0  0
   18.4954   -7.8127    7.6629 C   0  0  0  0  0  0  0  0  0  0  0  0
   19.6102   -7.8627    8.9420 S   0  0  0  0  0  0  0  0  0  0  0  0
   18.5575   -8.8319    9.8218 C   0  0  0  0  0  0  0  0  0  0  0  0
   18.7695   -9.3277   11.0653 N   0  0  0  0  0  0  0  0  0  0  0  0
   17.8087  -10.1019   11.6446 C   0  0  0  0  0  0  0  0  0  0  0  0
   16.6071  -10.3673   10.9671 C   0  0  0  0  0  0  0  0  0  0  0  0
   16.4261   -9.8356    9.6856 C   0  0  0  0  0  0  0  0  0  0  0  0
   15.3611  -10.0577    9.0506 O   0  0  0  0  0  0  0  0  0  0  0  0
   18.6908   -7.0441    6.4042 C   0  0  0  0  0  0  0  0  0  0  0  0
   20.0067   -7.4344    5.7617 C   0  0  0  0  0  0  0  0  0  0  0  0
 20 21  1  0  0  0
 21 22  2  0  0  0
 22 23  1  0  0  0
 23 24  1  0  0  0
 24 25  2  0  0  0
 25 26  1  0  0  0
 26 19  1  0  0  0
 19 18  1  0  0  0
 18  1  1  0  0  0
  1  2  2  0  0  0
  1  3  1  0  0  0
  3  4  2  0  0  0
  4  5  1  0  0  0
  5  6  2  0  0  0
  6  7  1  0  0  0
  7  8  2  0  0  0
  6  9  1  0  0  0
  9 10  1  0  0  0
 10 11  2  0  0  0
 10 13  1  0  0  0
 13 14  2  0  0  0
 14 15  1  0  0  0
 15 16  2  0  0  0
 16 17  1  0  0  0
 26 27  2  0  0  0
 27 28  1  0  0  0
 28 29  2  0  0  0
 22 30  1  0  0  0
 30 31  1  0  0  0
 24 20  1  0  0  0
  8  3  1  0  0  0
 17 13  1  0  0  0
 28 20  1  0  0  0
  9 12  1  0  0  0
M  END
>  <minimizedAffinity>
-6.13948

>  <minimizedRMSD>
2.26993

$$$$
CHEMBL3729760 PubChem-67496489


 38 43  0  0  0  0  0  0  0  0999 V2000
   16.8726   -9.0955   14.6229 C   0  0  0  0  0  0  0  0  0  0  0  0
   18.2706   -9.7493   14.5812 C   0  0  0  0  0  0  0  0  0  0  0  0
   19.0623   -8.9824   15.6137 C   0  0  0  0  0  0  0  0  0  0  0  0
   18.5948   -9.3077   16.8367 C   0  0  0  0  0  0  0  0  0  0  0  0
   17.4650  -10.3064   16.6677 C   0  0  0  0  0  0  0  0  0  0  0  0
   16.2897   -9.5536   15.9964 C   0  0  0  0  0  0  0  0  0  0  0  0
   17.9912  -10.9406   15.4336 C   0  0  0  0  0  0  0  0  0  0  0  0
   17.5438  -12.2811   14.9117 C   0  0  0  0  0  0  0  0  0  0  0  0
   18.9557  -12.0986   15.4990 C   0  0  0  0  0  0  0  0  0  0  0  0
   16.4258   -9.1534   12.1413 N   0  0  0  0  0  0  0  0  0  0  0  0
   16.0196   -9.5133   13.4631 C   0  0  0  0  0  0  0  0  0  0  0  0
   14.9764  -10.1993   13.6443 O   0  0  0  0  0  0  0  0  0  0  0  0
   17.2377   -8.6074   12.0319 H   0  0  0  0  0  0  0  0  0  0  0  0
   15.6938   -9.5572   10.9473 C   0  0  0  0  0  0  0  0  0  0  0  0
   16.5207  -10.5143   10.0980 C   0  0  0  0  0  0  0  0  0  0  0  0
   19.0204   -8.7562   10.4934 C   0  0  0  0  0  0  0  0  0  0  0  0
   18.3345   -9.0024    9.2342 N   0  0  0  0  0  0  0  0  0  0  0  0
   18.6476   -8.5201    8.0256 C   0  0  0  0  0  0  0  0  0  0  0  0
   19.6901   -7.6667    7.6662 C   0  0  0  0  0  0  0  0  0  0  0  0
   19.7912   -7.3124    6.3081 C   0  0  0  0  0  0  0  0  0  0  0  0
   18.8654   -7.8115    5.3638 C   0  0  0  0  0  0  0  0  0  0  0  0
   17.8259   -8.6723    5.7645 C   0  0  0  0  0  0  0  0  0  0  0  0
   17.7531   -9.0044    7.1147 C   0  0  0  0  0  0  0  0  0  0  0  0
   16.8507   -9.8038    7.7154 N   0  0  0  0  0  0  0  0  0  0  0  0
   17.2439   -9.7778    9.0171 C   0  0  0  0  0  0  0  0  0  0  0  0
   15.7567   -8.4261   16.8350 C   0  0  0  0  0  0  0  0  0  0  0  0
   15.3131   -7.3758   16.2943 O   0  0  0  0  0  0  0  0  0  0  0  0
   15.7531   -8.5595   18.2579 N   0  0  0  0  0  0  0  0  0  0  0  0
   16.0437   -9.4134   18.6523 H   0  0  0  0  0  0  0  0  0  0  0  0
   15.3376   -7.4850   19.1492 C   0  0  0  0  0  0  0  0  0  0  0  0
   13.9375   -7.7475   19.6902 C   0  0  0  0  0  0  0  0  0  0  0  0
   13.4171   -6.5581   20.4825 C   0  0  0  0  0  0  0  0  0  0  0  0
   14.4414   -6.1172   21.5145 C   0  0  0  0  0  0  0  0  0  0  0  0
   14.1585   -6.7508   22.7916 N   0  0  0  0  0  0  0  0  0  0  0  0
   15.3961   -7.3684   23.2409 C   0  0  0  0  0  0  0  0  0  0  0  0
   15.4704   -7.1837   24.7352 C   0  0  0  0  0  0  0  0  0  0  0  0
   14.7101   -5.9107   24.9905 C   0  0  0  0  0  0  0  0  0  0  0  0
   13.8664   -5.6890   23.7502 C   0  0  0  0  0  0  0  0  0  0  0  0
 16 17  1  0  0  0
 17 18  1  0  0  0
 18 19  2  0  0  0
 19 20  1  0  0  0
 20 21  2  0  0  0
 21 22  1  0  0  0
 22 23  2  0  0  0
 23 24  1  0  0  0
 23 18  1  0  0  0
 24 25  2  0  0  0
 25 15  1  0  0  0
 25 17  1  0  0  0
 15 14  1  0  0  0
 14 10  1  0  0  0
 10 11  1  0  0  0
 11 12  2  0  0  0
  1 11  1  0  0  0
  1  2  1  0  0  0
  2  3  1  0  0  0
  3  4  2  0  0  0
  5  4  1  0  0  0
  5  6  1  0  0  0
  5  7  1  0  0  0
  6 26  1  0  0  0
  6  1  1  0  0  0
 26 27  2  0  0  0
 26 28  1  0  0  0
 28 30  1  0  0  0
 30 31  1  0  0  0
 31 32  1  0  0  0
 32 33  1  0  0  0
 33 34  1  0  0  0
 34 35  1  0  0  0
 35 36  1  0  0  0
 36 37  1  0  0  0
 37 38  1  0  0  0
 38 34  1  0  0  0
  7  8  1  0  0  0
  7  2  1  0  0  0
  8  9  1  0  0  0
  9  7  1  0  0  0
 10 13  1  0  0  0
 28 29  1  0  0  0
M  END
>  <minimizedAffinity>
-7.33195

>  <minimizedRMSD>
2.27216

$$$$
CHEMBL3967097 PubChem-121292598 PubChem-71283528


 38 41  0  0  0  0  0  0  0  0999 V2000
   16.5825   -9.5060   16.2476 C   0  0  0  0  0  0  0  0  0  0  0  0
   16.6983   -9.4732   14.8515 C   0  0  0  0  0  0  0  0  0  0  0  0
   17.4695  -10.4229   14.1721 C   0  0  0  0  0  0  0  0  0  0  0  0
   18.1738  -11.3951   14.9109 C   0  0  0  0  0  0  0  0  0  0  0  0
   18.0587  -11.4308   16.3027 C   0  0  0  0  0  0  0  0  0  0  0  0
   17.2621  -10.4968   16.9671 C   0  0  0  0  0  0  0  0  0  0  0  0
   19.0223  -12.2628   14.3073 F   0  0  0  0  0  0  0  0  0  0  0  0
   15.7013   -8.5145   18.3839 N   0  0  0  0  0  0  0  0  0  0  0  0
   15.7777   -8.4948   16.9556 C   0  0  0  0  0  0  0  0  0  0  0  0
   15.1715   -7.5993   16.3048 O   0  0  0  0  0  0  0  0  0  0  0  0
   16.1461   -9.2431   18.8742 H   0  0  0  0  0  0  0  0  0  0  0  0
   14.9881   -7.4936   19.1357 C   0  0  0  0  0  0  0  0  0  0  0  0
   15.9535   -6.7535   20.0467 C   0  0  0  0  0  0  0  0  0  0  0  0
   15.7968   -7.1998   21.4321 N   0  0  0  0  0  0  0  0  0  0  0  0
   16.8949   -6.6129   22.1991 C   0  0  0  0  0  0  0  0  0  0  0  0
   13.4225   -7.8225   21.6647 C   0  0  0  0  0  0  0  0  0  0  0  0
   14.4845   -6.7795   21.9802 C   0  0  0  0  0  0  0  0  0  0  0  0
   14.0211   -5.4344   21.4237 C   0  0  0  0  0  0  0  0  0  0  0  0
   14.5581   -6.6758   23.4962 C   0  0  0  0  0  0  0  0  0  0  0  0
   17.5738  -10.3189   12.7465 N   0  0  0  0  0  0  0  0  0  0  0  0
   16.8504   -9.4057   11.9125 C   0  0  0  0  0  0  0  0  0  0  0  0
   16.2761   -8.4024   12.4157 O   0  0  0  0  0  0  0  0  0  0  0  0
   18.2008  -10.9319   12.2987 H   0  0  0  0  0  0  0  0  0  0  0  0
   16.8038   -9.6095   10.4540 C   0  0  0  0  0  0  0  0  0  0  0  0
   15.9114  -10.4340    9.7809 C   0  0  0  0  0  0  0  0  0  0  0  0
   16.1809  -10.3797    8.4524 N   0  0  0  0  0  0  0  0  0  0  0  0
   17.2209   -9.5293    8.3589 C   0  0  0  0  0  0  0  0  0  0  0  0
   17.6186   -9.0473    9.5452 N   0  0  0  0  0  0  0  0  0  0  0  0
   18.6377   -8.1621    9.6858 C   0  0  0  0  0  0  0  0  0  0  0  0
   19.3088   -7.7394    8.5307 C   0  0  0  0  0  0  0  0  0  0  0  0
   18.9222   -8.2339    7.2645 C   0  0  0  0  0  0  0  0  0  0  0  0
   17.8525   -9.1460    7.1790 C   0  0  0  0  0  0  0  0  0  0  0  0
   19.6377   -7.7704    6.0507 C   0  0  0  0  0  0  0  0  0  0  0  0
   20.8662   -7.1296    6.0575 C   0  0  0  0  0  0  0  0  0  0  0  0
   21.1329   -6.8883    4.7172 C   0  0  0  0  0  0  0  0  0  0  0  0
   20.1203   -7.3639    3.9656 N   0  0  0  0  0  0  0  0  0  0  0  0
   19.2199   -7.8912    4.7733 N   0  0  0  0  0  0  0  0  0  0  0  0
   18.0117   -8.5383    4.2852 C   0  0  0  0  0  0  0  0  0  0  0  0
 16 17  1  0  0  0
 17 18  1  0  0  0
 17 19  1  0  0  0
 17 14  1  0  0  0
 14 15  1  0  0  0
 14 13  1  0  0  0
 13 12  1  0  0  0
 12  8  1  0  0  0
  8  9  1  0  0  0
  9 10  2  0  0  0
  9  1  1  0  0  0
  1  2  2  0  0  0
  2  3  1  0  0  0
  3  4  2  0  0  0
  3 20  1  0  0  0
  4  5  1  0  0  0
  4  7  1  0  0  0
  5  6  2  0  0  0
  6  1  1  0  0  0
 20 21  1  0  0  0
 21 22  2  0  0  0
 21 24  1  0  0  0
 24 25  2  0  0  0
 25 26  1  0  0  0
 26 27  2  0  0  0
 27 28  1  0  0  0
 28 29  1  0  0  0
 28 24  1  0  0  0
 29 30  2  0  0  0
 30 31  1  0  0  0
 31 32  2  0  0  0
 31 33  1  0  0  0
 32 27  1  0  0  0
 33 34  2  0  0  0
 34 35  1  0  0  0
 35 36  2  0  0  0
 36 37  1  0  0  0
 37 38  1  0  0  0
 37 33  1  0  0  0
  8 11  1  0  0  0
 20 23  1  0  0  0
M  END
>  <minimizedAffinity>
-9.34900

>  <minimizedRMSD>
2.27400

$$$$
CHEMBL4637474 PubChem-155811841


 32 35  0  0  0  0  0  0  0  0999 V2000
   17.5821   -9.5760   12.4674 C   0  0  0  0  0  0  0  0  0  0  0  0
   17.1550   -9.6516   13.7036 O   0  0  0  0  0  0  0  0  0  0  0  0
   17.5450  -10.8319   14.1203 C   0  0  0  0  0  0  0  0  0  0  0  0
   18.2174  -11.4965   13.1609 N   0  0  0  0  0  0  0  0  0  0  0  0
   18.2353  -10.6985   12.1037 N   0  0  0  0  0  0  0  0  0  0  0  0
   17.3242   -8.4132   11.5673 C   0  0  0  0  0  0  0  0  0  0  0  0
   19.1065   -8.3066    6.6691 C   0  0  0  0  0  0  0  0  0  0  0  0
   17.9785   -9.1428    6.7873 C   0  0  0  0  0  0  0  0  0  0  0  0
   17.3772   -9.2323    8.0397 C   0  0  0  0  0  0  0  0  0  0  0  0
   17.8556   -8.5539    9.1235 C   0  0  0  0  0  0  0  0  0  0  0  0
   18.9714   -7.7206    9.0465 C   0  0  0  0  0  0  0  0  0  0  0  0
   19.5970   -7.5978    7.7910 C   0  0  0  0  0  0  0  0  0  0  0  0
   17.1041   -8.8566   10.1932 N   0  0  0  0  0  0  0  0  0  0  0  0
   16.1665   -9.7233    9.7132 C   0  0  0  0  0  0  0  0  0  0  0  0
   16.3138   -9.9819    8.3836 N   0  0  0  0  0  0  0  0  0  0  0  0
   15.0769  -10.3716   10.5271 C   0  0  0  0  0  0  0  0  0  0  0  0
   13.9245  -10.4506    9.7623 F   0  0  0  0  0  0  0  0  0  0  0  0
   14.7936   -9.6535   11.6759 F   0  0  0  0  0  0  0  0  0  0  0  0
   15.4733  -11.6496   10.8861 F   0  0  0  0  0  0  0  0  0  0  0  0
   17.2071  -11.4873   15.7532 S   0  0  0  0  0  0  0  0  0  0  0  0
   16.2733  -10.0019   16.2500 C   0  0  0  0  0  0  0  0  0  0  0  0
   17.1594   -8.9948   16.9190 C   0  0  0  0  0  0  0  0  0  0  0  0
   18.3589   -8.8863   16.5501 O   0  0  0  0  0  0  0  0  0  0  0  0
   16.6841   -8.1383   17.9666 N   0  0  0  0  0  0  0  0  0  0  0  0
   17.3741   -7.6682   18.4883 H   0  0  0  0  0  0  0  0  0  0  0  0
   15.3231   -7.8842   18.3456 C   0  0  0  0  0  0  0  0  0  0  0  0
   14.8916   -7.9759   19.6781 C   0  0  0  0  0  0  0  0  0  0  0  0
   13.5469   -7.7671   20.0004 C   0  0  0  0  0  0  0  0  0  0  0  0
   12.6268   -7.4581   18.9973 C   0  0  0  0  0  0  0  0  0  0  0  0
   13.0487   -7.3667   17.6680 C   0  0  0  0  0  0  0  0  0  0  0  0
   14.3916   -7.5845   17.3432 C   0  0  0  0  0  0  0  0  0  0  0  0
   11.3234   -7.2603   19.3091 F   0  0  0  0  0  0  0  0  0  0  0  0
  7  8  2  0  0  0
  8  9  1  0  0  0
  9 10  2  0  0  0
 10 11  1  0  0  0
 11 12  2  0  0  0
 10 13  1  0  0  0
 13 14  1  0  0  0
 14 15  2  0  0  0
 14 16  1  0  0  0
 16 17  1  0  0  0
 16 18  1  0  0  0
 16 19  1  0  0  0
 13  6  1  0  0  0
  6  1  1  0  0  0
  1  2  1  0  0  0
  2  3  1  0  0  0
  3  4  2  0  0  0
  4  5  1  0  0  0
  3 20  1  0  0  0
 20 21  1  0  0  0
 21 22  1  0  0  0
 22 23  2  0  0  0
 22 24  1  0  0  0
 24 26  1  0  0  0
 26 27  2  0  0  0
 27 28  1  0  0  0
 28 29  2  0  0  0
 29 30  1  0  0  0
 30 31  2  0  0  0
 29 32  1  0  0  0
 12  7  1  0  0  0
  5  1  2  0  0  0
 31 26  1  0  0  0
 15  9  1  0  0  0
 24 25  1  0  0  0
M  END
>  <minimizedAffinity>
-5.31945

>  <minimizedRMSD>
2.27609

$$$$
CHEMBL3775154 PubChem-127032658


 28 30  0  0  0  0  0  0  0  0999 V2000
   18.1552  -11.6357   14.3108 C   0  0  0  0  0  0  0  0  0  0  0  0
   18.3030  -12.7821   14.8107 O   0  0  0  0  0  0  0  0  0  0  0  0
   17.7546  -10.5074   15.1625 C   0  0  0  0  0  0  0  0  0  0  0  0
   16.5478  -10.0001   15.1845 O   0  0  0  0  0  0  0  0  0  0  0  0
   16.5418   -9.0181   16.0485 C   0  0  0  0  0  0  0  0  0  0  0  0
   17.7880   -8.8561   16.6213 C   0  0  0  0  0  0  0  0  0  0  0  0
   18.5829   -9.8336   16.0430 C   0  0  0  0  0  0  0  0  0  0  0  0
   15.3489   -8.1736   16.3391 C   0  0  0  0  0  0  0  0  0  0  0  0
   15.2676   -7.8945   17.7657 N   0  0  0  0  0  0  0  0  0  0  0  0
   14.0942   -7.3548   18.3834 C   0  0  0  0  0  0  0  0  0  0  0  0
   13.0525   -7.1494   17.7052 O   0  0  0  0  0  0  0  0  0  0  0  0
   16.0522   -8.0850   18.3290 H   0  0  0  0  0  0  0  0  0  0  0  0
   14.0915   -7.0316   19.8404 C   0  0  0  0  0  0  0  0  0  0  0  0
   12.9177   -7.6989   20.5306 C   0  0  0  0  0  0  0  0  0  0  0  0
   15.3900   -7.4773   20.4843 C   0  0  0  0  0  0  0  0  0  0  0  0
   18.4121  -11.4402   12.8527 C   0  0  0  0  0  0  0  0  0  0  0  0
   18.5663   -9.6707   12.4447 S   0  0  0  0  0  0  0  0  0  0  0  0
   15.4117   -9.9849    9.1583 N   0  0  0  0  0  0  0  0  0  0  0  0
   15.2110  -10.4999   10.4014 C   0  0  0  0  0  0  0  0  0  0  0  0
   16.1757  -10.3857   11.3593 N   0  0  0  0  0  0  0  0  0  0  0  0
   17.3639   -9.7622   11.1145 C   0  0  0  0  0  0  0  0  0  0  0  0
   17.5863   -9.2191    9.8353 C   0  0  0  0  0  0  0  0  0  0  0  0
   16.5813   -9.3582    8.8918 C   0  0  0  0  0  0  0  0  0  0  0  0
   17.0219   -8.6581    7.4341 S   0  0  0  0  0  0  0  0  0  0  0  0
   18.5342   -8.1527    7.9893 C   0  0  0  0  0  0  0  0  0  0  0  0
   18.7067   -8.5290    9.3244 C   0  0  0  0  0  0  0  0  0  0  0  0
   19.9504   -8.2130   10.0869 C   0  0  0  0  0  0  0  0  0  0  0  0
   19.5233   -7.4126    7.1571 C   0  0  0  0  0  0  0  0  0  0  0  0
 18 19  2  0  0  0
 19 20  1  0  0  0
 20 21  2  0  0  0
 21 22  1  0  0  0
 22 23  2  0  0  0
 23 24  1  0  0  0
 24 25  1  0  0  0
 25 26  2  0  0  0
 26 27  1  0  0  0
 25 28  1  0  0  0
 21 17  1  0  0  0
 17 16  1  0  0  0
 16  1  1  0  0  0
  1  2  2  0  0  0
  1  3  1  0  0  0
  3  4  1  0  0  0
  4  5  1  0  0  0
  5  6  2  0  0  0
  6  7  1  0  0  0
  5  8  1  0  0  0
  8  9  1  0  0  0
  9 10  1  0  0  0
 10 11  2  0  0  0
 10 13  1  0  0  0
 13 14  1  0  0  0
 13 15  1  0  0  0
 23 18  1  0  0  0
  7  3  2  0  0  0
 26 22  1  0  0  0
  9 12  1  0  0  0
M  END
>  <minimizedAffinity>
-7.83424

>  <minimizedRMSD>
2.27630

$$$$
CHEMBL4948161 MCULE-3687945980 MolPort-019-889-937


 28 30  0  0  0  0  0  0  0  0999 V2000
   14.8418   -9.9267   10.9639 N   0  0  0  0  0  0  0  0  0  0  0  0
   15.7026  -10.0514   12.0980 C   0  0  0  0  0  0  0  0  0  0  0  0
   16.8151  -10.6348   12.0001 O   0  0  0  0  0  0  0  0  0  0  0  0
   13.9609   -9.5040   11.0845 H   0  0  0  0  0  0  0  0  0  0  0  0
   15.2133  -10.3987    9.6376 C   0  0  0  0  0  0  0  0  0  0  0  0
   16.6426   -9.4738    7.8080 N   0  0  0  0  0  0  0  0  0  0  0  0
   17.7922   -8.7823    7.8158 C   0  0  0  0  0  0  0  0  0  0  0  0
   18.5328   -8.3309    6.7223 C   0  0  0  0  0  0  0  0  0  0  0  0
   18.0937   -8.5805    5.3220 C   0  0  0  0  0  0  0  0  0  0  0  0
   19.7211   -7.6258    6.9852 C   0  0  0  0  0  0  0  0  0  0  0  0
   20.1348   -7.3937    8.3159 C   0  0  0  0  0  0  0  0  0  0  0  0
   19.3655   -7.8640    9.3968 C   0  0  0  0  0  0  0  0  0  0  0  0
   18.1945   -8.5567    9.0977 C   0  0  0  0  0  0  0  0  0  0  0  0
   17.3208   -9.0939    9.9605 N   0  0  0  0  0  0  0  0  0  0  0  0
   16.3898   -9.6351    9.1327 C   0  0  0  0  0  0  0  0  0  0  0  0
   17.3472   -9.0958   10.9447 H   0  0  0  0  0  0  0  0  0  0  0  0
   15.2951   -9.4569   13.3982 C   0  0  0  0  0  0  0  0  0  0  0  0
   16.4803   -8.7472   14.0299 C   0  0  0  0  0  0  0  0  0  0  0  0
   17.0009   -9.5295   15.2006 C   0  0  0  0  0  0  0  0  0  0  0  0
   18.0543  -10.4453   15.0373 C   0  0  0  0  0  0  0  0  0  0  0  0
   18.6757  -10.6849   13.7023 C   0  0  0  0  0  0  0  0  0  0  0  0
   18.5206  -11.1371   16.1090 N   0  0  0  0  0  0  0  0  0  0  0  0
   17.9922  -10.9567   17.3460 C   0  0  0  0  0  0  0  0  0  0  0  0
   16.9822  -10.0695   17.5313 N   0  0  0  0  0  0  0  0  0  0  0  0
   16.4768   -9.3522   16.4946 C   0  0  0  0  0  0  0  0  0  0  0  0
   15.3800   -8.3776   16.7652 C   0  0  0  0  0  0  0  0  0  0  0  0
   18.4874  -11.6784   18.4233 O   0  0  0  0  0  0  0  0  0  0  0  0
   19.1847  -12.2911   18.2959 H   0  0  0  0  0  0  0  0  0  0  0  0
  6  7  1  0  0  0
  7  8  2  0  0  0
  8  9  1  0  0  0
  8 10  1  0  0  0
 10 11  2  0  0  0
 11 12  1  0  0  0
 12 13  2  0  0  0
 13 14  1  0  0  0
 14 15  1  0  0  0
 15  5  1  0  0  0
  5  1  1  0  0  0
  1  2  1  0  0  0
  2 17  1  0  0  0
 17 18  1  0  0  0
 18 19  1  0  0  0
 19 20  2  0  0  0
 20 21  1  0  0  0
 20 22  1  0  0  0
 22 23  2  0  0  0
 23 24  1  0  0  0
 24 25  2  0  0  0
 25 26  1  0  0  0
 23 27  1  0  0  0
  2  3  2  0  0  0
 15  6  2  0  0  0
 25 19  1  0  0  0
 13  7  1  0  0  0
 14 16  1  0  0  0
  1  4  1  0  0  0
 27 28  1  0  0  0
M  END
>  <minimizedAffinity>
-6.64336

>  <minimizedRMSD>
2.27756

$$$$
CHEMBL1449103 ChemDiv-3391-6887 LN00498434 MCULE-4518233027 MolPort-000-469-270


 34 38  0  0  0  0  0  0  0  0999 V2000
   15.4905  -10.2468   10.4366 C   0  0  0  0  0  0  0  0  0  0  0  0
   14.3342  -10.8896   10.7487 N   0  0  0  0  0  0  0  0  0  0  0  0
   13.8000  -10.8047   11.9953 C   0  0  0  0  0  0  0  0  0  0  0  0
   12.6194  -11.4719   12.2908 O   0  0  0  0  0  0  0  0  0  0  0  0
   14.4379  -10.0493   12.9777 C   0  0  0  0  0  0  0  0  0  0  0  0
   15.6191   -9.3904   12.6408 C   0  0  0  0  0  0  0  0  0  0  0  0
   16.1237   -9.5041   11.3849 N   0  0  0  0  0  0  0  0  0  0  0  0
   12.1903  -11.9797   11.6306 H   0  0  0  0  0  0  0  0  0  0  0  0
   16.0246  -10.3672    9.1126 N   0  0  0  0  0  0  0  0  0  0  0  0
   15.6178  -11.0468    8.5279 H   0  0  0  0  0  0  0  0  0  0  0  0
   19.3378   -7.6942    3.1958 C   0  0  0  0  0  0  0  0  0  0  0  0
   19.2710   -7.8376    4.6733 C   0  0  0  0  0  0  0  0  0  0  0  0
   18.2432   -8.5853    5.2557 C   0  0  0  0  0  0  0  0  0  0  0  0
   18.1775   -8.7212    6.6453 C   0  0  0  0  0  0  0  0  0  0  0  0
   17.1795   -9.4467    7.2110 N   0  0  0  0  0  0  0  0  0  0  0  0
   17.0949   -9.5918    8.5594 C   0  0  0  0  0  0  0  0  0  0  0  0
   18.0239   -9.0027    9.3619 N   0  0  0  0  0  0  0  0  0  0  0  0
   19.0442   -8.2661    8.8503 C   0  0  0  0  0  0  0  0  0  0  0  0
   20.0267   -7.6470    9.7881 C   0  0  0  0  0  0  0  0  0  0  0  0
   19.1486   -8.1039    7.4610 C   0  0  0  0  0  0  0  0  0  0  0  0
   20.1766   -7.3553    6.8690 C   0  0  0  0  0  0  0  0  0  0  0  0
   20.2355   -7.2237    5.4784 C   0  0  0  0  0  0  0  0  0  0  0  0
   16.3462   -8.5900   13.6615 C   0  0  0  0  0  0  0  0  0  0  0  0
   17.0390   -9.6919   14.9284 S   0  0  0  0  0  0  0  0  0  0  0  0
   16.1131   -8.8927   16.2302 C   0  0  0  0  0  0  0  0  0  0  0  0
   14.9040   -8.3120   16.0149 N   0  0  0  0  0  0  0  0  0  0  0  0
   14.5881   -7.8510   17.2328 C   0  0  0  0  0  0  0  0  0  0  0  0
   13.4386   -7.1603   17.6080 C   0  0  0  0  0  0  0  0  0  0  0  0
   13.3279   -6.7739   18.9567 C   0  0  0  0  0  0  0  0  0  0  0  0
   14.3531   -7.0838   19.8785 C   0  0  0  0  0  0  0  0  0  0  0  0
   15.5011   -7.7839   19.4626 C   0  0  0  0  0  0  0  0  0  0  0  0
   15.5758   -8.1503   18.1213 C   0  0  0  0  0  0  0  0  0  0  0  0
   16.5650   -8.8159   17.5090 N   0  0  0  0  0  0  0  0  0  0  0  0
   17.4050   -9.1611   17.8891 H   0  0  0  0  0  0  0  0  0  0  0  0
 11 12  1  0  0  0
 12 13  2  0  0  0
 13 14  1  0  0  0
 14 15  2  0  0  0
 15 16  1  0  0  0
 16  9  1  0  0  0
 16 17  2  0  0  0
  9  1  1  0  0  0
  1  2  2  0  0  0
  2  3  1  0  0  0
  3  4  1  0  0  0
  3  5  2  0  0  0
  5  6  1  0  0  0
  6 23  1  0  0  0
  6  7  2  0  0  0
 23 24  1  0  0  0
 24 25  1  0  0  0
 25 26  2  0  0  0
 26 27  1  0  0  0
 27 28  2  0  0  0
 28 29  1  0  0  0
 29 30  2  0  0  0
 30 31  1  0  0  0
 31 32  2  0  0  0
 32 33  1  0  0  0
 32 27  1  0  0  0
 33 25  1  0  0  0
  7  1  1  0  0  0
 17 18  1  0  0  0
 18 19  1  0  0  0
 18 20  2  0  0  0
 20 21  1  0  0  0
 20 14  1  0  0  0
 21 22  2  0  0  0
 22 12  1  0  0  0
  9 10  1  0  0  0
  4  8  1  0  0  0
 33 34  1  0  0  0
M  END
>  <minimizedAffinity>
-4.35090

>  <minimizedRMSD>
2.28471

$$$$
CHEMBL3323004 PubChem-117871083


 37 41  0  0  0  0  0  0  0  0999 V2000
   17.7640  -11.4900   15.0752 N   0  0  0  0  0  0  0  0  0  0  0  0
   16.5098  -10.7309   14.9591 C   0  0  0  0  0  0  0  0  0  0  0  0
   16.6555   -9.4894   14.0743 C   0  0  0  0  0  0  0  0  0  0  0  0
   17.2407   -9.8750   12.7963 N   0  0  0  0  0  0  0  0  0  0  0  0
   18.4858  -10.6290   12.8478 C   0  0  0  0  0  0  0  0  0  0  0  0
   18.2993  -11.8500   13.7528 C   0  0  0  0  0  0  0  0  0  0  0  0
   16.5251   -9.7476   11.5526 C   0  0  0  0  0  0  0  0  0  0  0  0
   15.1936  -10.0310   11.5306 N   0  0  0  0  0  0  0  0  0  0  0  0
   14.4434   -9.9159   10.4002 C   0  0  0  0  0  0  0  0  0  0  0  0
   15.0422   -9.5500    9.2347 N   0  0  0  0  0  0  0  0  0  0  0  0
   16.3671   -9.2672    9.1835 C   0  0  0  0  0  0  0  0  0  0  0  0
   17.1563   -9.3600   10.3511 C   0  0  0  0  0  0  0  0  0  0  0  0
   18.5326   -9.1015   10.2660 C   0  0  0  0  0  0  0  0  0  0  0  0
   19.1112   -8.7361    9.0475 C   0  0  0  0  0  0  0  0  0  0  0  0
   18.3208   -8.6333    7.9001 C   0  0  0  0  0  0  0  0  0  0  0  0
   16.9512   -8.9011    7.9673 C   0  0  0  0  0  0  0  0  0  0  0  0
   12.9829  -10.2938   10.4174 C   0  0  0  0  0  0  0  0  0  0  0  0
   12.6500  -11.1285   11.6429 C   0  0  0  0  0  0  0  0  0  0  0  0
   12.1000   -9.0573   10.4396 C   0  0  0  0  0  0  0  0  0  0  0  0
   12.6617  -11.1010    9.1753 C   0  0  0  0  0  0  0  0  0  0  0  0
   18.7487  -10.7130   15.8245 C   0  0  0  0  0  0  0  0  0  0  0  0
   18.4573  -10.7894   17.3168 C   0  0  0  0  0  0  0  0  0  0  0  0
   17.0660  -10.2620   17.6294 C   0  0  0  0  0  0  0  0  0  0  0  0
   16.9800   -8.7761   17.3229 C   0  0  0  0  0  0  0  0  0  0  0  0
   14.8294   -7.5689   17.8884 C   0  0  0  0  0  0  0  0  0  0  0  0
   14.4572   -7.6081   16.6844 O   0  0  0  0  0  0  0  0  0  0  0  0
   16.0914   -8.1230   18.2718 N   0  0  0  0  0  0  0  0  0  0  0  0
   16.3692   -8.0600   19.2142 H   0  0  0  0  0  0  0  0  0  0  0  0
   10.9905   -4.7581   21.3874 C   0  0  0  0  0  0  0  0  0  0  0  0
   11.7011   -5.3856   22.4285 C   0  0  0  0  0  0  0  0  0  0  0  0
   12.7839   -6.2212   22.1188 C   0  0  0  0  0  0  0  0  0  0  0  0
   13.1037   -6.3905   20.8122 N   0  0  0  0  0  0  0  0  0  0  0  0
   12.4416   -5.8034   19.8032 C   0  0  0  0  0  0  0  0  0  0  0  0
   11.3579   -4.9632   20.0476 C   0  0  0  0  0  0  0  0  0  0  0  0
   12.9367   -6.1177   18.5933 N   0  0  0  0  0  0  0  0  0  0  0  0
   13.9642   -6.9486   18.8977 C   0  0  0  0  0  0  0  0  0  0  0  0
   14.0825   -7.1294   20.2719 C   0  0  0  0  0  0  0  0  0  0  0  0
 29 30  1  0  0  0
 30 31  2  0  0  0
 31 32  1  0  0  0
 32 33  1  0  0  0
 33 34  1  0  0  0
 33 35  2  0  0  0
 35 36  1  0  0  0
 36 37  2  0  0  0
 36 25  1  0  0  0
 25 26  2  0  0  0
 25 27  1  0  0  0
 27 24  1  0  0  0
 24 23  1  0  0  0
 23 22  1  0  0  0
 22 21  1  0  0  0
 21  1  1  0  0  0
  1  2  1  0  0  0
  2  3  1  0  0  0
  3  4  1  0  0  0
  4  5  1  0  0  0
  5  6  1  0  0  0
  4  7  1  0  0  0
  7  8  2  0  0  0
  8  9  1  0  0  0
  9 10  2  0  0  0
 10 11  1  0  0  0
 11 12  2  0  0  0
 12 13  1  0  0  0
 13 14  2  0  0  0
 14 15  1  0  0  0
 15 16  2  0  0  0
  9 17  1  0  0  0
 17 18  1  0  0  0
 17 19  1  0  0  0
 17 20  1  0  0  0
 34 29  2  0  0  0
  6  1  1  0  0  0
 12  7  1  0  0  0
 37 32  1  0  0  0
 16 11  1  0  0  0
 27 28  1  0  0  0
M  END
>  <minimizedAffinity>
-1.41434

>  <minimizedRMSD>
2.28927

$$$$
CHEMBL5308990 89866722 CSC026184755 MCULE-5832705513 MolPort-027-669-970 Z1513492613 ZINC000089866722


 34 39  0  0  0  0  0  0  0  0999 V2000
   17.9531  -12.2039   15.4155 O   0  0  0  0  0  0  0  0  0  0  0  0
   17.5061  -11.0948   15.0122 C   0  0  0  0  0  0  0  0  0  0  0  0
   17.4458  -10.8362   13.5981 N   0  0  0  0  0  0  0  0  0  0  0  0
   18.3186  -11.5941   12.7012 C   0  0  0  0  0  0  0  0  0  0  0  0
   18.8525  -10.6839   11.5961 C   0  0  0  0  0  0  0  0  0  0  0  0
   17.7960   -9.8287   11.0412 N   0  0  0  0  0  0  0  0  0  0  0  0
   16.4195   -9.9782   11.5123 C   0  0  0  0  0  0  0  0  0  0  0  0
   16.3902   -9.9826   13.0393 C   0  0  0  0  0  0  0  0  0  0  0  0
   17.0767  -10.0924   16.0149 C   0  0  0  0  0  0  0  0  0  0  0  0
   15.7246   -9.6967   16.1139 C   0  0  0  0  0  0  0  0  0  0  0  0
   15.3965   -8.7307   17.0602 C   0  0  0  0  0  0  0  0  0  0  0  0
   16.3285   -8.1649   17.8683 C   0  0  0  0  0  0  0  0  0  0  0  0
   15.7513   -7.2692   18.6799 N   0  0  0  0  0  0  0  0  0  0  0  0
   14.4415   -7.3283   18.3193 C   0  0  0  0  0  0  0  0  0  0  0  0
   14.1870   -8.2184   17.3234 N   0  0  0  0  0  0  0  0  0  0  0  0
   17.6742   -8.5114   17.8022 C   0  0  0  0  0  0  0  0  0  0  0  0
   18.0434   -9.4865   16.8575 C   0  0  0  0  0  0  0  0  0  0  0  0
   16.1724   -6.7058   19.3688 H   0  0  0  0  0  0  0  0  0  0  0  0
   18.0511   -8.9957    9.8959 C   0  0  0  0  0  0  0  0  0  0  0  0
   19.3515   -8.5774    9.5433 C   0  0  0  0  0  0  0  0  0  0  0  0
   19.5030   -7.7638    8.3993 C   0  0  0  0  0  0  0  0  0  0  0  0
   20.7720   -7.3204    8.0159 C   0  0  0  0  0  0  0  0  0  0  0  0
   21.8945   -7.6714    8.7703 C   0  0  0  0  0  0  0  0  0  0  0  0
   21.7508   -8.4627    9.9128 C   0  0  0  0  0  0  0  0  0  0  0  0
   20.4849   -8.9110   10.2999 C   0  0  0  0  0  0  0  0  0  0  0  0
   18.4148   -7.3968    7.6782 N   0  0  0  0  0  0  0  0  0  0  0  0
   17.1653   -7.7935    8.0389 C   0  0  0  0  0  0  0  0  0  0  0  0
   16.9998   -8.5790    9.1377 N   0  0  0  0  0  0  0  0  0  0  0  0
   15.9957   -7.3744    7.2445 C   0  0  0  0  0  0  0  0  0  0  0  0
   16.1237   -7.0834    5.8797 C   0  0  0  0  0  0  0  0  0  0  0  0
   15.0398   -6.6972    5.1544 N   0  0  0  0  0  0  0  0  0  0  0  0
   13.8086   -6.5812    5.7202 C   0  0  0  0  0  0  0  0  0  0  0  0
   13.6325   -6.8607    7.0764 C   0  0  0  0  0  0  0  0  0  0  0  0
   14.7323   -7.2583    7.8380 C   0  0  0  0  0  0  0  0  0  0  0  0
  1  2  2  0  0  0
  2  9  1  0  0  0
  9 10  2  0  0  0
 10 11  1  0  0  0
 11 12  2  0  0  0
 12 13  1  0  0  0
 13 14  1  0  0  0
 14 15  2  0  0  0
 12 16  1  0  0  0
 16 17  2  0  0  0
  2  3  1  0  0  0
  3  4  1  0  0  0
  4  5  1  0  0  0
  5  6  1  0  0  0
  6 19  1  0  0  0
 19 20  1  0  0  0
 20 21  1  0  0  0
 21 22  2  0  0  0
 22 23  1  0  0  0
 23 24  2  0  0  0
 24 25  1  0  0  0
 21 26  1  0  0  0
 26 27  2  0  0  0
 27 29  1  0  0  0
 29 30  2  0  0  0
 30 31  1  0  0  0
 31 32  2  0  0  0
 32 33  1  0  0  0
 33 34  2  0  0  0
 27 28  1  0  0  0
  6  7  1  0  0  0
  7  8  1  0  0  0
 17  9  1  0  0  0
  8  3  1  0  0  0
 15 11  1  0  0  0
 28 19  2  0  0  0
 25 20  2  0  0  0
 34 29  1  0  0  0
 13 18  1  0  0  0
M  END
>  <minimizedAffinity>
25.34325

>  <minimizedRMSD>
2.29024

$$$$
CHEMBL343228 PubChem-11797049


 33 37  0  0  0  0  0  0  0  0999 V2000
   16.5855  -11.0204   15.9617 C   0  0  0  0  0  0  0  0  0  0  0  0
   17.9996  -10.6550   16.3802 C   0  0  0  0  0  0  0  0  0  0  0  0
   18.1393  -10.3895   12.6898 N   0  0  0  0  0  0  0  0  0  0  0  0
   18.4840  -11.7750   12.9933 C   0  0  0  0  0  0  0  0  0  0  0  0
   18.2328  -12.0370   14.4771 C   0  0  0  0  0  0  0  0  0  0  0  0
   18.9455  -11.1038   15.3700 N   0  0  0  0  0  0  0  0  0  0  0  0
   19.4907   -9.9094   14.7019 C   0  0  0  0  0  0  0  0  0  0  0  0
   18.5558   -9.3443   13.6259 C   0  0  0  0  0  0  0  0  0  0  0  0
   17.4562  -10.0885   11.4562 C   0  0  0  0  0  0  0  0  0  0  0  0
   16.1916  -10.5507   11.2308 N   0  0  0  0  0  0  0  0  0  0  0  0
   15.7489   -9.9977    9.7221 S   0  0  0  0  0  0  0  0  0  0  0  0
   17.1302   -9.1685    9.3272 C   0  0  0  0  0  0  0  0  0  0  0  0
   18.0001   -9.3067   10.3981 C   0  0  0  0  0  0  0  0  0  0  0  0
   19.2545   -8.6886   10.3412 C   0  0  0  0  0  0  0  0  0  0  0  0
   19.6006   -7.9491    9.1972 C   0  0  0  0  0  0  0  0  0  0  0  0
   18.6981   -7.8284    8.1233 C   0  0  0  0  0  0  0  0  0  0  0  0
   17.4390   -8.4440    8.1807 C   0  0  0  0  0  0  0  0  0  0  0  0
   15.6979   -9.7896   15.9769 C   0  0  0  0  0  0  0  0  0  0  0  0
   16.4666   -8.5887   16.5038 C   0  0  0  0  0  0  0  0  0  0  0  0
   16.1575   -8.3719   17.9095 N   0  0  0  0  0  0  0  0  0  0  0  0
   15.0030   -7.6490   18.3503 C   0  0  0  0  0  0  0  0  0  0  0  0
   14.2267   -7.1328   17.5000 O   0  0  0  0  0  0  0  0  0  0  0  0
   16.7698   -8.7387   18.5875 H   0  0  0  0  0  0  0  0  0  0  0  0
   14.7141   -7.4953   19.7930 C   0  0  0  0  0  0  0  0  0  0  0  0
   15.6753   -7.0731   20.7279 C   0  0  0  0  0  0  0  0  0  0  0  0
   16.9578   -6.7505   20.4961 N   0  0  0  0  0  0  0  0  0  0  0  0
   17.4632   -6.4119   21.7074 C   0  0  0  0  0  0  0  0  0  0  0  0
   16.5045   -6.5177   22.7150 C   0  0  0  0  0  0  0  0  0  0  0  0
   15.3759   -6.9418   22.0558 C   0  0  0  0  0  0  0  0  0  0  0  0
   14.1089   -7.2162   22.5621 C   0  0  0  0  0  0  0  0  0  0  0  0
   13.1233   -7.6407   21.6568 C   0  0  0  0  0  0  0  0  0  0  0  0
   13.4231   -7.7789   20.2862 C   0  0  0  0  0  0  0  0  0  0  0  0
   17.4298   -6.7582   19.6321 H   0  0  0  0  0  0  0  0  0  0  0  0
  9 10  2  0  0  0
 10 11  1  0  0  0
 11 12  1  0  0  0
 12 13  2  0  0  0
 13 14  1  0  0  0
 14 15  2  0  0  0
 15 16  1  0  0  0
 16 17  2  0  0  0
  9  3  1  0  0  0
  3  4  1  0  0  0
  4  5  1  0  0  0
  5  6  1  0  0  0
  6  7  1  0  0  0
  7  8  1  0  0  0
  6  2  1  0  0  0
  2  1  1  0  0  0
  1 18  1  0  0  0
 18 19  1  0  0  0
 19 20  1  0  0  0
 20 21  1  0  0  0
 21 22  2  0  0  0
 21 24  1  0  0  0
 24 25  2  0  0  0
 25 26  1  0  0  0
 26 27  1  0  0  0
 27 28  2  0  0  0
 28 29  1  0  0  0
 29 30  2  0  0  0
 30 31  1  0  0  0
 31 32  2  0  0  0
 13  9  1  0  0  0
  8  3  1  0  0  0
 32 24  1  0  0  0
 17 12  1  0  0  0
 29 25  1  0  0  0
 20 23  1  0  0  0
 26 33  1  0  0  0
M  END
>  <minimizedAffinity>
-8.89466

>  <minimizedRMSD>
2.29255

$$$$
CHEMBL5195408 PubChem-156771139


 38 41  0  0  0  0  0  0  0  0999 V2000
   16.4355   -8.4899   15.8119 C   0  0  0  0  0  0  0  0  0  0  0  0
   16.0935   -7.9672   14.5527 C   0  0  0  0  0  0  0  0  0  0  0  0
   16.1979   -8.7828   13.4166 C   0  0  0  0  0  0  0  0  0  0  0  0
   16.6499  -10.1051   13.5203 C   0  0  0  0  0  0  0  0  0  0  0  0
   16.9860  -10.6153   14.7745 C   0  0  0  0  0  0  0  0  0  0  0  0
   16.8878   -9.8183   15.9257 C   0  0  0  0  0  0  0  0  0  0  0  0
   17.2357  -10.3258   17.1837 O   0  0  0  0  0  0  0  0  0  0  0  0
   17.9107  -11.5645   17.3554 C   0  0  0  0  0  0  0  0  0  0  0  0
   15.6518   -6.6425   14.4490 O   0  0  0  0  0  0  0  0  0  0  0  0
   15.6338   -5.9311   13.2189 C   0  0  0  0  0  0  0  0  0  0  0  0
   16.3325   -7.6203   17.0254 C   0  0  0  0  0  0  0  0  0  0  0  0
   15.0406   -7.8253   17.6798 N   0  0  0  0  0  0  0  0  0  0  0  0
   14.3321   -7.2754   17.1938 H   0  0  0  0  0  0  0  0  0  0  0  0
   16.4897   -6.9806   19.4736 C   0  0  0  0  0  0  0  0  0  0  0  0
   15.0790   -7.4149   19.0892 C   0  0  0  0  0  0  0  0  0  0  0  0
   14.6100   -8.5589   19.9999 C   0  0  0  0  0  0  0  0  0  0  0  0
   14.6928   -8.1999   21.3481 O   0  0  0  0  0  0  0  0  0  0  0  0
   15.6147   -7.9988   21.5731 H   0  0  0  0  0  0  0  0  0  0  0  0
   14.1624   -6.2072   19.2652 C   0  0  0  0  0  0  0  0  0  0  0  0
   13.0083   -6.5540   19.9727 O   0  0  0  0  0  0  0  0  0  0  0  0
   12.5207   -7.2343   19.4824 H   0  0  0  0  0  0  0  0  0  0  0  0
   16.7502  -10.9401   12.3996 O   0  0  0  0  0  0  0  0  0  0  0  0
   16.7913  -10.4838   11.0749 C   0  0  0  0  0  0  0  0  0  0  0  0
   15.7429  -10.7634   10.2584 N   0  0  0  0  0  0  0  0  0  0  0  0
   15.7222  -10.3482    8.9667 C   0  0  0  0  0  0  0  0  0  0  0  0
   16.7642   -9.6419    8.4601 N   0  0  0  0  0  0  0  0  0  0  0  0
   17.8523   -9.3366    9.2179 C   0  0  0  0  0  0  0  0  0  0  0  0
   17.8961   -9.7775   10.5620 C   0  0  0  0  0  0  0  0  0  0  0  0
   19.0386   -9.5442   11.3349 C   0  0  0  0  0  0  0  0  0  0  0  0
   20.1241   -8.8586   10.7962 C   0  0  0  0  0  0  0  0  0  0  0  0
   20.0772   -8.4018    9.4796 C   0  0  0  0  0  0  0  0  0  0  0  0
   18.9497   -8.6222    8.6705 C   0  0  0  0  0  0  0  0  0  0  0  0
   18.9678   -8.0990    7.2752 C   0  0  0  0  0  0  0  0  0  0  0  0
   19.5930   -6.8717    6.9926 C   0  0  0  0  0  0  0  0  0  0  0  0
   19.6005   -6.3554    5.6937 C   0  0  0  0  0  0  0  0  0  0  0  0
   18.9769   -7.0572    4.6600 C   0  0  0  0  0  0  0  0  0  0  0  0
   18.3439   -8.2730    4.9261 C   0  0  0  0  0  0  0  0  0  0  0  0
   18.3372   -8.7877    6.2254 C   0  0  0  0  0  0  0  0  0  0  0  0
 14 15  1  0  0  0
 15 16  1  0  0  0
 16 17  1  0  0  0
 15 19  1  0  0  0
 19 20  1  0  0  0
 15 12  1  0  0  0
 12 11  1  0  0  0
 11  1  1  0  0  0
  1  2  2  0  0  0
  2  3  1  0  0  0
  3  4  2  0  0  0
  4  5  1  0  0  0
  5  6  2  0  0  0
  6  7  1  0  0  0
  7  8  1  0  0  0
  4 22  1  0  0  0
 22 23  1  0  0  0
 23 24  2  0  0  0
 24 25  1  0  0  0
 25 26  2  0  0  0
 26 27  1  0  0  0
 27 28  2  0  0  0
 28 29  1  0  0  0
 29 30  2  0  0  0
 30 31  1  0  0  0
 31 32  2  0  0  0
 32 33  1  0  0  0
 33 34  2  0  0  0
 34 35  1  0  0  0
 35 36  2  0  0  0
 36 37  1  0  0  0
 37 38  2  0  0  0
  2  9  1  0  0  0
  9 10  1  0  0  0
  6  1  1  0  0  0
 28 23  1  0  0  0
 32 27  1  0  0  0
 38 33  1  0  0  0
 17 18  1  0  0  0
 20 21  1  0  0  0
 12 13  1  0  0  0
M  END
>  <minimizedAffinity>
2.79761

>  <minimizedRMSD>
2.29497

$$$$
CHEMBL3799358 PubChem-127045878


 38 43  0  0  0  0  0  0  0  0999 V2000
   16.4344   -9.6144   12.8710 N   0  0  0  0  0  0  0  0  0  0  0  0
   15.6062   -9.1569   13.9841 C   0  0  0  0  0  0  0  0  0  0  0  0
   15.7762  -10.1053   15.1662 C   0  0  0  0  0  0  0  0  0  0  0  0
   17.2459  -10.2092   15.6439 C   0  0  0  0  0  0  0  0  0  0  0  0
   18.2555   -9.7916   14.5351 C   0  0  0  0  0  0  0  0  0  0  0  0
   17.7821  -10.1314   13.1208 C   0  0  0  0  0  0  0  0  0  0  0  0
   14.5428  -10.2505   11.4956 N   0  0  0  0  0  0  0  0  0  0  0  0
   13.9404  -10.4727   10.2868 C   0  0  0  0  0  0  0  0  0  0  0  0
   14.6138  -10.2387    9.1230 N   0  0  0  0  0  0  0  0  0  0  0  0
   15.8874   -9.7825    9.1894 C   0  0  0  0  0  0  0  0  0  0  0  0
   16.5107   -9.5516   10.3882 C   0  0  0  0  0  0  0  0  0  0  0  0
   15.8289   -9.7970   11.5854 C   0  0  0  0  0  0  0  0  0  0  0  0
   17.7470   -9.0304   10.0763 C   0  0  0  0  0  0  0  0  0  0  0  0
   17.7808   -8.9669    8.6922 C   0  0  0  0  0  0  0  0  0  0  0  0
   16.6468   -9.4440    8.1285 N   0  0  0  0  0  0  0  0  0  0  0  0
   18.9675   -8.4664    7.9284 C   0  0  0  0  0  0  0  0  0  0  0  0
   19.8364   -7.5641    8.8161 C   0  0  0  0  0  0  0  0  0  0  0  0
   20.0908   -8.2110   10.1847 C   0  0  0  0  0  0  0  0  0  0  0  0
   18.7787   -8.3958   10.9574 C   0  0  0  0  0  0  0  0  0  0  0  0
   16.4286   -9.5245    7.1719 H   0  0  0  0  0  0  0  0  0  0  0  0
   17.3778   -9.2235   16.7875 C   0  0  0  0  0  0  0  0  0  0  0  0
   18.4621   -8.5960   16.9405 O   0  0  0  0  0  0  0  0  0  0  0  0
   16.2649   -8.9710   17.6610 N   0  0  0  0  0  0  0  0  0  0  0  0
   15.4340   -9.4627   17.4685 H   0  0  0  0  0  0  0  0  0  0  0  0
   16.2364   -8.0790   18.7832 C   0  0  0  0  0  0  0  0  0  0  0  0
   15.0319   -7.6358   19.3491 C   0  0  0  0  0  0  0  0  0  0  0  0
   15.0315   -6.7603   20.4457 C   0  0  0  0  0  0  0  0  0  0  0  0
   16.2579   -6.3289   20.9736 C   0  0  0  0  0  0  0  0  0  0  0  0
   17.4609   -6.7656   20.4139 C   0  0  0  0  0  0  0  0  0  0  0  0
   17.4483   -7.6373   19.3223 C   0  0  0  0  0  0  0  0  0  0  0  0
   13.7929   -6.3125   21.0190 N   0  0  0  0  0  0  0  0  0  0  0  0
   12.6845   -5.9484   20.3490 C   0  0  0  0  0  0  0  0  0  0  0  0
   11.7013   -5.5810   21.1923 N   0  0  0  0  0  0  0  0  0  0  0  0
   12.2174   -5.7218   22.4309 C   0  0  0  0  0  0  0  0  0  0  0  0
   13.5173   -6.1764   22.3285 C   0  0  0  0  0  0  0  0  0  0  0  0
   17.5054  -11.5946   16.1220 N   0  0  0  0  0  0  0  0  0  0  0  0
   18.2936  -11.6022   17.3529 C   0  0  0  0  0  0  0  0  0  0  0  0
   18.2694  -12.3647   15.1446 C   0  0  0  0  0  0  0  0  0  0  0  0
  7  8  2  0  0  0
  8  9  1  0  0  0
  9 10  2  0  0  0
 10 11  1  0  0  0
 11 12  2  0  0  0
 12  1  1  0  0  0
  1  2  1  0  0  0
  2  3  1  0  0  0
  3  4  1  0  0  0
  4  5  1  0  0  0
  5  6  1  0  0  0
  4 36  1  0  0  0
 36 37  1  0  0  0
 36 38  1  0  0  0
  4 21  1  0  0  0
 21 22  2  0  0  0
 21 23  1  0  0  0
 23 25  1  0  0  0
 25 26  2  0  0  0
 26 27  1  0  0  0
 27 28  2  0  0  0
 28 29  1  0  0  0
 29 30  2  0  0  0
 27 31  1  0  0  0
 31 32  1  0  0  0
 32 33  2  0  0  0
 33 34  1  0  0  0
 34 35  2  0  0  0
 11 13  1  0  0  0
 13 14  2  0  0  0
 14 15  1  0  0  0
 14 16  1  0  0  0
 16 17  1  0  0  0
 17 18  1  0  0  0
 18 19  1  0  0  0
 12  7  1  0  0  0
  6  1  1  0  0  0
 30 25  1  0  0  0
 35 31  1  0  0  0
 19 13  1  0  0  0
 15 10  1  0  0  0
 23 24  1  0  0  0
 15 20  1  0  0  0
M  END
>  <minimizedAffinity>
-1.81659

>  <minimizedRMSD>
2.29509

$$$$
CHEMBL4092881 PubChem-118540645


 35 40  0  0  0  0  0  0  0  0999 V2000
   16.1890   -7.3027   14.7175 C   0  0  0  0  0  0  0  0  0  0  0  0
   16.7876   -8.5555   14.2838 N   0  0  0  0  0  0  0  0  0  0  0  0
   16.8064   -9.0851   13.0488 C   0  0  0  0  0  0  0  0  0  0  0  0
   17.5105  -10.2338   13.0190 N   0  0  0  0  0  0  0  0  0  0  0  0
   17.9474  -10.4515   14.2524 N   0  0  0  0  0  0  0  0  0  0  0  0
   17.5013   -9.4317   15.0109 C   0  0  0  0  0  0  0  0  0  0  0  0
   17.8585   -9.2623   16.7590 S   0  0  0  0  0  0  0  0  0  0  0  0
   16.1697   -9.7252   17.2540 C   0  0  0  0  0  0  0  0  0  0  0  0
   15.5275   -8.6277   18.0285 C   0  0  0  0  0  0  0  0  0  0  0  0
   15.1649   -7.5730   17.4425 O   0  0  0  0  0  0  0  0  0  0  0  0
   15.3100   -8.7956   19.4336 N   0  0  0  0  0  0  0  0  0  0  0  0
   15.5896   -9.6470   19.8413 H   0  0  0  0  0  0  0  0  0  0  0  0
   14.7029   -7.7937   20.3047 C   0  0  0  0  0  0  0  0  0  0  0  0
   14.6076   -8.3631   21.7305 C   0  0  0  0  0  0  0  0  0  0  0  0
   13.9713   -7.3285   22.6738 C   0  0  0  0  0  0  0  0  0  0  0  0
   12.5631   -6.9789   22.1663 C   0  0  0  0  0  0  0  0  0  0  0  0
   12.6461   -6.4017   20.7442 C   0  0  0  0  0  0  0  0  0  0  0  0
   13.2843   -7.4449   19.8136 C   0  0  0  0  0  0  0  0  0  0  0  0
   13.5182   -5.1354   20.7605 C   0  0  0  0  0  0  0  0  0  0  0  0
   14.9301   -5.4735   21.2672 C   0  0  0  0  0  0  0  0  0  0  0  0
   14.8338   -6.0562   22.6862 C   0  0  0  0  0  0  0  0  0  0  0  0
   15.5666   -6.5175   20.3366 C   0  0  0  0  0  0  0  0  0  0  0  0
   16.1888   -8.4580   11.8413 C   0  0  0  0  0  0  0  0  0  0  0  0
   16.5848   -9.2039   10.6049 C   0  0  0  0  0  0  0  0  0  0  0  0
   16.0520  -10.4337   10.3797 N   0  0  0  0  0  0  0  0  0  0  0  0
   16.3709  -11.1652    9.3099 N   0  0  0  0  0  0  0  0  0  0  0  0
   17.2620  -10.7070    8.3811 C   0  0  0  0  0  0  0  0  0  0  0  0
   17.5540  -11.4127    7.3745 O   0  0  0  0  0  0  0  0  0  0  0  0
   17.8491   -9.4460    8.5541 C   0  0  0  0  0  0  0  0  0  0  0  0
   18.7682   -8.9367    7.6239 C   0  0  0  0  0  0  0  0  0  0  0  0
   19.3395   -7.6762    7.8149 C   0  0  0  0  0  0  0  0  0  0  0  0
   18.9969   -6.9148    8.9346 C   0  0  0  0  0  0  0  0  0  0  0  0
   18.0832   -7.4127    9.8668 C   0  0  0  0  0  0  0  0  0  0  0  0
   17.5049   -8.6784    9.6869 C   0  0  0  0  0  0  0  0  0  0  0  0
   15.7465  -12.4703    9.1568 C   0  0  0  0  0  0  0  0  0  0  0  0
  1  2  1  0  0  0
  2  3  1  0  0  0
  3  4  2  0  0  0
  4  5  1  0  0  0
  5  6  2  0  0  0
  6  7  1  0  0  0
  7  8  1  0  0  0
  8  9  1  0  0  0
  9 10  2  0  0  0
  9 11  1  0  0  0
 11 13  1  0  0  0
 13 14  1  0  0  0
 14 15  1  0  0  0
 15 16  1  0  0  0
 16 17  1  0  0  0
 17 18  1  0  0  0
 17 19  1  0  0  0
 19 20  1  0  0  0
 20 21  1  0  0  0
 20 22  1  0  0  0
  3 23  1  0  0  0
 23 24  1  0  0  0
 24 25  2  0  0  0
 25 26  1  0  0  0
 26 27  1  0  0  0
 27 28  2  0  0  0
 27 29  1  0  0  0
 29 30  2  0  0  0
 30 31  1  0  0  0
 31 32  2  0  0  0
 32 33  1  0  0  0
 33 34  2  0  0  0
 26 35  1  0  0  0
  6  2  1  0  0  0
 18 13  1  0  0  0
 22 13  1  0  0  0
 21 15  1  0  0  0
 34 24  1  0  0  0
 34 29  1  0  0  0
 11 12  1  0  0  0
M  END
>  <minimizedAffinity>
3.59907

>  <minimizedRMSD>
2.29701

$$$$
CHEMBL4203882


 26 29  0  0  0  0  0  0  0  0999 V2000
   17.5374  -10.9922   16.1628 C   0  0  0  0  0  0  0  0  0  0  0  0
   18.2243  -11.8248   15.2783 C   0  0  0  0  0  0  0  0  0  0  0  0
   18.3769  -11.4606   13.9432 C   0  0  0  0  0  0  0  0  0  0  0  0
   17.8437  -10.2538   13.4737 C   0  0  0  0  0  0  0  0  0  0  0  0
   17.1498   -9.4139   14.3553 C   0  0  0  0  0  0  0  0  0  0  0  0
   16.9876   -9.7705   15.7136 C   0  0  0  0  0  0  0  0  0  0  0  0
   16.6409   -8.2504   13.8747 F   0  0  0  0  0  0  0  0  0  0  0  0
   17.4163  -11.3914   17.4532 F   0  0  0  0  0  0  0  0  0  0  0  0
   16.2527   -8.8745   16.6462 C   0  0  0  0  0  0  0  0  0  0  0  0
   15.2690   -8.0313   16.2836 N   0  0  0  0  0  0  0  0  0  0  0  0
   14.8722   -7.4152   17.3839 N   0  0  0  0  0  0  0  0  0  0  0  0
   15.5610   -7.8292   18.4355 N   0  0  0  0  0  0  0  0  0  0  0  0
   16.4440   -8.7523   18.0099 C   0  0  0  0  0  0  0  0  0  0  0  0
   15.4481   -7.5180   19.3626 H   0  0  0  0  0  0  0  0  0  0  0  0
   17.9859   -9.8676   12.1347 O   0  0  0  0  0  0  0  0  0  0  0  0
   16.8864   -9.5317   11.2939 C   0  0  0  0  0  0  0  0  0  0  0  0
   17.3591   -9.2809    9.9031 C   0  0  0  0  0  0  0  0  0  0  0  0
   18.3686   -8.4236    9.6097 N   0  0  0  0  0  0  0  0  0  0  0  0
   18.5607   -8.3554    8.2695 C   0  0  0  0  0  0  0  0  0  0  0  0
   17.7118   -9.1411    7.5157 C   0  0  0  0  0  0  0  0  0  0  0  0
   16.6595   -9.9732    8.5200 S   0  0  0  0  0  0  0  0  0  0  0  0
   17.7691   -9.1825    6.1618 N   0  0  0  0  0  0  0  0  0  0  0  0
   18.6988   -8.4233    5.5116 C   0  0  0  0  0  0  0  0  0  0  0  0
   19.5879   -7.6050    6.2368 C   0  0  0  0  0  0  0  0  0  0  0  0
   19.5198   -7.5676    7.6388 C   0  0  0  0  0  0  0  0  0  0  0  0
   20.7744   -6.6356    5.3914 Cl  0  0  0  0  0  0  0  0  0  0  0  0
  1  2  2  0  0  0
  2  3  1  0  0  0
  3  4  2  0  0  0
  4  5  1  0  0  0
  5  6  2  0  0  0
  6  9  1  0  0  0
  9 10  1  0  0  0
 10 11  2  0  0  0
 11 12  1  0  0  0
 12 13  1  0  0  0
  5  7  1  0  0  0
  4 15  1  0  0  0
 15 16  1  0  0  0
 16 17  1  0  0  0
 17 18  2  0  0  0
 18 19  1  0  0  0
 19 20  2  0  0  0
 20 21  1  0  0  0
 20 22  1  0  0  0
 22 23  2  0  0  0
 23 24  1  0  0  0
 24 25  2  0  0  0
 24 26  1  0  0  0
  1  8  1  0  0  0
  6  1  1  0  0  0
 13  9  2  0  0  0
 21 17  1  0  0  0
 25 19  1  0  0  0
 12 14  1  0  0  0
M  END
>  <minimizedAffinity>
-8.83458

>  <minimizedRMSD>
2.29848

$$$$
CHEMBL4787766 PubChem-156086847


 31 34  0  0  0  0  0  0  0  0999 V2000
   17.3726  -10.0625   13.4532 C   0  0  0  0  0  0  0  0  0  0  0  0
   18.5226  -10.5768   13.3776 O   0  0  0  0  0  0  0  0  0  0  0  0
   16.5525  -10.0050   12.2764 N   0  0  0  0  0  0  0  0  0  0  0  0
   15.1078  -10.1226   12.3032 C   0  0  0  0  0  0  0  0  0  0  0  0
   14.6656  -10.2476   10.8551 C   0  0  0  0  0  0  0  0  0  0  0  0
   15.9346  -10.2677   10.0078 C   0  0  0  0  0  0  0  0  0  0  0  0
   17.1145  -10.0972   10.9448 C   0  0  0  0  0  0  0  0  0  0  0  0
   15.9210   -7.7434   16.0734 C   0  0  0  0  0  0  0  0  0  0  0  0
   16.3215   -8.2555   14.8360 C   0  0  0  0  0  0  0  0  0  0  0  0
   16.9081   -9.5267   14.7504 C   0  0  0  0  0  0  0  0  0  0  0  0
   17.1029  -10.2676   15.9246 C   0  0  0  0  0  0  0  0  0  0  0  0
   16.6974   -9.7582   17.1614 C   0  0  0  0  0  0  0  0  0  0  0  0
   16.1041   -8.4951   17.2446 C   0  0  0  0  0  0  0  0  0  0  0  0
   15.7019   -8.0055   18.5313 N   0  0  0  0  0  0  0  0  0  0  0  0
   14.4594   -7.3661   18.8527 C   0  0  0  0  0  0  0  0  0  0  0  0
   13.6117   -7.0981   17.9607 O   0  0  0  0  0  0  0  0  0  0  0  0
   16.3441   -8.1200   19.2686 H   0  0  0  0  0  0  0  0  0  0  0  0
   14.1776   -6.9813   20.2605 C   0  0  0  0  0  0  0  0  0  0  0  0
   15.4296   -7.1271   21.0972 C   0  0  0  0  0  0  0  0  0  0  0  0
   15.9119   -9.2129    8.9960 N   0  0  0  0  0  0  0  0  0  0  0  0
   15.0346   -8.8372    8.7542 H   0  0  0  0  0  0  0  0  0  0  0  0
   17.0625   -8.6809    8.3274 C   0  0  0  0  0  0  0  0  0  0  0  0
   17.2047   -8.8735    6.9887 N   0  0  0  0  0  0  0  0  0  0  0  0
   18.2741   -8.3701    6.3195 C   0  0  0  0  0  0  0  0  0  0  0  0
   19.2554   -7.6417    7.0173 C   0  0  0  0  0  0  0  0  0  0  0  0
   19.0956   -7.4577    8.3873 C   0  0  0  0  0  0  0  0  0  0  0  0
   18.0068   -7.9741    9.0137 N   0  0  0  0  0  0  0  0  0  0  0  0
   20.3639   -7.1247    6.3412 C   0  0  0  0  0  0  0  0  0  0  0  0
   20.4931   -7.3311    4.9638 C   0  0  0  0  0  0  0  0  0  0  0  0
   19.5184   -8.0557    4.2666 C   0  0  0  0  0  0  0  0  0  0  0  0
   18.4102   -8.5770    4.9437 C   0  0  0  0  0  0  0  0  0  0  0  0
  8  9  2  0  0  0
  9 10  1  0  0  0
 10 11  2  0  0  0
 11 12  1  0  0  0
 12 13  2  0  0  0
 13 14  1  0  0  0
 14 15  1  0  0  0
 15 16  2  0  0  0
 15 18  1  0  0  0
 18 19  1  0  0  0
 10  1  1  0  0  0
  1  2  2  0  0  0
  1  3  1  0  0  0
  3  4  1  0  0  0
  4  5  1  0  0  0
  5  6  1  0  0  0
  6  7  1  0  0  0
  6 20  1  0  0  0
 20 22  1  0  0  0
 22 23  2  0  0  0
 23 24  1  0  0  0
 24 25  2  0  0  0
 25 26  1  0  0  0
 26 27  2  0  0  0
 25 28  1  0  0  0
 28 29  2  0  0  0
 29 30  1  0  0  0
 30 31  2  0  0  0
 13  8  1  0  0  0
  7  3  1  0  0  0
 27 22  1  0  0  0
 31 24  1  0  0  0
 14 17  1  0  0  0
 20 21  1  0  0  0
M  END
>  <minimizedAffinity>
-8.19969

>  <minimizedRMSD>
2.30448

$$$$
CHEMBL4434781 PubChem-10428963


 33 35  0  0  0  0  0  0  0  0999 V2000
   18.0062   -8.4474   11.3761 C   0  0  0  0  0  0  0  0  0  0  0  0
   16.5019   -8.5952   11.5051 C   0  0  0  0  0  0  0  0  0  0  0  0
   16.3358  -10.0006   12.0152 C   0  0  0  0  0  0  0  0  0  0  0  0
   17.6834  -10.3144   12.6071 C   0  0  0  0  0  0  0  0  0  0  0  0
   18.6554   -9.5822   11.9043 O   0  0  0  0  0  0  0  0  0  0  0  0
   15.3376  -10.0947   12.9887 O   0  0  0  0  0  0  0  0  0  0  0  0
   16.0357   -7.6583   12.4317 O   0  0  0  0  0  0  0  0  0  0  0  0
   15.5479   -9.5005   13.7260 H   0  0  0  0  0  0  0  0  0  0  0  0
   16.5045   -7.7747   13.2730 H   0  0  0  0  0  0  0  0  0  0  0  0
   16.4993  -10.2029    7.5799 C   0  0  0  0  0  0  0  0  0  0  0  0
   16.8718   -9.7565    8.8180 N   0  0  0  0  0  0  0  0  0  0  0  0
   17.8627   -8.8343    8.8861 C   0  0  0  0  0  0  0  0  0  0  0  0
   18.4829   -8.3466    7.7911 C   0  0  0  0  0  0  0  0  0  0  0  0
   18.1125   -8.7921    6.5304 C   0  0  0  0  0  0  0  0  0  0  0  0
   17.1160   -9.7232    6.4513 N   0  0  0  0  0  0  0  0  0  0  0  0
   18.7426   -8.2995    5.3531 N   0  0  0  0  0  0  0  0  0  0  0  0
   19.4149   -7.4408    8.1420 N   0  0  0  0  0  0  0  0  0  0  0  0
   19.3226   -7.4096    9.5024 C   0  0  0  0  0  0  0  0  0  0  0  0
   18.3801   -8.2611    9.9793 N   0  0  0  0  0  0  0  0  0  0  0  0
   19.4597   -7.6286    5.4225 H   0  0  0  0  0  0  0  0  0  0  0  0
   18.4613   -8.6298    4.4693 H   0  0  0  0  0  0  0  0  0  0  0  0
   17.9630  -11.8050   12.4882 C   0  0  0  0  0  0  0  0  0  0  0  0
   19.0489  -12.2400   13.4643 C   0  0  0  0  0  0  0  0  0  0  0  0
   19.0765  -11.3468   14.6952 C   0  0  0  0  0  0  0  0  0  0  0  0
   17.9986  -11.7666   15.6810 C   0  0  0  0  0  0  0  0  0  0  0  0
   17.8798  -10.7435   16.8012 C   0  0  0  0  0  0  0  0  0  0  0  0
   17.7692  -11.4361   18.0726 N   0  0  0  0  0  0  0  0  0  0  0  0
   16.9256  -12.0095   18.0752 H   0  0  0  0  0  0  0  0  0  0  0  0
   17.7184  -10.7532   18.8286 H   0  0  0  0  0  0  0  0  0  0  0  0
   16.7023   -9.8305   16.6228 C   0  0  0  0  0  0  0  0  0  0  0  0
   16.5374   -8.8692   17.4183 O   0  0  0  0  0  0  0  0  0  0  0  0
   15.7895  -10.0265   15.5916 O   0  0  0  0  0  0  0  0  0  0  0  0
   15.9035  -10.7393   14.9942 H   0  0  0  0  0  0  0  0  0  0  0  0
 10 11  2  0  0  0
 11 12  1  0  0  0
 12 13  2  0  0  0
 13 14  1  0  0  0
 13 17  1  0  0  0
 14 15  2  0  0  0
 14 16  1  0  0  0
 15 10  1  0  0  0
 17 18  2  0  0  0
 18 19  1  0  0  0
 19 12  1  0  0  0
  1 19  1  0  0  0
  1  2  1  0  0  0
  2  3  1  0  0  0
  2  7  1  0  0  0
  3  4  1  0  0  0
  3  6  1  0  0  0
  4  5  1  0  0  0
  4 22  1  0  0  0
  5  1  1  0  0  0
 22 23  1  0  0  0
 23 24  1  0  0  0
 24 25  1  0  0  0
 26 25  1  0  0  0
 26 30  1  0  0  0
 26 27  1  0  0  0
 30 31  2  0  0  0
 30 32  1  0  0  0
 16 20  1  0  0  0
 16 21  1  0  0  0
 32 33  1  0  0  0
 27 28  1  0  0  0
 27 29  1  0  0  0
  6  8  1  0  0  0
  7  9  1  0  0  0
M  END
>  <minimizedAffinity>
-1.16190

>  <minimizedRMSD>
2.31966

$$$$
CHEMBL107328 PubChem-500978


 39 42  0  0  0  0  0  0  0  0999 V2000
   17.7020  -10.7177   13.4223 C   0  0  0  0  0  0  0  0  0  0  0  0
   18.5532  -10.7171   14.4843 N   0  0  0  0  0  0  0  0  0  0  0  0
   17.8900   -9.9915   15.4040 C   0  0  0  0  0  0  0  0  0  0  0  0
   16.6927   -9.5676   14.9083 C   0  0  0  0  0  0  0  0  0  0  0  0
   16.5609  -10.0174   13.6544 N   0  0  0  0  0  0  0  0  0  0  0  0
   15.4497   -9.7788   12.7451 C   0  0  0  0  0  0  0  0  0  0  0  0
   15.8121   -8.7863   15.6541 C   0  0  0  0  0  0  0  0  0  0  0  0
   16.1976   -8.4385   16.9668 C   0  0  0  0  0  0  0  0  0  0  0  0
   17.4436   -8.8837   17.4755 C   0  0  0  0  0  0  0  0  0  0  0  0
   18.3081   -9.6695   16.6914 C   0  0  0  0  0  0  0  0  0  0  0  0
   15.3081   -7.6187   17.8067 C   0  0  0  0  0  0  0  0  0  0  0  0
   14.1961   -7.2284   17.3561 O   0  0  0  0  0  0  0  0  0  0  0  0
   15.7050   -7.2654   19.1353 N   0  0  0  0  0  0  0  0  0  0  0  0
   16.5957   -7.5426   19.4502 H   0  0  0  0  0  0  0  0  0  0  0  0
   14.8467   -6.5119   20.0439 C   0  0  0  0  0  0  0  0  0  0  0  0
   14.6298   -7.2421   21.3349 C   0  0  0  0  0  0  0  0  0  0  0  0
   14.4625   -8.4909   21.3519 O   0  0  0  0  0  0  0  0  0  0  0  0
   14.6055   -6.5322   22.5281 O   0  0  0  0  0  0  0  0  0  0  0  0
   14.7292   -5.6034   22.5233 H   0  0  0  0  0  0  0  0  0  0  0  0
   13.5263   -6.1101   19.3774 C   0  0  0  0  0  0  0  0  0  0  0  0
   12.0602   -6.9402   20.0861 P   0  0  0  0  0  0  0  0  0  0  0  0
   12.0654   -8.4073   19.7219 O   0  0  0  0  0  0  0  0  0  0  0  0
   10.6668   -6.2190   19.4562 O   0  0  0  0  0  0  0  0  0  0  0  0
   12.0525   -6.7775   21.7694 O   0  0  0  0  0  0  0  0  0  0  0  0
   10.6647   -6.3086   18.4903 H   0  0  0  0  0  0  0  0  0  0  0  0
   12.8497   -7.1894   22.1377 H   0  0  0  0  0  0  0  0  0  0  0  0
   18.0356  -11.3777   12.1138 C   0  0  0  0  0  0  0  0  0  0  0  0
   19.2673  -12.0029   12.2014 F   0  0  0  0  0  0  0  0  0  0  0  0
   17.0791  -12.3362   11.8253 F   0  0  0  0  0  0  0  0  0  0  0  0
   18.0864  -10.3520   11.0223 C   0  0  0  0  0  0  0  0  0  0  0  0
   17.1932  -10.3191    9.9970 N   0  0  0  0  0  0  0  0  0  0  0  0
   17.6066   -9.2608    9.2866 C   0  0  0  0  0  0  0  0  0  0  0  0
   18.6984   -8.6973    9.8727 C   0  0  0  0  0  0  0  0  0  0  0  0
   19.0287   -9.3717   10.9824 N   0  0  0  0  0  0  0  0  0  0  0  0
   19.3306   -7.5773    9.3389 C   0  0  0  0  0  0  0  0  0  0  0  0
   18.7965   -7.0370    8.1540 C   0  0  0  0  0  0  0  0  0  0  0  0
   17.6632   -7.6219    7.5456 C   0  0  0  0  0  0  0  0  0  0  0  0
   17.0505   -8.7539    8.1148 C   0  0  0  0  0  0  0  0  0  0  0  0
   19.7673   -9.2009   11.6106 H   0  0  0  0  0  0  0  0  0  0  0  0
  1 27  1  0  0  0
 27 30  1  0  0  0
 30 31  2  0  0  0
 31 32  1  0  0  0
 32 33  2  0  0  0
 33 34  1  0  0  0
 33 35  1  0  0  0
 35 36  2  0  0  0
 36 37  1  0  0  0
 37 38  2  0  0  0
 27 28  1  0  0  0
 27 29  1  0  0  0
  1  2  2  0  0  0
  2  3  1  0  0  0
  3  4  2  0  0  0
  4  5  1  0  0  0
  5  6  1  0  0  0
  4  7  1  0  0  0
  7  8  2  0  0  0
  8 11  1  0  0  0
 11 12  2  0  0  0
 11 13  1  0  0  0
 13 15  1  0  0  0
 15 20  1  0  0  0
 20 21  1  0  0  0
 21 22  2  0  0  0
 21 23  1  0  0  0
 21 24  1  0  0  0
 15 16  1  0  0  0
 16 17  2  0  0  0
 16 18  1  0  0  0
  8  9  1  0  0  0
  9 10  2  0  0  0
  5  1  1  0  0  0
 34 30  1  0  0  0
 10  3  1  0  0  0
 38 32  1  0  0  0
 34 39  1  0  0  0
 13 14  1  0  0  0
 23 25  1  0  0  0
 24 26  1  0  0  0
 18 19  1  0  0  0
M  END
>  <minimizedAffinity>
-3.82238

>  <minimizedRMSD>
2.32160

$$$$
CHEMBL5276931 PubChem-86706444


 31 34  0  0  0  0  0  0  0  0999 V2000
   18.1086   -9.8549   13.3116 C   0  0  0  0  0  0  0  0  0  0  0  0
   18.3711  -11.2897   13.7802 C   0  0  0  0  0  0  0  0  0  0  0  0
   18.0572  -11.4305   15.2680 C   0  0  0  0  0  0  0  0  0  0  0  0
   16.6102  -11.0289   15.5370 C   0  0  0  0  0  0  0  0  0  0  0  0
   16.3780   -9.6812   15.0240 N   0  0  0  0  0  0  0  0  0  0  0  0
   16.6726   -9.4234   13.6179 C   0  0  0  0  0  0  0  0  0  0  0  0
   15.9148   -8.6245   15.8782 C   0  0  0  0  0  0  0  0  0  0  0  0
   15.6887   -7.4800   15.4020 O   0  0  0  0  0  0  0  0  0  0  0  0
   19.8198   -9.4791   11.5674 C   0  0  0  0  0  0  0  0  0  0  0  0
   18.4179   -9.6948   11.8916 N   0  0  0  0  0  0  0  0  0  0  0  0
   17.3934   -9.7476   10.8686 C   0  0  0  0  0  0  0  0  0  0  0  0
   16.2084  -10.3854   11.1180 N   0  0  0  0  0  0  0  0  0  0  0  0
   15.2127  -10.4600   10.1823 C   0  0  0  0  0  0  0  0  0  0  0  0
   15.3753   -9.8908    8.9537 N   0  0  0  0  0  0  0  0  0  0  0  0
   16.5400   -9.2544    8.6870 C   0  0  0  0  0  0  0  0  0  0  0  0
   17.5450   -9.1668    9.6001 C   0  0  0  0  0  0  0  0  0  0  0  0
   18.5721   -8.4615    9.0112 C   0  0  0  0  0  0  0  0  0  0  0  0
   18.0968   -8.1606    7.7329 C   0  0  0  0  0  0  0  0  0  0  0  0
   16.8478   -8.6479    7.5332 N   0  0  0  0  0  0  0  0  0  0  0  0
   16.2928   -8.5730    6.7235 H   0  0  0  0  0  0  0  0  0  0  0  0
   15.7121   -8.8469   17.3438 C   0  0  0  0  0  0  0  0  0  0  0  0
   16.1806   -7.6931   18.1019 N   0  0  0  0  0  0  0  0  0  0  0  0
   16.7410   -7.0304   17.6372 H   0  0  0  0  0  0  0  0  0  0  0  0
   15.8744   -7.4664   19.4811 C   0  0  0  0  0  0  0  0  0  0  0  0
   14.6468   -7.8659   20.0308 C   0  0  0  0  0  0  0  0  0  0  0  0
   14.3711   -7.6320   21.3808 C   0  0  0  0  0  0  0  0  0  0  0  0
   15.3205   -7.0001   22.1886 C   0  0  0  0  0  0  0  0  0  0  0  0
   16.5458   -6.6031   21.6459 C   0  0  0  0  0  0  0  0  0  0  0  0
   16.8215   -6.8366   20.2953 C   0  0  0  0  0  0  0  0  0  0  0  0
   17.7351   -5.8129   22.6574 Cl  0  0  0  0  0  0  0  0  0  0  0  0
   12.8364   -8.1294   22.0584 Cl  0  0  0  0  0  0  0  0  0  0  0  0
  9 10  1  0  0  0
  1 10  1  0  0  0
  1  2  1  0  0  0
  2  3  1  0  0  0
  3  4  1  0  0  0
  4  5  1  0  0  0
  5  6  1  0  0  0
  5  7  1  0  0  0
  7  8  2  0  0  0
  7 21  1  0  0  0
 21 22  1  0  0  0
 22 24  1  0  0  0
 24 25  2  0  0  0
 25 26  1  0  0  0
 26 27  2  0  0  0
 27 28  1  0  0  0
 28 29  2  0  0  0
 28 30  1  0  0  0
 26 31  1  0  0  0
 10 11  1  0  0  0
 11 12  2  0  0  0
 12 13  1  0  0  0
 13 14  2  0  0  0
 14 15  1  0  0  0
 15 16  2  0  0  0
 16 17  1  0  0  0
 17 18  2  0  0  0
 18 19  1  0  0  0
  6  1  1  0  0  0
 29 24  1  0  0  0
 16 11  1  0  0  0
 19 15  1  0  0  0
 22 23  1  0  0  0
 19 20  1  0  0  0
M  END
>  <minimizedAffinity>
-4.74954

>  <minimizedRMSD>
2.33109

$$$$
CHEMBL2037399 PubChem-60166751


 30 34  0  0  0  0  0  0  0  0999 V2000
   17.0366  -10.7937   16.5700 S   0  0  0  0  0  0  0  0  0  0  0  0
   17.0269  -10.3285   14.8435 C   0  0  0  0  0  0  0  0  0  0  0  0
   15.9167  -10.2652   14.0853 N   0  0  0  0  0  0  0  0  0  0  0  0
   16.3154   -9.8912   12.8793 N   0  0  0  0  0  0  0  0  0  0  0  0
   17.6504   -9.7402   12.9559 C   0  0  0  0  0  0  0  0  0  0  0  0
   18.0970  -10.0107   14.1579 O   0  0  0  0  0  0  0  0  0  0  0  0
   18.5132   -9.3438   11.8076 C   0  0  0  0  0  0  0  0  0  0  0  0
   17.7469   -9.3836   10.5714 N   0  0  0  0  0  0  0  0  0  0  0  0
   16.6289  -10.1109   10.3341 C   0  0  0  0  0  0  0  0  0  0  0  0
   16.1799   -9.9654    9.0575 N   0  0  0  0  0  0  0  0  0  0  0  0
   17.0703   -9.1208    8.5037 C   0  0  0  0  0  0  0  0  0  0  0  0
   17.0897   -8.6414    7.1963 C   0  0  0  0  0  0  0  0  0  0  0  0
   18.1381   -7.7706    6.8419 C   0  0  0  0  0  0  0  0  0  0  0  0
   19.1247   -7.4096    7.7878 C   0  0  0  0  0  0  0  0  0  0  0  0
   19.0755   -7.9135    9.1010 C   0  0  0  0  0  0  0  0  0  0  0  0
   18.0209   -8.7703    9.4136 C   0  0  0  0  0  0  0  0  0  0  0  0
   17.3949   -9.0995   17.1257 C   0  0  0  0  0  0  0  0  0  0  0  0
   15.5032   -7.8453   16.4287 O   0  0  0  0  0  0  0  0  0  0  0  0
   16.1284   -8.3634   17.3907 C   0  0  0  0  0  0  0  0  0  0  0  0
   15.6316   -8.2817   18.7311 N   0  0  0  0  0  0  0  0  0  0  0  0
   16.1593   -8.7341   19.4283 H   0  0  0  0  0  0  0  0  0  0  0  0
   14.4424   -7.6065   19.1579 C   0  0  0  0  0  0  0  0  0  0  0  0
   14.2981   -7.1436   20.4231 N   0  0  0  0  0  0  0  0  0  0  0  0
   13.0944   -6.5377   20.5823 C   0  0  0  0  0  0  0  0  0  0  0  0
   12.6559   -5.9630   21.7756 C   0  0  0  0  0  0  0  0  0  0  0  0
   11.3840   -5.3662   21.8052 C   0  0  0  0  0  0  0  0  0  0  0  0
   10.5737   -5.3499   20.6528 C   0  0  0  0  0  0  0  0  0  0  0  0
   11.0244   -5.9311   19.4570 C   0  0  0  0  0  0  0  0  0  0  0  0
   12.2876   -6.5161   19.4547 C   0  0  0  0  0  0  0  0  0  0  0  0
   13.0836   -7.2790   18.1913 S   0  0  0  0  0  0  0  0  0  0  0  0
 18 19  2  0  0  0
 19 17  1  0  0  0
 19 20  1  0  0  0
 17  1  1  0  0  0
  1  2  1  0  0  0
  2  3  2  0  0  0
  3  4  1  0  0  0
  4  5  2  0  0  0
  5  7  1  0  0  0
  5  6  1  0  0  0
  7  8  1  0  0  0
  8  9  1  0  0  0
  9 10  2  0  0  0
 10 11  1  0  0  0
 11 12  2  0  0  0
 12 13  1  0  0  0
 13 14  2  0  0  0
 14 15  1  0  0  0
 15 16  2  0  0  0
 16  8  1  0  0  0
 16 11  1  0  0  0
  6  2  1  0  0  0
 20 22  1  0  0  0
 22 23  2  0  0  0
 23 24  1  0  0  0
 24 25  2  0  0  0
 25 26  1  0  0  0
 26 27  2  0  0  0
 27 28  1  0  0  0
 28 29  2  0  0  0
 29 30  1  0  0  0
 29 24  1  0  0  0
 30 22  1  0  0  0
 20 21  1  0  0  0
M  END
>  <minimizedAffinity>
-9.13756

>  <minimizedRMSD>
2.33746

$$$$
CHEMBL1965889 13143476 LN01436459 MolPort-003-064-662 ZINC000013143476


 32 35  0  0  0  0  0  0  0  0999 V2000
   17.9178   -9.7862   14.2198 N   0  0  0  0  0  0  0  0  0  0  0  0
   17.1923   -9.6085   13.0846 C   0  0  0  0  0  0  0  0  0  0  0  0
   15.6977   -8.8611   13.4017 S   0  0  0  0  0  0  0  0  0  0  0  0
   16.0161   -8.7571   15.0475 C   0  0  0  0  0  0  0  0  0  0  0  0
   15.2088   -8.2268   16.0491 C   0  0  0  0  0  0  0  0  0  0  0  0
   15.6883   -8.2550   17.3688 C   0  0  0  0  0  0  0  0  0  0  0  0
   16.9496   -8.8151   17.6533 C   0  0  0  0  0  0  0  0  0  0  0  0
   17.7459   -9.3458   16.6259 C   0  0  0  0  0  0  0  0  0  0  0  0
   17.2617   -9.3090   15.3142 C   0  0  0  0  0  0  0  0  0  0  0  0
   17.5990  -10.0197   11.9180 N   0  0  0  0  0  0  0  0  0  0  0  0
   14.7053   -7.6083   18.6691 S   0  0  0  0  0  0  0  0  0  0  0  0
   15.7213   -7.0978   19.9702 N   0  0  0  0  0  0  0  0  0  0  0  0
   13.9231   -6.4253   18.1722 O   0  0  0  0  0  0  0  0  0  0  0  0
   13.7586   -8.6672   19.1586 O   0  0  0  0  0  0  0  0  0  0  0  0
   16.3640   -6.3789   19.6378 H   0  0  0  0  0  0  0  0  0  0  0  0
   16.2537   -7.8950   20.3188 H   0  0  0  0  0  0  0  0  0  0  0  0
   16.8957   -9.8233   10.6857 C   0  0  0  0  0  0  0  0  0  0  0  0
   15.7108  -10.2367   10.5855 O   0  0  0  0  0  0  0  0  0  0  0  0
   17.5499   -9.2173    9.5140 C   0  0  0  0  0  0  0  0  0  0  0  0
   17.2477   -9.5674    8.2387 N   0  0  0  0  0  0  0  0  0  0  0  0
   18.0177   -8.8887    7.3511 C   0  0  0  0  0  0  0  0  0  0  0  0
   17.9326   -9.0320    5.9662 C   0  0  0  0  0  0  0  0  0  0  0  0
   18.7932   -8.2692    5.1586 C   0  0  0  0  0  0  0  0  0  0  0  0
   19.7204   -7.3817    5.7394 C   0  0  0  0  0  0  0  0  0  0  0  0
   19.7986   -7.2461    7.1345 C   0  0  0  0  0  0  0  0  0  0  0  0
   18.9341   -8.0126    7.9109 C   0  0  0  0  0  0  0  0  0  0  0  0
   18.7992   -8.0692    9.5806 S   0  0  0  0  0  0  0  0  0  0  0  0
   19.2225  -10.4412   14.2651 C   0  0  0  0  0  0  0  0  0  0  0  0
   19.0561  -11.9213   14.2150 C   0  0  0  0  0  0  0  0  0  0  0  0
   19.2273  -12.5299   13.1246 O   0  0  0  0  0  0  0  0  0  0  0  0
   17.3252  -12.9548   15.6239 C   0  0  0  0  0  0  0  0  0  0  0  0
   18.6779  -12.6096   15.3678 O   0  0  0  0  0  0  0  0  0  0  0  0
 31 32  1  0  0  0
 32 29  1  0  0  0
 29 30  2  0  0  0
 29 28  1  0  0  0
 28  1  1  0  0  0
  1  2  1  0  0  0
  2  3  1  0  0  0
  3  4  1  0  0  0
  4  5  2  0  0  0
  5  6  1  0  0  0
  6  7  2  0  0  0
  7  8  1  0  0  0
  8  9  2  0  0  0
  6 11  1  0  0  0
 11 12  1  0  0  0
 11 13  2  0  0  0
 11 14  2  0  0  0
  2 10  2  0  0  0
 10 17  1  0  0  0
 17 18  2  0  0  0
 17 19  1  0  0  0
 19 20  2  0  0  0
 20 21  1  0  0  0
 21 22  2  0  0  0
 22 23  1  0  0  0
 23 24  2  0  0  0
 24 25  1  0  0  0
 25 26  2  0  0  0
 26 27  1  0  0  0
  9  1  1  0  0  0
 27 19  1  0  0  0
  9  4  1  0  0  0
 26 21  1  0  0  0
 12 15  1  0  0  0
 12 16  1  0  0  0
M  END
>  <minimizedAffinity>
-5.63841

>  <minimizedRMSD>
2.34515

$$$$
CHEMBL3910696 PubChem-71679636


 35 40  0  0  0  0  0  0  0  0999 V2000
   15.5454   -7.3338   13.2042 C   0  0  0  0  0  0  0  0  0  0  0  0
   15.9327   -8.8003   13.3038 C   0  0  0  0  0  0  0  0  0  0  0  0
   16.9788   -8.9965   14.3942 C   0  0  0  0  0  0  0  0  0  0  0  0
   17.3447  -10.4103   14.4675 N   0  0  0  0  0  0  0  0  0  0  0  0
   17.7525  -11.0809   13.2343 C   0  0  0  0  0  0  0  0  0  0  0  0
   16.7058  -10.8467   12.1464 C   0  0  0  0  0  0  0  0  0  0  0  0
   16.4103   -9.4181   12.0524 N   0  0  0  0  0  0  0  0  0  0  0  0
   16.6882   -8.7246   10.8136 C   0  0  0  0  0  0  0  0  0  0  0  0
   16.5742   -7.4737   10.7253 O   0  0  0  0  0  0  0  0  0  0  0  0
   17.6970  -10.9866   15.7317 C   0  0  0  0  0  0  0  0  0  0  0  0
   17.2974  -10.5526   16.9990 C   0  0  0  0  0  0  0  0  0  0  0  0
   17.8962  -11.2171   18.0262 N   0  0  0  0  0  0  0  0  0  0  0  0
   18.7589  -12.1769   17.6175 C   0  0  0  0  0  0  0  0  0  0  0  0
   18.8083  -12.2306   15.9354 S   0  0  0  0  0  0  0  0  0  0  0  0
   16.2701   -9.5310   17.2639 C   0  0  0  0  0  0  0  0  0  0  0  0
   15.1802   -9.3445   16.4721 N   0  0  0  0  0  0  0  0  0  0  0  0
   14.5193   -8.3685   17.1086 C   0  0  0  0  0  0  0  0  0  0  0  0
   15.1893   -8.0060   18.2360 C   0  0  0  0  0  0  0  0  0  0  0  0
   16.3068   -8.7343   18.3655 N   0  0  0  0  0  0  0  0  0  0  0  0
   14.7192   -7.0116   19.0893 C   0  0  0  0  0  0  0  0  0  0  0  0
   13.5114   -6.3784   18.7413 C   0  0  0  0  0  0  0  0  0  0  0  0
   12.8178   -6.7535   17.5686 C   0  0  0  0  0  0  0  0  0  0  0  0
   13.3217   -7.7668   16.7322 C   0  0  0  0  0  0  0  0  0  0  0  0
   12.8673   -5.1148   19.7655 Cl  0  0  0  0  0  0  0  0  0  0  0  0
   16.9844   -8.7010   19.0789 H   0  0  0  0  0  0  0  0  0  0  0  0
   17.1722   -9.4717    9.6099 C   0  0  0  0  0  0  0  0  0  0  0  0
   18.2808   -8.7614    8.9892 N   0  0  0  0  0  0  0  0  0  0  0  0
   19.3186   -8.1547    9.6179 C   0  0  0  0  0  0  0  0  0  0  0  0
   20.1723   -7.5466    8.7457 N   0  0  0  0  0  0  0  0  0  0  0  0
   19.6203   -7.7954    7.5432 C   0  0  0  0  0  0  0  0  0  0  0  0
   18.4862   -8.5227    7.6906 C   0  0  0  0  0  0  0  0  0  0  0  0
   17.7220   -8.9178    6.6423 N   0  0  0  0  0  0  0  0  0  0  0  0
   18.1171   -8.5646    5.3812 C   0  0  0  0  0  0  0  0  0  0  0  0
   19.2952   -7.8058    5.1814 C   0  0  0  0  0  0  0  0  0  0  0  0
   20.0711   -7.4077    6.2864 C   0  0  0  0  0  0  0  0  0  0  0  0
  2  1  1  0  0  0
  2  3  1  0  0  0
  3  4  1  0  0  0
  4  5  1  0  0  0
  4 10  1  0  0  0
  5  6  1  0  0  0
  6  7  1  0  0  0
  7  8  1  0  0  0
  7  2  1  0  0  0
  8  9  2  0  0  0
  8 26  1  0  0  0
 26 27  1  0  0  0
 27 28  1  0  0  0
 28 29  2  0  0  0
 29 30  1  0  0  0
 30 31  2  0  0  0
 31 32  1  0  0  0
 31 27  1  0  0  0
 32 33  2  0  0  0
 33 34  1  0  0  0
 34 35  2  0  0  0
 35 30  1  0  0  0
 10 11  2  0  0  0
 11 12  1  0  0  0
 11 15  1  0  0  0
 12 13  2  0  0  0
 13 14  1  0  0  0
 14 10  1  0  0  0
 15 16  2  0  0  0
 16 17  1  0  0  0
 17 18  2  0  0  0
 18 19  1  0  0  0
 18 20  1  0  0  0
 19 15  1  0  0  0
 20 21  2  0  0  0
 21 22  1  0  0  0
 21 24  1  0  0  0
 22 23  2  0  0  0
 23 17  1  0  0  0
 19 25  1  0  0  0
M  END
>  <minimizedAffinity>
4.12738

>  <minimizedRMSD>
2.34821

$$$$
CHEMBL4243609 PubChem-145986192


 39 42  0  0  0  0  0  0  0  0999 V2000
   17.9521  -10.3102   12.9531 C   0  0  0  0  0  0  0  0  0  0  0  0
   19.1296   -9.5563   13.0336 C   0  0  0  0  0  0  0  0  0  0  0  0
   19.6712   -9.2204   14.2787 C   0  0  0  0  0  0  0  0  0  0  0  0
   19.0363   -9.6384   15.4527 C   0  0  0  0  0  0  0  0  0  0  0  0
   17.8589  -10.3973   15.3837 C   0  0  0  0  0  0  0  0  0  0  0  0
   17.3215  -10.7251   14.1349 C   0  0  0  0  0  0  0  0  0  0  0  0
   17.4170  -10.6149   11.6594 N   0  0  0  0  0  0  0  0  0  0  0  0
   16.0543  -10.4713   11.2371 C   0  0  0  0  0  0  0  0  0  0  0  0
   15.1557  -10.0936   12.0373 O   0  0  0  0  0  0  0  0  0  0  0  0
   18.0517  -10.9589   10.9900 H   0  0  0  0  0  0  0  0  0  0  0  0
   15.7038  -10.7367    9.8133 C   0  0  0  0  0  0  0  0  0  0  0  0
   14.9714   -9.2525    9.0493 S   0  0  0  0  0  0  0  0  0  0  0  0
   16.5052   -8.7663    8.2641 C   0  0  0  0  0  0  0  0  0  0  0  0
   16.7658   -9.0126    6.9520 N   0  0  0  0  0  0  0  0  0  0  0  0
   18.0022   -8.5123    6.8076 C   0  0  0  0  0  0  0  0  0  0  0  0
   18.4424   -7.9954    7.9892 C   0  0  0  0  0  0  0  0  0  0  0  0
   17.5056   -8.1416    8.9391 N   0  0  0  0  0  0  0  0  0  0  0  0
   19.7076   -7.4262    8.1238 C   0  0  0  0  0  0  0  0  0  0  0  0
   20.5294   -7.3974    6.9794 C   0  0  0  0  0  0  0  0  0  0  0  0
   20.0714   -7.9309    5.7523 C   0  0  0  0  0  0  0  0  0  0  0  0
   18.7883   -8.5039    5.6559 C   0  0  0  0  0  0  0  0  0  0  0  0
   17.5355   -7.8664    9.8839 H   0  0  0  0  0  0  0  0  0  0  0  0
   17.1526  -10.8544   16.6253 C   0  0  0  0  0  0  0  0  0  0  0  0
   16.7596   -9.7193   17.4550 N   0  0  0  0  0  0  0  0  0  0  0  0
   15.7913   -8.7561   17.0365 C   0  0  0  0  0  0  0  0  0  0  0  0
   15.2125   -8.8772   15.9212 O   0  0  0  0  0  0  0  0  0  0  0  0
   17.1791   -9.6133   18.3393 H   0  0  0  0  0  0  0  0  0  0  0  0
   15.4906   -7.6838   17.8798 O   0  0  0  0  0  0  0  0  0  0  0  0
   14.3791   -6.8202   17.6561 C   0  0  0  0  0  0  0  0  0  0  0  0
   13.1365   -7.4027   18.2432 C   0  0  0  0  0  0  0  0  0  0  0  0
   13.1464   -7.9159   19.5460 C   0  0  0  0  0  0  0  0  0  0  0  0
   11.9854   -8.4761   20.0847 C   0  0  0  0  0  0  0  0  0  0  0  0
   10.8149   -8.5287   19.3213 C   0  0  0  0  0  0  0  0  0  0  0  0
   10.8033   -8.0163   18.0208 C   0  0  0  0  0  0  0  0  0  0  0  0
   11.9636   -7.4530   17.4819 C   0  0  0  0  0  0  0  0  0  0  0  0
   17.9882  -11.8185   17.4070 C   0  0  0  0  0  0  0  0  0  0  0  0
   18.1450  -11.6749   18.6480 O   0  0  0  0  0  0  0  0  0  0  0  0
   18.6279  -12.8598   16.7499 O   0  0  0  0  0  0  0  0  0  0  0  0
   18.5145  -12.9711   15.8265 H   0  0  0  0  0  0  0  0  0  0  0  0
  1  2  2  0  0  0
  2  3  1  0  0  0
  3  4  2  0  0  0
  4  5  1  0  0  0
  5  6  2  0  0  0
  5 23  1  0  0  0
 23 24  1  0  0  0
 24 25  1  0  0  0
 25 26  2  0  0  0
 25 28  1  0  0  0
 28 29  1  0  0  0
 29 30  1  0  0  0
 30 31  2  0  0  0
 31 32  1  0  0  0
 32 33  2  0  0  0
 33 34  1  0  0  0
 34 35  2  0  0  0
 23 36  1  0  0  0
 36 37  2  0  0  0
 36 38  1  0  0  0
  1  7  1  0  0  0
  7  8  1  0  0  0
  8  9  2  0  0  0
  8 11  1  0  0  0
 11 12  1  0  0  0
 12 13  1  0  0  0
 13 14  2  0  0  0
 14 15  1  0  0  0
 15 16  2  0  0  0
 16 17  1  0  0  0
 16 18  1  0  0  0
 18 19  2  0  0  0
 19 20  1  0  0  0
 20 21  2  0  0  0
  6  1  1  0  0  0
 35 30  1  0  0  0
 17 13  1  0  0  0
 21 15  1  0  0  0
 24 27  1  0  0  0
 38 39  1  0  0  0
  7 10  1  0  0  0
 17 22  1  0  0  0
M  END
>  <minimizedAffinity>
-1.12807

>  <minimizedRMSD>
2.35224

$$$$
CHEMBL1611888


 28 31  0  0  0  0  0  0  0  0999 V2000
   16.9203  -10.1775   13.6440 C   0  0  0  0  0  0  0  0  0  0  0  0
   16.3309  -10.0219   12.4842 O   0  0  0  0  0  0  0  0  0  0  0  0
   17.3120   -9.8278   11.6362 C   0  0  0  0  0  0  0  0  0  0  0  0
   18.5085   -9.8621   12.2544 N   0  0  0  0  0  0  0  0  0  0  0  0
   18.2583  -10.0860   13.5350 N   0  0  0  0  0  0  0  0  0  0  0  0
   17.1250   -9.6017   10.1985 C   0  0  0  0  0  0  0  0  0  0  0  0
   16.1171  -10.1395    9.4718 N   0  0  0  0  0  0  0  0  0  0  0  0
   16.2321   -9.7402    8.2077 N   0  0  0  0  0  0  0  0  0  0  0  0
   17.3156   -8.9480    8.1359 C   0  0  0  0  0  0  0  0  0  0  0  0
   17.9046   -8.8350    9.3630 C   0  0  0  0  0  0  0  0  0  0  0  0
   19.0494   -8.0688    9.5720 C   0  0  0  0  0  0  0  0  0  0  0  0
   19.5894   -7.4026    8.4559 C   0  0  0  0  0  0  0  0  0  0  0  0
   18.9813   -7.5185    7.1851 C   0  0  0  0  0  0  0  0  0  0  0  0
   17.8244   -8.3022    7.0122 C   0  0  0  0  0  0  0  0  0  0  0  0
   15.4124  -10.7310    9.8224 H   0  0  0  0  0  0  0  0  0  0  0  0
   16.0585  -10.4744   15.1828 S   0  0  0  0  0  0  0  0  0  0  0  0
   16.1215   -8.7226   15.6734 C   0  0  0  0  0  0  0  0  0  0  0  0
   16.0132   -8.5869   17.1532 C   0  0  0  0  0  0  0  0  0  0  0  0
   16.7974   -9.2426   17.8887 O   0  0  0  0  0  0  0  0  0  0  0  0
   15.0302   -7.7058   17.7131 N   0  0  0  0  0  0  0  0  0  0  0  0
   14.4824   -7.1930   17.0758 H   0  0  0  0  0  0  0  0  0  0  0  0
   14.7632   -7.4947   19.1061 C   0  0  0  0  0  0  0  0  0  0  0  0
   15.7705   -7.1134   20.0061 C   0  0  0  0  0  0  0  0  0  0  0  0
   15.4741   -6.9217   21.3587 C   0  0  0  0  0  0  0  0  0  0  0  0
   14.1692   -7.1111   21.8212 C   0  0  0  0  0  0  0  0  0  0  0  0
   13.1617   -7.4924   20.9309 C   0  0  0  0  0  0  0  0  0  0  0  0
   13.4596   -7.6837   19.5782 C   0  0  0  0  0  0  0  0  0  0  0  0
   16.5468   -6.5173   22.3040 C   0  0  0  0  0  0  0  0  0  0  0  0
 16  1  1  0  0  0
  1  2  1  0  0  0
  2  3  1  0  0  0
  3  4  2  0  0  0
  4  5  1  0  0  0
  3  6  1  0  0  0
  6  7  1  0  0  0
  7  8  1  0  0  0
  8  9  2  0  0  0
  9 10  1  0  0  0
 10 11  1  0  0  0
 11 12  2  0  0  0
 12 13  1  0  0  0
 13 14  2  0  0  0
 16 17  1  0  0  0
 17 18  1  0  0  0
 18 19  2  0  0  0
 18 20  1  0  0  0
 20 22  1  0  0  0
 22 23  2  0  0  0
 23 24  1  0  0  0
 24 25  2  0  0  0
 25 26  1  0  0  0
 26 27  2  0  0  0
 24 28  1  0  0  0
  5  1  2  0  0  0
 10  6  2  0  0  0
 27 22  1  0  0  0
 14  9  1  0  0  0
  7 15  1  0  0  0
 20 21  1  0  0  0
M  END
>  <minimizedAffinity>
-8.95297

>  <minimizedRMSD>
2.35244

$$$$
CHEMBL4080597 PubChem-137646175


 37 39  0  0  0  0  0  0  0  0999 V2000
   15.6931   -8.6166   18.0121 C   0  0  0  0  0  0  0  0  0  0  0  0
   16.5867   -9.6907   18.0779 C   0  0  0  0  0  0  0  0  0  0  0  0
   17.0970  -10.2507   16.9034 C   0  0  0  0  0  0  0  0  0  0  0  0
   16.7193   -9.7443   15.6552 C   0  0  0  0  0  0  0  0  0  0  0  0
   15.8238   -8.6655   15.5943 C   0  0  0  0  0  0  0  0  0  0  0  0
   15.3130   -8.1046   16.7679 C   0  0  0  0  0  0  0  0  0  0  0  0
   17.2703  -10.3408   14.4737 N   0  0  0  0  0  0  0  0  0  0  0  0
   17.2031   -9.8211   13.1392 C   0  0  0  0  0  0  0  0  0  0  0  0
   16.5698   -8.7636   12.8815 O   0  0  0  0  0  0  0  0  0  0  0  0
   17.7439  -11.1959   14.5909 H   0  0  0  0  0  0  0  0  0  0  0  0
   17.8971  -10.5439   12.0331 C   0  0  0  0  0  0  0  0  0  0  0  0
   17.6486   -9.8822   10.7494 N   0  0  0  0  0  0  0  0  0  0  0  0
   16.4518  -10.0571   10.1004 C   0  0  0  0  0  0  0  0  0  0  0  0
   16.2184   -9.4318    8.9164 N   0  0  0  0  0  0  0  0  0  0  0  0
   17.1501   -8.6311    8.3463 C   0  0  0  0  0  0  0  0  0  0  0  0
   18.3893   -8.4370    8.9828 C   0  0  0  0  0  0  0  0  0  0  0  0
   18.6207   -9.0858   10.2030 C   0  0  0  0  0  0  0  0  0  0  0  0
   19.7273   -8.9349   10.7942 O   0  0  0  0  0  0  0  0  0  0  0  0
   19.3521   -7.6079    8.3881 C   0  0  0  0  0  0  0  0  0  0  0  0
   19.0786   -6.9788    7.1698 C   0  0  0  0  0  0  0  0  0  0  0  0
   17.8450   -7.1746    6.5410 C   0  0  0  0  0  0  0  0  0  0  0  0
   16.8813   -7.9999    7.1283 C   0  0  0  0  0  0  0  0  0  0  0  0
   15.3714  -10.9204   10.6728 C   0  0  0  0  0  0  0  0  0  0  0  0
   14.1079  -10.1066   10.8741 C   0  0  0  0  0  0  0  0  0  0  0  0
   15.7477   -6.5965   19.7706 O   0  0  0  0  0  0  0  0  0  0  0  0
   15.0570   -7.9002   19.4817 S   0  0  0  0  0  0  0  0  0  0  0  0
   15.2922   -8.8406   20.6296 O   0  0  0  0  0  0  0  0  0  0  0  0
   13.3575   -7.6190   19.3076 N   0  0  0  0  0  0  0  0  0  0  0  0
   12.8314   -6.3814   18.8286 C   0  0  0  0  0  0  0  0  0  0  0  0
   13.6070   -5.4388   18.5116 O   0  0  0  0  0  0  0  0  0  0  0  0
   11.4166   -6.2229   18.7090 N   0  0  0  0  0  0  0  0  0  0  0  0
   12.7308   -8.3393   19.5479 H   0  0  0  0  0  0  0  0  0  0  0  0
   10.8355   -6.9827   18.9417 H   0  0  0  0  0  0  0  0  0  0  0  0
   10.7981   -4.9835   18.2568 C   0  0  0  0  0  0  0  0  0  0  0  0
   10.7980   -3.9470   19.3694 C   0  0  0  0  0  0  0  0  0  0  0  0
   11.0260   -4.6152   20.7115 C   0  0  0  0  0  0  0  0  0  0  0  0
   12.1956   -3.9554   21.4109 C   0  0  0  0  0  0  0  0  0  0  0  0
 25 26  2  0  0  0
 26 27  2  0  0  0
 26  1  1  0  0  0
  1  2  2  0  0  0
  2  3  1  0  0  0
  3  4  2  0  0  0
  4  7  1  0  0  0
  7  8  1  0  0  0
  8  9  2  0  0  0
  8 11  1  0  0  0
 11 12  1  0  0  0
 12 13  1  0  0  0
 13 14  2  0  0  0
 14 15  1  0  0  0
 15 16  2  0  0  0
 16 17  1  0  0  0
 17 18  2  0  0  0
 16 19  1  0  0  0
 19 20  2  0  0  0
 20 21  1  0  0  0
 21 22  2  0  0  0
 13 23  1  0  0  0
 23 24  1  0  0  0
  4  5  1  0  0  0
  5  6  2  0  0  0
 26 28  1  0  0  0
 28 29  1  0  0  0
 29 30  2  0  0  0
 29 31  1  0  0  0
 31 34  1  0  0  0
 34 35  1  0  0  0
 35 36  1  0  0  0
 36 37  1  0  0  0
  6  1  1  0  0  0
 17 12  1  0  0  0
 22 15  1  0  0  0
  7 10  1  0  0  0
 28 32  1  0  0  0
 31 33  1  0  0  0
M  END
>  <minimizedAffinity>
-2.61989

>  <minimizedRMSD>
2.35290

$$$$
CHEMBL4175650 PubChem-145971187


 29 33  0  0  0  0  0  0  0  0999 V2000
   16.9649   -9.9207   12.2901 C   0  0  0  0  0  0  0  0  0  0  0  0
   16.3654   -8.9573   13.1243 C   0  0  0  0  0  0  0  0  0  0  0  0
   16.5095   -9.1083   14.5007 C   0  0  0  0  0  0  0  0  0  0  0  0
   17.2143  -10.1435   15.0428 C   0  0  0  0  0  0  0  0  0  0  0  0
   17.8462  -11.1049   14.2568 C   0  0  0  0  0  0  0  0  0  0  0  0
   17.7129  -10.9830   12.8623 C   0  0  0  0  0  0  0  0  0  0  0  0
   17.2092  -10.0217   16.3766 N   0  0  0  0  0  0  0  0  0  0  0  0
   16.4838   -8.8945   16.6029 C   0  0  0  0  0  0  0  0  0  0  0  0
   16.0463   -8.2925   15.4663 N   0  0  0  0  0  0  0  0  0  0  0  0
   17.9781  -10.8116   17.3267 C   0  0  0  0  0  0  0  0  0  0  0  0
   16.2677   -8.3175   17.8967 N   0  0  0  0  0  0  0  0  0  0  0  0
   17.0568   -8.1907   18.4716 H   0  0  0  0  0  0  0  0  0  0  0  0
   15.0004   -7.9101   18.4233 C   0  0  0  0  0  0  0  0  0  0  0  0
   14.8223   -7.8661   19.8102 C   0  0  0  0  0  0  0  0  0  0  0  0
   13.6087   -7.4318   20.3522 C   0  0  0  0  0  0  0  0  0  0  0  0
   12.5706   -7.0273   19.5080 C   0  0  0  0  0  0  0  0  0  0  0  0
   12.7479   -7.0517   18.1219 C   0  0  0  0  0  0  0  0  0  0  0  0
   13.9614   -7.4857   17.5806 C   0  0  0  0  0  0  0  0  0  0  0  0
   16.8434   -9.7743   10.9023 O   0  0  0  0  0  0  0  0  0  0  0  0
   18.8469   -8.4955   10.6305 N   0  0  0  0  0  0  0  0  0  0  0  0
   19.7853   -7.8578    9.8595 C   0  0  0  0  0  0  0  0  0  0  0  0
   19.6822   -7.8586    8.4968 N   0  0  0  0  0  0  0  0  0  0  0  0
   18.6312   -8.5086    7.9422 C   0  0  0  0  0  0  0  0  0  0  0  0
   17.6905   -9.1466    8.6809 C   0  0  0  0  0  0  0  0  0  0  0  0
   17.7910   -9.1600   10.0729 C   0  0  0  0  0  0  0  0  0  0  0  0
   16.7508   -9.6180    7.7783 C   0  0  0  0  0  0  0  0  0  0  0  0
   17.1724   -9.2577    6.5356 N   0  0  0  0  0  0  0  0  0  0  0  0
   18.3123   -8.5861    6.6466 N   0  0  0  0  0  0  0  0  0  0  0  0
   19.0457   -8.0201    5.5283 C   0  0  0  0  0  0  0  0  0  0  0  0
 20 21  2  0  0  0
 21 22  1  0  0  0
 22 23  2  0  0  0
 23 24  1  0  0  0
 24 25  2  0  0  0
 25 19  1  0  0  0
 19  1  1  0  0  0
  1  2  2  0  0  0
  2  3  1  0  0  0
  3  4  2  0  0  0
  4  5  1  0  0  0
  5  6  2  0  0  0
  4  7  1  0  0  0
  7  8  1  0  0  0
  8  9  2  0  0  0
  8 11  1  0  0  0
 11 13  1  0  0  0
 13 14  2  0  0  0
 14 15  1  0  0  0
 15 16  2  0  0  0
 16 17  1  0  0  0
 17 18  2  0  0  0
  7 10  1  0  0  0
 24 26  1  0  0  0
 26 27  2  0  0  0
 27 28  1  0  0  0
 28 29  1  0  0  0
 25 20  1  0  0  0
  6  1  1  0  0  0
 18 13  1  0  0  0
 28 23  1  0  0  0
  9  3  1  0  0  0
 11 12  1  0  0  0
M  END
>  <minimizedAffinity>
-8.66213

>  <minimizedRMSD>
2.35308

$$$$
CHEMBL4110520 PubChem-118321204


 38 41  0  0  0  0  0  0  0  0999 V2000
   14.8556  -10.5075    9.4642 C   0  0  0  0  0  0  0  0  0  0  0  0
   16.1693   -9.8457    9.2203 C   0  0  0  0  0  0  0  0  0  0  0  0
   17.0857   -9.4409   10.1846 C   0  0  0  0  0  0  0  0  0  0  0  0
   18.0929   -8.8309    9.5346 N   0  0  0  0  0  0  0  0  0  0  0  0
   19.2163   -8.2383   10.0118 C   0  0  0  0  0  0  0  0  0  0  0  0
   20.0998   -7.6513    9.0978 C   0  0  0  0  0  0  0  0  0  0  0  0
   19.7976   -7.6878    7.7245 C   0  0  0  0  0  0  0  0  0  0  0  0
   18.6245   -8.3089    7.2607 C   0  0  0  0  0  0  0  0  0  0  0  0
   17.7777   -8.8796    8.2233 C   0  0  0  0  0  0  0  0  0  0  0  0
   16.5958   -9.4912    7.9887 N   0  0  0  0  0  0  0  0  0  0  0  0
   16.9810   -9.6065   11.6503 C   0  0  0  0  0  0  0  0  0  0  0  0
   18.0253   -9.5678   12.3598 O   0  0  0  0  0  0  0  0  0  0  0  0
   15.7072   -9.8668   12.2472 N   0  0  0  0  0  0  0  0  0  0  0  0
   14.9284   -9.9427   11.6497 H   0  0  0  0  0  0  0  0  0  0  0  0
   15.4817  -10.0279   13.6812 C   0  0  0  0  0  0  0  0  0  0  0  0
   16.7704  -10.0971   14.4506 C   0  0  0  0  0  0  0  0  0  0  0  0
   17.6808  -11.1359   14.2054 C   0  0  0  0  0  0  0  0  0  0  0  0
   18.8964  -11.1897   14.8925 C   0  0  0  0  0  0  0  0  0  0  0  0
   19.2080  -10.2103   15.8384 C   0  0  0  0  0  0  0  0  0  0  0  0
   18.2990   -9.1821   16.1045 C   0  0  0  0  0  0  0  0  0  0  0  0
   17.0681   -9.1249   15.4319 C   0  0  0  0  0  0  0  0  0  0  0  0
   16.1036   -8.0019   15.7133 C   0  0  0  0  0  0  0  0  0  0  0  0
   16.6377   -6.8054   15.2284 O   0  0  0  0  0  0  0  0  0  0  0  0
   17.4673   -6.6104   15.6917 H   0  0  0  0  0  0  0  0  0  0  0  0
   15.7588   -7.8668   17.2005 C   0  0  0  0  0  0  0  0  0  0  0  0
   14.2694   -7.6215   17.3749 C   0  0  0  0  0  0  0  0  0  0  0  0
   16.1228   -9.0220   17.8994 O   0  0  0  0  0  0  0  0  0  0  0  0
   15.6308   -9.7808   17.5484 H   0  0  0  0  0  0  0  0  0  0  0  0
   18.3503   -8.3017    5.8868 O   0  0  0  0  0  0  0  0  0  0  0  0
   19.2658   -8.7503    4.8983 C   0  0  0  0  0  0  0  0  0  0  0  0
   19.4301   -7.6971    3.8541 C   0  0  0  0  0  0  0  0  0  0  0  0
   18.8323   -7.8558    2.5953 C   0  0  0  0  0  0  0  0  0  0  0  0
   19.0105   -6.8746    1.6109 C   0  0  0  0  0  0  0  0  0  0  0  0
   19.7778   -5.7370    1.8810 C   0  0  0  0  0  0  0  0  0  0  0  0
   20.3730   -5.5774    3.1347 C   0  0  0  0  0  0  0  0  0  0  0  0
   20.2040   -6.5553    4.1205 C   0  0  0  0  0  0  0  0  0  0  0  0
   20.8028   -6.3903    5.3275 F   0  0  0  0  0  0  0  0  0  0  0  0
   18.0868   -8.9539    2.3152 F   0  0  0  0  0  0  0  0  0  0  0  0
  1  2  1  0  0  0
  2  3  2  0  0  0
  3  4  1  0  0  0
  4  5  1  0  0  0
  5  6  2  0  0  0
  6  7  1  0  0  0
  7  8  2  0  0  0
  8  9  1  0  0  0
  9 10  2  0  0  0
  8 29  1  0  0  0
 29 30  1  0  0  0
 30 31  1  0  0  0
 31 32  2  0  0  0
 32 33  1  0  0  0
 33 34  2  0  0  0
 34 35  1  0  0  0
 35 36  2  0  0  0
 36 37  1  0  0  0
 32 38  1  0  0  0
  3 11  1  0  0  0
 11 12  2  0  0  0
 11 13  1  0  0  0
 13 15  1  0  0  0
 15 16  1  0  0  0
 16 17  2  0  0  0
 17 18  1  0  0  0
 18 19  2  0  0  0
 19 20  1  0  0  0
 20 21  2  0  0  0
 22 21  1  0  0  0
 22 25  1  0  0  0
 25 26  1  0  0  0
 25 27  1  0  0  0
 22 23  1  0  0  0
 10  2  1  0  0  0
  9  4  1  0  0  0
 36 31  1  0  0  0
 21 16  1  0  0  0
 13 14  1  0  0  0
 27 28  1  0  0  0
 23 24  1  0  0  0
M  END
>  <minimizedAffinity>
-7.58619

>  <minimizedRMSD>
2.35613

$$$$
CHEMBL5204356


 33 35  0  0  0  0  0  0  0  0999 V2000
   17.1445   -9.1969   13.2231 C   0  0  0  0  0  0  0  0  0  0  0  0
   16.5836   -8.8325   14.4564 C   0  0  0  0  0  0  0  0  0  0  0  0
   17.0613   -9.3785   15.6583 C   0  0  0  0  0  0  0  0  0  0  0  0
   18.1127  -10.3054   15.6294 C   0  0  0  0  0  0  0  0  0  0  0  0
   18.6737  -10.6772   14.3980 C   0  0  0  0  0  0  0  0  0  0  0  0
   18.1930  -10.1294   13.2078 C   0  0  0  0  0  0  0  0  0  0  0  0
   16.6407   -8.6331   11.9942 N   0  0  0  0  0  0  0  0  0  0  0  0
   15.7692   -7.4647   12.0304 C   0  0  0  0  0  0  0  0  0  0  0  0
   17.9300   -9.2746    8.5155 C   0  0  0  0  0  0  0  0  0  0  0  0
   17.7080   -8.6194    9.7496 C   0  0  0  0  0  0  0  0  0  0  0  0
   16.8973   -9.2446   10.7182 C   0  0  0  0  0  0  0  0  0  0  0  0
   16.3176  -10.4842   10.4229 C   0  0  0  0  0  0  0  0  0  0  0  0
   16.5626  -11.0927    9.1908 C   0  0  0  0  0  0  0  0  0  0  0  0
   17.3582  -10.4833    8.2729 N   0  0  0  0  0  0  0  0  0  0  0  0
   18.2817   -7.3585    9.9699 C   0  0  0  0  0  0  0  0  0  0  0  0
   19.0782   -6.7646    8.9871 C   0  0  0  0  0  0  0  0  0  0  0  0
   19.3036   -7.4225    7.7748 C   0  0  0  0  0  0  0  0  0  0  0  0
   18.7291   -8.6743    7.5383 C   0  0  0  0  0  0  0  0  0  0  0  0
   15.9725  -12.3668    8.8929 C   0  0  0  0  0  0  0  0  0  0  0  0
   15.4970  -13.3941    8.6528 N   0  0  0  0  0  0  0  0  0  0  0  0
   18.5815  -10.8438   16.8329 O   0  0  0  0  0  0  0  0  0  0  0  0
   17.9091  -11.8885   17.5225 C   0  0  0  0  0  0  0  0  0  0  0  0
   16.5067   -9.0164   16.8895 O   0  0  0  0  0  0  0  0  0  0  0  0
   15.3964   -8.1366   17.0090 C   0  0  0  0  0  0  0  0  0  0  0  0
   15.1425   -7.8206   18.4740 C   0  0  0  0  0  0  0  0  0  0  0  0
   13.7683   -7.1914   18.6788 C   0  0  0  0  0  0  0  0  0  0  0  0
   13.1551   -7.5673   20.0231 C   0  0  0  0  0  0  0  0  0  0  0  0
   13.2089   -6.4242   20.9785 C   0  0  0  0  0  0  0  0  0  0  0  0
   12.1609   -5.7779   21.2442 O   0  0  0  0  0  0  0  0  0  0  0  0
   14.4526   -6.0551   21.5698 N   0  0  0  0  0  0  0  0  0  0  0  0
   14.5303   -5.0145   22.4317 O   0  0  0  0  0  0  0  0  0  0  0  0
   15.2657   -6.5639   21.3481 H   0  0  0  0  0  0  0  0  0  0  0  0
   13.6507   -4.6213   22.5440 H   0  0  0  0  0  0  0  0  0  0  0  0
  9 10  2  0  0  0
 10 11  1  0  0  0
 11 12  2  0  0  0
 12 13  1  0  0  0
 13 14  2  0  0  0
 13 19  1  0  0  0
 19 20  3  0  0  0
 11  7  1  0  0  0
  7  8  1  0  0  0
  7  1  1  0  0  0
  1  2  2  0  0  0
  2  3  1  0  0  0
  3  4  2  0  0  0
  4  5  1  0  0  0
  5  6  2  0  0  0
  4 21  1  0  0  0
 21 22  1  0  0  0
  3 23  1  0  0  0
 23 24  1  0  0  0
 24 25  1  0  0  0
 25 26  1  0  0  0
 26 27  1  0  0  0
 27 28  1  0  0  0
 28 29  2  0  0  0
 28 30  1  0  0  0
 30 31  1  0  0  0
 10 15  1  0  0  0
 15 16  2  0  0  0
 16 17  1  0  0  0
 17 18  2  0  0  0
 14  9  1  0  0  0
  6  1  1  0  0  0
 18  9  1  0  0  0
 30 32  1  0  0  0
 31 33  1  0  0  0
M  END
>  <minimizedAffinity>
2.13386

>  <minimizedRMSD>
2.35626

$$$$
CHEMBL1377435 8606905 ChemDiv-G357-1774 MCULE-5793602449 MolPort-007-847-654 PubChem-16027385 ZINC000008606905


 34 37  0  0  0  0  0  0  0  0999 V2000
   16.6559   -9.0619   16.1504 C   0  0  0  0  0  0  0  0  0  0  0  0
   15.6005   -8.1976   15.8322 C   0  0  0  0  0  0  0  0  0  0  0  0
   14.8715   -7.5712   16.8466 C   0  0  0  0  0  0  0  0  0  0  0  0
   15.1883   -7.8009   18.1936 C   0  0  0  0  0  0  0  0  0  0  0  0
   16.2416   -8.6648   18.5102 C   0  0  0  0  0  0  0  0  0  0  0  0
   16.9719   -9.2918   17.4967 C   0  0  0  0  0  0  0  0  0  0  0  0
   14.4632   -7.1765   19.2616 N   0  0  0  0  0  0  0  0  0  0  0  0
   13.1259   -7.4773   19.6805 C   0  0  0  0  0  0  0  0  0  0  0  0
   12.4364   -8.3517   19.0923 O   0  0  0  0  0  0  0  0  0  0  0  0
   14.9325   -6.4679   19.7585 H   0  0  0  0  0  0  0  0  0  0  0  0
   12.5270   -6.7131   20.8059 C   0  0  0  0  0  0  0  0  0  0  0  0
   13.5483   -6.0070   21.4979 O   0  0  0  0  0  0  0  0  0  0  0  0
   13.5185   -5.7985   22.8792 C   0  0  0  0  0  0  0  0  0  0  0  0
   14.5956   -6.2415   23.6543 C   0  0  0  0  0  0  0  0  0  0  0  0
   14.5958   -6.0481   25.0391 C   0  0  0  0  0  0  0  0  0  0  0  0
   13.5165   -5.4094   25.6563 C   0  0  0  0  0  0  0  0  0  0  0  0
   12.4367   -4.9636   24.8892 C   0  0  0  0  0  0  0  0  0  0  0  0
   12.4363   -5.1569   23.5046 C   0  0  0  0  0  0  0  0  0  0  0  0
   13.5175   -5.2041   27.1280 C   0  0  0  0  0  0  0  0  0  0  0  0
   17.4215   -9.7181   15.0785 C   0  0  0  0  0  0  0  0  0  0  0  0
   18.5741  -10.1759   15.3138 O   0  0  0  0  0  0  0  0  0  0  0  0
   16.8663   -9.8315   13.8020 O   0  0  0  0  0  0  0  0  0  0  0  0
   17.3345  -10.7864   12.8611 C   0  0  0  0  0  0  0  0  0  0  0  0
   18.7100   -8.8198   10.0333 C   0  0  0  0  0  0  0  0  0  0  0  0
   20.0089   -7.9062    9.5111 S   0  0  0  0  0  0  0  0  0  0  0  0
   19.3191   -7.5780    8.0007 C   0  0  0  0  0  0  0  0  0  0  0  0
   18.0722   -8.2094    7.9642 C   0  0  0  0  0  0  0  0  0  0  0  0
   17.2000   -8.1130    6.7573 C   0  0  0  0  0  0  0  0  0  0  0  0
   17.7367   -8.8995    9.0986 N   0  0  0  0  0  0  0  0  0  0  0  0
   16.5919   -9.6046    9.3527 C   0  0  0  0  0  0  0  0  0  0  0  0
   16.4454  -10.2413   10.5897 C   0  0  0  0  0  0  0  0  0  0  0  0
   17.4803  -10.1422   11.5291 C   0  0  0  0  0  0  0  0  0  0  0  0
   18.6000   -9.4242   11.2414 N   0  0  0  0  0  0  0  0  0  0  0  0
   15.6695   -9.6904    8.4991 O   0  0  0  0  0  0  0  0  0  0  0  0
 24 25  1  0  0  0
 25 26  1  0  0  0
 26 27  2  0  0  0
 27 28  1  0  0  0
 27 29  1  0  0  0
 29 30  1  0  0  0
 30 31  1  0  0  0
 31 32  2  0  0  0
 32 23  1  0  0  0
 23 22  1  0  0  0
 22 20  1  0  0  0
 20 21  2  0  0  0
 20  1  1  0  0  0
  1  2  2  0  0  0
  2  3  1  0  0  0
  3  4  2  0  0  0
  4  5  1  0  0  0
  5  6  2  0  0  0
  4  7  1  0  0  0
  7  8  1  0  0  0
  8 11  1  0  0  0
 11 12  1  0  0  0
 12 13  1  0  0  0
 13 14  2  0  0  0
 14 15  1  0  0  0
 15 16  2  0  0  0
 16 17  1  0  0  0
 17 18  2  0  0  0
 16 19  1  0  0  0
  8  9  2  0  0  0
 32 33  1  0  0  0
 30 34  2  0  0  0
 29 24  1  0  0  0
  6  1  1  0  0  0
 18 13  1  0  0  0
 33 24  2  0  0  0
  7 10  1  0  0  0
M  END
>  <minimizedAffinity>
-6.13773

>  <minimizedRMSD>
2.35738

$$$$
CHEMBL5269112


 33 36  0  0  0  0  0  0  0  0999 V2000
   18.5370   -8.7291   10.0065 C   0  0  0  0  0  0  0  0  0  0  0  0
   17.3294   -9.0437    9.3408 C   0  0  0  0  0  0  0  0  0  0  0  0
   17.2543   -8.8561    7.9940 N   0  0  0  0  0  0  0  0  0  0  0  0
   18.3038   -8.3771    7.2802 C   0  0  0  0  0  0  0  0  0  0  0  0
   18.2002   -8.1929    5.8989 C   0  0  0  0  0  0  0  0  0  0  0  0
   19.2931   -7.6969    5.1799 C   0  0  0  0  0  0  0  0  0  0  0  0
   20.4872   -7.3857    5.8409 C   0  0  0  0  0  0  0  0  0  0  0  0
   20.5937   -7.5691    7.2237 C   0  0  0  0  0  0  0  0  0  0  0  0
   19.5037   -8.0644    7.9442 C   0  0  0  0  0  0  0  0  0  0  0  0
   19.5884   -8.2487    9.2850 N   0  0  0  0  0  0  0  0  0  0  0  0
   16.1351   -9.5626   10.0390 C   0  0  0  0  0  0  0  0  0  0  0  0
   14.9680   -9.7193    9.4324 O   0  0  0  0  0  0  0  0  0  0  0  0
   14.1545  -10.1874   10.3388 C   0  0  0  0  0  0  0  0  0  0  0  0
   14.8347  -10.3171   11.5108 C   0  0  0  0  0  0  0  0  0  0  0  0
   16.1086   -9.9241   11.3512 N   0  0  0  0  0  0  0  0  0  0  0  0
   14.2271  -10.7961   12.6684 C   0  0  0  0  0  0  0  0  0  0  0  0
   12.8660  -11.1470   12.5848 C   0  0  0  0  0  0  0  0  0  0  0  0
   12.1619  -11.0115   11.3662 C   0  0  0  0  0  0  0  0  0  0  0  0
   12.8094  -10.5233   10.2154 C   0  0  0  0  0  0  0  0  0  0  0  0
   18.6700   -8.9068   11.4210 N   0  0  0  0  0  0  0  0  0  0  0  0
   18.7174   -8.1059   11.9917 H   0  0  0  0  0  0  0  0  0  0  0  0
   18.7385  -10.2164   12.0562 C   0  0  0  0  0  0  0  0  0  0  0  0
   18.8635  -10.0717   13.5645 C   0  0  0  0  0  0  0  0  0  0  0  0
   17.8647  -10.9762   14.2669 C   0  0  0  0  0  0  0  0  0  0  0  0
   17.4759  -10.3893   15.6112 C   0  0  0  0  0  0  0  0  0  0  0  0
   16.0556   -9.8490   15.5598 C   0  0  0  0  0  0  0  0  0  0  0  0
   16.0520   -8.3400   15.7413 C   0  0  0  0  0  0  0  0  0  0  0  0
   15.4092   -7.9626   17.0325 C   0  0  0  0  0  0  0  0  0  0  0  0
   14.2792   -7.4062   17.0310 O   0  0  0  0  0  0  0  0  0  0  0  0
   16.0652   -8.2575   18.2634 N   0  0  0  0  0  0  0  0  0  0  0  0
   15.4945   -7.9378   19.4482 O   0  0  0  0  0  0  0  0  0  0  0  0
   16.9449   -8.6994   18.2514 H   0  0  0  0  0  0  0  0  0  0  0  0
   14.6375   -7.5120   19.2898 H   0  0  0  0  0  0  0  0  0  0  0  0
 22 23  1  0  0  0
 23 24  1  0  0  0
 24 25  1  0  0  0
 25 26  1  0  0  0
 26 27  1  0  0  0
 27 28  1  0  0  0
 28 29  2  0  0  0
 28 30  1  0  0  0
 30 31  1  0  0  0
 22 20  1  0  0  0
 20  1  1  0  0  0
  1  2  2  0  0  0
  2  3  1  0  0  0
  3  4  2  0  0  0
  4  5  1  0  0  0
  5  6  2  0  0  0
  6  7  1  0  0  0
  7  8  2  0  0  0
  8  9  1  0  0  0
  9 10  2  0  0  0
  2 11  1  0  0  0
 11 12  1  0  0  0
 12 13  1  0  0  0
 13 14  2  0  0  0
 14 15  1  0  0  0
 14 16  1  0  0  0
 16 17  2  0  0  0
 17 18  1  0  0  0
 18 19  2  0  0  0
 10  1  1  0  0  0
 15 11  2  0  0  0
  9  4  1  0  0  0
 19 13  1  0  0  0
 30 32  1  0  0  0
 31 33  1  0  0  0
 20 21  1  0  0  0
M  END
>  <minimizedAffinity>
0.58993

>  <minimizedRMSD>
2.35902

$$$$
CHEMBL1524386 8394765 CSC026886811 MCULE-6950484730 MolPort-004-166-844 PubChem-9508589 Z86251340 ZINC000008394765


 30 32  0  0  0  0  0  0  0  0999 V2000
   18.3939   -9.8347   12.1182 N   0  0  0  0  0  0  0  0  0  0  0  0
   19.2038   -9.2753   12.1375 H   0  0  0  0  0  0  0  0  0  0  0  0
   17.4456   -9.6401   11.0655 C   0  0  0  0  0  0  0  0  0  0  0  0
   17.8411   -9.0624    9.8524 C   0  0  0  0  0  0  0  0  0  0  0  0
   16.8666   -8.8812    8.8497 C   0  0  0  0  0  0  0  0  0  0  0  0
   17.2210   -8.3015    7.6282 C   0  0  0  0  0  0  0  0  0  0  0  0
   18.5419   -7.9028    7.4006 C   0  0  0  0  0  0  0  0  0  0  0  0
   19.5110   -8.0817    8.3931 C   0  0  0  0  0  0  0  0  0  0  0  0
   19.1630   -8.6599    9.6177 C   0  0  0  0  0  0  0  0  0  0  0  0
   15.5850   -9.2675    9.0739 N   0  0  0  0  0  0  0  0  0  0  0  0
   15.2223   -9.8415   10.2527 C   0  0  0  0  0  0  0  0  0  0  0  0
   16.1466  -10.0084   11.2377 N   0  0  0  0  0  0  0  0  0  0  0  0
   13.7942  -10.2161   10.4951 C   0  0  0  0  0  0  0  0  0  0  0  0
   13.3365  -11.0317    9.4758 F   0  0  0  0  0  0  0  0  0  0  0  0
   13.6767  -10.8927   11.6960 F   0  0  0  0  0  0  0  0  0  0  0  0
   13.0226   -9.0705   10.5416 F   0  0  0  0  0  0  0  0  0  0  0  0
   18.2034  -10.8303   13.1615 C   0  0  0  0  0  0  0  0  0  0  0  0
   18.8660  -10.3688   14.4502 C   0  0  0  0  0  0  0  0  0  0  0  0
   15.9648   -8.6067   17.0775 C   0  0  0  0  0  0  0  0  0  0  0  0
   16.7683   -9.6611   17.5262 C   0  0  0  0  0  0  0  0  0  0  0  0
   17.7171  -10.2320   16.6729 C   0  0  0  0  0  0  0  0  0  0  0  0
   17.8694   -9.7463   15.3694 C   0  0  0  0  0  0  0  0  0  0  0  0
   17.0660   -8.6922   14.9201 C   0  0  0  0  0  0  0  0  0  0  0  0
   16.1174   -8.1220   15.7737 C   0  0  0  0  0  0  0  0  0  0  0  0
   15.5653   -7.3418   19.5925 N   0  0  0  0  0  0  0  0  0  0  0  0
   14.7819   -7.8831   18.1518 S   0  0  0  0  0  0  0  0  0  0  0  0
   13.7295   -8.8968   18.5034 O   0  0  0  0  0  0  0  0  0  0  0  0
   14.1246   -6.7167   17.4691 O   0  0  0  0  0  0  0  0  0  0  0  0
   16.0112   -8.1339   20.0553 H   0  0  0  0  0  0  0  0  0  0  0  0
   14.8758   -6.9262   20.2188 H   0  0  0  0  0  0  0  0  0  0  0  0
 25 26  1  0  0  0
 26 19  1  0  0  0
 19 20  2  0  0  0
 20 21  1  0  0  0
 21 22  2  0  0  0
 22 18  1  0  0  0
 18 17  1  0  0  0
 17  1  1  0  0  0
  1  3  1  0  0  0
  3  4  1  0  0  0
  4  5  1  0  0  0
  5  6  2  0  0  0
  6  7  1  0  0  0
  7  8  2  0  0  0
  8  9  1  0  0  0
  5 10  1  0  0  0
 10 11  2  0  0  0
 11 13  1  0  0  0
 13 14  1  0  0  0
 13 15  1  0  0  0
 13 16  1  0  0  0
 11 12  1  0  0  0
 22 23  1  0  0  0
 23 24  2  0  0  0
 26 27  2  0  0  0
 26 28  2  0  0  0
 24 19  1  0  0  0
 12  3  2  0  0  0
  9  4  2  0  0  0
 25 29  1  0  0  0
 25 30  1  0  0  0
  1  2  1  0  0  0
M  END
>  <minimizedAffinity>
-3.85653

>  <minimizedRMSD>
2.35930

$$$$
CHEMBL5078554


 37 42  0  0  0  0  0  0  0  0999 V2000
   19.5708   -8.2096    8.7602 N   0  0  0  0  0  0  0  0  0  0  0  0
   20.1823   -7.6301    7.6766 C   0  0  0  0  0  0  0  0  0  0  0  0
   19.6229   -7.7929    6.4380 N   0  0  0  0  0  0  0  0  0  0  0  0
   18.5007   -8.4935    6.2310 C   0  0  0  0  0  0  0  0  0  0  0  0
   18.1358   -8.5121    4.9379 N   0  0  0  0  0  0  0  0  0  0  0  0
   19.1313   -7.7660    4.3830 C   0  0  0  0  0  0  0  0  0  0  0  0
   20.0442   -7.3203    5.2827 N   0  0  0  0  0  0  0  0  0  0  0  0
   17.8730   -9.0841    7.3109 C   0  0  0  0  0  0  0  0  0  0  0  0
   18.4287   -8.9260    8.5434 C   0  0  0  0  0  0  0  0  0  0  0  0
   17.6739   -9.5600    9.4469 N   0  0  0  0  0  0  0  0  0  0  0  0
   16.6413  -10.1118    8.8159 N   0  0  0  0  0  0  0  0  0  0  0  0
   16.7311   -9.8419    7.4835 C   0  0  0  0  0  0  0  0  0  0  0  0
   21.3755   -6.8721    7.8448 N   0  0  0  0  0  0  0  0  0  0  0  0
   21.7671   -6.7630    8.7415 H   0  0  0  0  0  0  0  0  0  0  0  0
   21.8092   -6.4570    7.0645 H   0  0  0  0  0  0  0  0  0  0  0  0
   19.2120   -7.4690    2.9501 C   0  0  0  0  0  0  0  0  0  0  0  0
   19.4976   -8.3832    1.9588 C   0  0  0  0  0  0  0  0  0  0  0  0
   19.4637   -7.6513    0.7845 C   0  0  0  0  0  0  0  0  0  0  0  0
   19.1611   -6.3473    1.1389 C   0  0  0  0  0  0  0  0  0  0  0  0
   19.0185   -6.2798    2.4404 O   0  0  0  0  0  0  0  0  0  0  0  0
   17.8756   -9.6006   10.8876 C   0  0  0  0  0  0  0  0  0  0  0  0
   16.5572   -9.3742   11.6124 C   0  0  0  0  0  0  0  0  0  0  0  0
   16.4901  -10.2035   12.8064 N   0  0  0  0  0  0  0  0  0  0  0  0
   17.7004   -9.9271   13.6016 C   0  0  0  0  0  0  0  0  0  0  0  0
   17.2262   -9.3484   14.8715 C   0  0  0  0  0  0  0  0  0  0  0  0
   15.8724   -9.2454   14.8643 C   0  0  0  0  0  0  0  0  0  0  0  0
   15.3293   -9.7415   13.5871 C   0  0  0  0  0  0  0  0  0  0  0  0
   15.1734   -8.7201   15.9503 C   0  0  0  0  0  0  0  0  0  0  0  0
   15.9028   -8.2924   17.0775 C   0  0  0  0  0  0  0  0  0  0  0  0
   17.3108   -8.4035   17.0763 C   0  0  0  0  0  0  0  0  0  0  0  0
   17.9849   -8.9350   15.9651 C   0  0  0  0  0  0  0  0  0  0  0  0
   15.2033   -7.7328   18.2470 C   0  0  0  0  0  0  0  0  0  0  0  0
   14.0576   -7.2224   18.1151 O   0  0  0  0  0  0  0  0  0  0  0  0
   15.8184   -7.7653   19.5354 N   0  0  0  0  0  0  0  0  0  0  0  0
   15.1887   -7.2553   20.6194 O   0  0  0  0  0  0  0  0  0  0  0  0
   16.7128   -8.1642   19.6364 H   0  0  0  0  0  0  0  0  0  0  0  0
   14.3244   -6.9029   20.3553 H   0  0  0  0  0  0  0  0  0  0  0  0
  1  2  2  0  0  0
  2  3  1  0  0  0
  3  4  1  0  0  0
  4  5  2  0  0  0
  5  6  1  0  0  0
  6  7  2  0  0  0
  6 16  1  0  0  0
 16 17  2  0  0  0
 17 18  1  0  0  0
 18 19  2  0  0  0
 19 20  1  0  0  0
  4  8  1  0  0  0
  8  9  2  0  0  0
  9 10  1  0  0  0
 10 11  1  0  0  0
 11 12  2  0  0  0
 10 21  1  0  0  0
 21 22  1  0  0  0
 22 23  1  0  0  0
 23 24  1  0  0  0
 24 25  1  0  0  0
 25 26  2  0  0  0
 26 27  1  0  0  0
 26 28  1  0  0  0
 28 29  2  0  0  0
 29 30  1  0  0  0
 30 31  2  0  0  0
 29 32  1  0  0  0
 32 33  2  0  0  0
 32 34  1  0  0  0
 34 35  1  0  0  0
  2 13  1  0  0  0
  9  1  1  0  0  0
 27 23  1  0  0  0
  7  3  1  0  0  0
 20 16  1  0  0  0
 12  8  1  0  0  0
 31 25  1  0  0  0
 34 36  1  0  0  0
 35 37  1  0  0  0
 13 14  1  0  0  0
 13 15  1  0  0  0
M  END
>  <minimizedAffinity>
-3.77492

>  <minimizedRMSD>
2.36090

$$$$
CHEMBL4966176 618255673 PubChem-164636989 ZINC000618255673


 31 34  0  0  0  0  0  0  0  0999 V2000
   17.2264  -10.8915   13.8597 N   0  0  0  0  0  0  0  0  0  0  0  0
   18.1461  -11.5765   12.9591 C   0  0  0  0  0  0  0  0  0  0  0  0
   17.8885  -11.0840   11.5474 C   0  0  0  0  0  0  0  0  0  0  0  0
   16.9259   -9.9298   11.7044 C   0  0  0  0  0  0  0  0  0  0  0  0
   16.8642   -9.6526   13.1877 C   0  0  0  0  0  0  0  0  0  0  0  0
   18.0885  -10.4957   15.3138 S   0  0  0  0  0  0  0  0  0  0  0  0
   19.3677   -9.7747   14.9875 O   0  0  0  0  0  0  0  0  0  0  0  0
   18.4369  -11.7640   16.0427 O   0  0  0  0  0  0  0  0  0  0  0  0
   15.4376   -8.0246   18.1214 C   0  0  0  0  0  0  0  0  0  0  0  0
   16.2013   -9.0942   18.5935 C   0  0  0  0  0  0  0  0  0  0  0  0
   17.0076   -9.8276   17.7202 C   0  0  0  0  0  0  0  0  0  0  0  0
   17.0673   -9.5029   16.3609 C   0  0  0  0  0  0  0  0  0  0  0  0
   16.2893   -8.4278   15.8759 C   0  0  0  0  0  0  0  0  0  0  0  0
   16.2720   -8.0401   14.4359 C   0  0  0  0  0  0  0  0  0  0  0  0
   15.4873   -7.6977   16.7595 C   0  0  0  0  0  0  0  0  0  0  0  0
   12.6814   -5.9264   19.8797 C   0  0  0  0  0  0  0  0  0  0  0  0
   13.3452   -6.7093   18.8039 C   0  0  0  0  0  0  0  0  0  0  0  0
   12.7571   -6.8653   17.6999 O   0  0  0  0  0  0  0  0  0  0  0  0
   14.6323   -7.2883   19.0520 N   0  0  0  0  0  0  0  0  0  0  0  0
   15.0026   -7.1679   19.9562 H   0  0  0  0  0  0  0  0  0  0  0  0
   17.3329   -8.7800   10.9573 O   0  0  0  0  0  0  0  0  0  0  0  0
   17.5904   -8.7665    9.5797 C   0  0  0  0  0  0  0  0  0  0  0  0
   16.7511   -9.4829    8.7215 C   0  0  0  0  0  0  0  0  0  0  0  0
   16.9954   -9.4841    7.3833 N   0  0  0  0  0  0  0  0  0  0  0  0
   18.0453   -8.7974    6.8635 C   0  0  0  0  0  0  0  0  0  0  0  0
   18.2845   -8.7988    5.4868 C   0  0  0  0  0  0  0  0  0  0  0  0
   19.3661   -8.0792    4.9693 C   0  0  0  0  0  0  0  0  0  0  0  0
   20.2085   -7.3607    5.8262 C   0  0  0  0  0  0  0  0  0  0  0  0
   19.9745   -7.3584    7.2054 C   0  0  0  0  0  0  0  0  0  0  0  0
   18.8932   -8.0728    7.7266 C   0  0  0  0  0  0  0  0  0  0  0  0
   18.6445   -8.0758    9.0606 N   0  0  0  0  0  0  0  0  0  0  0  0
 16 17  1  0  0  0
 17 18  2  0  0  0
 17 19  1  0  0  0
 19  9  1  0  0  0
  9 10  2  0  0  0
 10 11  1  0  0  0
 11 12  2  0  0  0
 12  6  1  0  0  0
  6  7  2  0  0  0
  6  8  2  0  0  0
  6  1  1  0  0  0
  1  2  1  0  0  0
  2  3  1  0  0  0
  3  4  1  0  0  0
  4 21  1  0  0  0
 21 22  1  0  0  0
 22 23  2  0  0  0
 23 24  1  0  0  0
 24 25  2  0  0  0
 25 26  1  0  0  0
 26 27  2  0  0  0
 27 28  1  0  0  0
 28 29  2  0  0  0
 29 30  1  0  0  0
 30 31  2  0  0  0
  4  5  1  0  0  0
 12 13  1  0  0  0
 13 14  1  0  0  0
 13 15  2  0  0  0
 15  9  1  0  0  0
  5  1  1  0  0  0
 31 22  1  0  0  0
 30 25  1  0  0  0
 19 20  1  0  0  0
M  END
>  <minimizedAffinity>
-5.64621

>  <minimizedRMSD>
2.36653

$$$$
CHEMBL1475640 3373677 CSC027880459 MCULE-1536119508 MolPort-004-278-037 PubChem-2491450 Z19573077 ZINC000003373677 ZINC03373677


 28 30  0  0  0  0  0  0  0  0999 V2000
   16.7686   -9.4886   11.0735 C   0  0  0  0  0  0  0  0  0  0  0  0
   17.5875   -9.9929   12.2144 C   0  0  0  0  0  0  0  0  0  0  0  0
   18.5973  -10.7048   11.9667 O   0  0  0  0  0  0  0  0  0  0  0  0
   16.6234   -8.9776   16.2722 C   0  0  0  0  0  0  0  0  0  0  0  0
   15.9910   -8.3173   15.2086 C   0  0  0  0  0  0  0  0  0  0  0  0
   16.3028   -8.6465   13.8870 C   0  0  0  0  0  0  0  0  0  0  0  0
   17.2518   -9.6409   13.6082 C   0  0  0  0  0  0  0  0  0  0  0  0
   17.8822  -10.2998   14.6734 C   0  0  0  0  0  0  0  0  0  0  0  0
   17.5691   -9.9695   15.9948 C   0  0  0  0  0  0  0  0  0  0  0  0
   15.0801   -7.6710   19.5884 C   0  0  0  0  0  0  0  0  0  0  0  0
   15.2343   -7.8797   18.1255 C   0  0  0  0  0  0  0  0  0  0  0  0
   14.4027   -7.3588   17.3365 O   0  0  0  0  0  0  0  0  0  0  0  0
   16.3283   -8.6687   17.6412 N   0  0  0  0  0  0  0  0  0  0  0  0
   16.9407   -9.0368   18.3185 H   0  0  0  0  0  0  0  0  0  0  0  0
   17.6206   -9.1553    9.9875 O   0  0  0  0  0  0  0  0  0  0  0  0
   17.2146   -9.3008    8.6605 C   0  0  0  0  0  0  0  0  0  0  0  0
   16.1586   -9.9295    8.3771 O   0  0  0  0  0  0  0  0  0  0  0  0
   18.0251   -8.7160    7.5892 C   0  0  0  0  0  0  0  0  0  0  0  0
   17.8221   -8.9776    6.2731 N   0  0  0  0  0  0  0  0  0  0  0  0
   18.7433   -8.2675    5.6535 N   0  0  0  0  0  0  0  0  0  0  0  0
   19.4630   -7.6118    6.5642 C   0  0  0  0  0  0  0  0  0  0  0  0
   19.0542   -7.8561    7.8205 N   0  0  0  0  0  0  0  0  0  0  0  0
   20.4880   -6.7996    6.2081 N   0  0  0  0  0  0  0  0  0  0  0  0
   20.7808   -6.6576    4.8810 C   0  0  0  0  0  0  0  0  0  0  0  0
   21.8990   -5.7730    4.4626 C   0  0  0  0  0  0  0  0  0  0  0  0
   20.0297   -7.3428    3.9042 C   0  0  0  0  0  0  0  0  0  0  0  0
   18.9795   -8.1712    4.3217 C   0  0  0  0  0  0  0  0  0  0  0  0
   18.1576   -8.9163    3.3278 C   0  0  0  0  0  0  0  0  0  0  0  0
 10 11  1  0  0  0
 11 12  2  0  0  0
 11 13  1  0  0  0
 13  4  1  0  0  0
  4  5  2  0  0  0
  5  6  1  0  0  0
  6  7  2  0  0  0
  7  8  1  0  0  0
  7  2  1  0  0  0
  8  9  2  0  0  0
  9  4  1  0  0  0
  2  3  2  0  0  0
  2  1  1  0  0  0
  1 15  1  0  0  0
 15 16  1  0  0  0
 16 17  2  0  0  0
 16 18  1  0  0  0
 18 19  2  0  0  0
 19 20  1  0  0  0
 20 21  1  0  0  0
 21 22  2  0  0  0
 21 23  1  0  0  0
 22 18  1  0  0  0
 23 24  2  0  0  0
 24 25  1  0  0  0
 24 26  1  0  0  0
 26 27  2  0  0  0
 27 28  1  0  0  0
 27 20  1  0  0  0
 13 14  1  0  0  0
M  END
>  <minimizedAffinity>
-8.49558

>  <minimizedRMSD>
2.37146

$$$$
CHEMBL4645793 PubChem-156019370


 31 34  0  0  0  0  0  0  0  0999 V2000
   17.2916   -9.9298   12.8281 C   0  0  0  0  0  0  0  0  0  0  0  0
   17.2669   -9.4669   11.4517 N   0  0  0  0  0  0  0  0  0  0  0  0
   18.6581   -9.4713   10.9792 C   0  0  0  0  0  0  0  0  0  0  0  0
   18.7846   -9.5979    9.4508 C   0  0  0  0  0  0  0  0  0  0  0  0
   17.5230   -9.2712    8.7838 N   0  0  0  0  0  0  0  0  0  0  0  0
   16.2891   -9.8961    9.2684 C   0  0  0  0  0  0  0  0  0  0  0  0
   16.4788  -10.4296   10.6854 C   0  0  0  0  0  0  0  0  0  0  0  0
   17.4534   -8.3469    7.6788 C   0  0  0  0  0  0  0  0  0  0  0  0
   16.2517   -7.8479    7.2654 N   0  0  0  0  0  0  0  0  0  0  0  0
   16.5777   -6.8289    5.9873 S   0  0  0  0  0  0  0  0  0  0  0  0
   18.2271   -6.9935    5.9303 C   0  0  0  0  0  0  0  0  0  0  0  0
   18.5765   -7.8773    6.9401 C   0  0  0  0  0  0  0  0  0  0  0  0
   19.9257   -8.2000    7.1257 C   0  0  0  0  0  0  0  0  0  0  0  0
   20.8896   -7.6207    6.2827 C   0  0  0  0  0  0  0  0  0  0  0  0
   20.5052   -6.7266    5.2651 C   0  0  0  0  0  0  0  0  0  0  0  0
   19.1537   -6.4013    5.0787 C   0  0  0  0  0  0  0  0  0  0  0  0
   15.9582   -9.6348   13.4935 C   0  0  0  0  0  0  0  0  0  0  0  0
   16.0564   -9.8450   14.9967 C   0  0  0  0  0  0  0  0  0  0  0  0
   16.7137   -8.6536   15.6847 C   0  0  0  0  0  0  0  0  0  0  0  0
   15.6933   -7.8188   16.4434 C   0  0  0  0  0  0  0  0  0  0  0  0
   15.5761   -8.2987   17.8808 C   0  0  0  0  0  0  0  0  0  0  0  0
   14.8430   -7.3252   18.6772 N   0  0  0  0  0  0  0  0  0  0  0  0
   13.4175   -7.1963   18.6287 C   0  0  0  0  0  0  0  0  0  0  0  0
   12.7389   -7.9706   17.8990 O   0  0  0  0  0  0  0  0  0  0  0  0
   15.3493   -6.7294   19.2754 H   0  0  0  0  0  0  0  0  0  0  0  0
   12.7426   -6.1623   19.4325 C   0  0  0  0  0  0  0  0  0  0  0  0
   12.1000   -5.0834   18.8069 C   0  0  0  0  0  0  0  0  0  0  0  0
   11.4603   -4.1023   19.5702 C   0  0  0  0  0  0  0  0  0  0  0  0
   11.4587   -4.1926   20.9647 C   0  0  0  0  0  0  0  0  0  0  0  0
   12.0963   -5.2640   21.5960 C   0  0  0  0  0  0  0  0  0  0  0  0
   12.7358   -6.2453   20.8327 C   0  0  0  0  0  0  0  0  0  0  0  0
 21 20  1  0  0  0
 20 19  1  0  0  0
 19 18  1  0  0  0
 18 17  1  0  0  0
 17  1  1  0  0  0
  1  2  1  0  0  0
  2  3  1  0  0  0
  3  4  1  0  0  0
  4  5  1  0  0  0
  5  6  1  0  0  0
  6  7  1  0  0  0
  5  8  1  0  0  0
  8  9  2  0  0  0
  9 10  1  0  0  0
 10 11  1  0  0  0
 11 12  2  0  0  0
 12 13  1  0  0  0
 13 14  2  0  0  0
 14 15  1  0  0  0
 15 16  2  0  0  0
 21 22  1  0  0  0
 22 23  1  0  0  0
 23 24  2  0  0  0
 23 26  1  0  0  0
 26 27  2  0  0  0
 27 28  1  0  0  0
 28 29  2  0  0  0
 29 30  1  0  0  0
 30 31  2  0  0  0
  7  2  1  0  0  0
 12  8  1  0  0  0
 31 26  1  0  0  0
 16 11  1  0  0  0
 22 25  1  0  0  0
M  END
>  <minimizedAffinity>
-1.52079

>  <minimizedRMSD>
2.37277

$$$$
CHEMBL4898134 ChemDiv-S565-0638 MCULE-5399734023 MolPort-044-349-397 PubChem-91909453 ZINC000169785223


 31 35  0  0  0  0  0  0  0  0999 V2000
   16.6340   -9.2895    8.8552 C   0  0  0  0  0  0  0  0  0  0  0  0
   15.4413   -9.8462    8.5438 N   0  0  0  0  0  0  0  0  0  0  0  0
   14.7824  -10.0469    9.6757 N   0  0  0  0  0  0  0  0  0  0  0  0
   13.4749  -10.6754    9.7494 C   0  0  0  0  0  0  0  0  0  0  0  0
   15.5315   -9.6373   10.7133 C   0  0  0  0  0  0  0  0  0  0  0  0
   16.7273   -9.1691   10.2339 C   0  0  0  0  0  0  0  0  0  0  0  0
   17.8702   -8.7657   11.1111 C   0  0  0  0  0  0  0  0  0  0  0  0
   17.5882   -9.1270   12.5067 N   0  0  0  0  0  0  0  0  0  0  0  0
   16.2130   -9.0170   13.0167 C   0  0  0  0  0  0  0  0  0  0  0  0
   15.2431   -9.8481   12.1664 C   0  0  0  0  0  0  0  0  0  0  0  0
   18.6810   -9.2431   13.4319 C   0  0  0  0  0  0  0  0  0  0  0  0
   19.7957   -8.7248   13.1505 O   0  0  0  0  0  0  0  0  0  0  0  0
   18.5260   -9.9290   14.7326 C   0  0  0  0  0  0  0  0  0  0  0  0
   18.6300   -9.1894   15.8694 N   0  0  0  0  0  0  0  0  0  0  0  0
   18.4970   -9.7297   17.0815 N   0  0  0  0  0  0  0  0  0  0  0  0
   18.2582  -11.0548   17.2503 C   0  0  0  0  0  0  0  0  0  0  0  0
   18.1337  -11.5208   18.4148 O   0  0  0  0  0  0  0  0  0  0  0  0
   18.1637  -11.8851   16.1273 C   0  0  0  0  0  0  0  0  0  0  0  0
   17.9482  -13.2651   16.2603 C   0  0  0  0  0  0  0  0  0  0  0  0
   17.8899  -14.0814   15.1285 C   0  0  0  0  0  0  0  0  0  0  0  0
   18.0524  -13.5271   13.8573 C   0  0  0  0  0  0  0  0  0  0  0  0
   18.2645  -12.1540   13.7147 C   0  0  0  0  0  0  0  0  0  0  0  0
   18.3078  -11.3172   14.8416 C   0  0  0  0  0  0  0  0  0  0  0  0
   18.5742   -9.1519   17.8748 H   0  0  0  0  0  0  0  0  0  0  0  0
   18.7522   -8.2094    8.0274 N   0  0  0  0  0  0  0  0  0  0  0  0
   19.3547   -8.2034    6.8210 C   0  0  0  0  0  0  0  0  0  0  0  0
   18.6550   -8.9522    5.9451 N   0  0  0  0  0  0  0  0  0  0  0  0
   17.5969   -9.4333    6.5803 N   0  0  0  0  0  0  0  0  0  0  0  0
   17.6656   -8.9873    7.8469 C   0  0  0  0  0  0  0  0  0  0  0  0
   20.3980   -7.9395    9.8617 C   0  0  0  0  0  0  0  0  0  0  0  0
   19.1153   -7.4373    9.2157 C   0  0  0  0  0  0  0  0  0  0  0  0
 30 31  1  0  0  0
 31 25  1  0  0  0
 25 26  1  0  0  0
 26 27  2  0  0  0
 27 28  1  0  0  0
 28 29  2  0  0  0
 29  1  1  0  0  0
  1  2  2  0  0  0
  2  3  1  0  0  0
  3  4  1  0  0  0
  3  5  1  0  0  0
  5  6  2  0  0  0
  6  7  1  0  0  0
  7  8  1  0  0  0
  8  9  1  0  0  0
  9 10  1  0  0  0
  8 11  1  0  0  0
 11 12  2  0  0  0
 11 13  1  0  0  0
 13 14  2  0  0  0
 14 15  1  0  0  0
 15 16  1  0  0  0
 16 17  2  0  0  0
 16 18  1  0  0  0
 18 19  2  0  0  0
 19 20  1  0  0  0
 20 21  2  0  0  0
 21 22  1  0  0  0
 22 23  2  0  0  0
 29 25  1  0  0  0
  6  1  1  0  0  0
 23 13  1  0  0  0
 10  5  1  0  0  0
 23 18  1  0  0  0
 15 24  1  0  0  0
M  END
>  <minimizedAffinity>
5.36894

>  <minimizedRMSD>
2.37345

$$$$
CHEMBL272251 PubChem-24823253


 31 34  0  0  0  0  0  0  0  0999 V2000
   18.1410  -11.3452   16.4914 C   0  0  0  0  0  0  0  0  0  0  0  0
   17.6710  -11.1338   17.7853 C   0  0  0  0  0  0  0  0  0  0  0  0
   16.7710  -10.0996   18.0424 C   0  0  0  0  0  0  0  0  0  0  0  0
   16.3184   -9.2533   17.0175 C   0  0  0  0  0  0  0  0  0  0  0  0
   16.7978   -9.4681   15.6969 C   0  0  0  0  0  0  0  0  0  0  0  0
   17.7135  -10.5234   15.4491 C   0  0  0  0  0  0  0  0  0  0  0  0
   18.1970  -10.7500   14.1587 C   0  0  0  0  0  0  0  0  0  0  0  0
   17.7911   -9.9340   13.0924 C   0  0  0  0  0  0  0  0  0  0  0  0
   16.8830   -8.8999   13.3286 C   0  0  0  0  0  0  0  0  0  0  0  0
   16.3936   -8.6680   14.6162 C   0  0  0  0  0  0  0  0  0  0  0  0
   15.3599   -8.1769   17.3855 C   0  0  0  0  0  0  0  0  0  0  0  0
   14.8254   -7.4528   16.5022 O   0  0  0  0  0  0  0  0  0  0  0  0
   15.0351   -7.9589   18.7635 N   0  0  0  0  0  0  0  0  0  0  0  0
   15.4366   -8.5498   19.4409 H   0  0  0  0  0  0  0  0  0  0  0  0
   14.1369   -6.9012   19.2063 C   0  0  0  0  0  0  0  0  0  0  0  0
   14.0241   -6.9001   20.7218 C   0  0  0  0  0  0  0  0  0  0  0  0
   14.9079   -7.8327   21.2652 O   0  0  0  0  0  0  0  0  0  0  0  0
   15.9569   -7.0668   21.7713 C   0  0  0  0  0  0  0  0  0  0  0  0
   18.2516  -10.1455   11.7861 O   0  0  0  0  0  0  0  0  0  0  0  0
   17.5061   -9.8753   10.6305 C   0  0  0  0  0  0  0  0  0  0  0  0
   16.2244  -10.4204   10.5233 C   0  0  0  0  0  0  0  0  0  0  0  0
   15.4561  -10.1737    9.3844 C   0  0  0  0  0  0  0  0  0  0  0  0
   15.9457   -9.3962    8.3829 N   0  0  0  0  0  0  0  0  0  0  0  0
   17.1794   -8.8310    8.4586 C   0  0  0  0  0  0  0  0  0  0  0  0
   17.9915   -9.0508    9.5953 C   0  0  0  0  0  0  0  0  0  0  0  0
   19.2400   -8.4200    9.6773 C   0  0  0  0  0  0  0  0  0  0  0  0
   19.6885   -7.6058    8.6345 C   0  0  0  0  0  0  0  0  0  0  0  0
   18.8908   -7.4044    7.4966 C   0  0  0  0  0  0  0  0  0  0  0  0
   17.6363   -8.0170    7.4184 C   0  0  0  0  0  0  0  0  0  0  0  0
   19.3170   -6.5999    6.4365 O   0  0  0  0  0  0  0  0  0  0  0  0
   20.1600   -7.0807    5.3983 C   0  0  0  0  0  0  0  0  0  0  0  0
  1  2  2  0  0  0
  2  3  1  0  0  0
  3  4  2  0  0  0
  4  5  1  0  0  0
  5  6  2  0  0  0
  6  7  1  0  0  0
  7  8  2  0  0  0
  8  9  1  0  0  0
  9 10  2  0  0  0
  8 19  1  0  0  0
 19 20  1  0  0  0
 20 21  2  0  0  0
 21 22  1  0  0  0
 22 23  2  0  0  0
 23 24  1  0  0  0
 24 25  2  0  0  0
 25 26  1  0  0  0
 26 27  2  0  0  0
 27 28  1  0  0  0
 28 29  2  0  0  0
 28 30  1  0  0  0
 30 31  1  0  0  0
  4 11  1  0  0  0
 11 12  2  0  0  0
 11 13  1  0  0  0
 13 15  1  0  0  0
 15 16  1  0  0  0
 16 17  1  0  0  0
 17 18  1  0  0  0
  6  1  1  0  0  0
 25 20  1  0  0  0
 10  5  1  0  0  0
 29 24  1  0  0  0
 13 14  1  0  0  0
M  END
>  <minimizedAffinity>
-7.65747

>  <minimizedRMSD>
2.37593

$$$$
CHEMBL271623 PubChem-44457055


 32 34  0  0  0  0  0  0  0  0999 V2000
   17.8774  -10.4267   13.3148 C   0  0  0  0  0  0  0  0  0  0  0  0
   17.5032  -10.1837   14.6514 C   0  0  0  0  0  0  0  0  0  0  0  0
   17.7364  -11.1838   15.6305 C   0  0  0  0  0  0  0  0  0  0  0  0
   18.2988  -12.4058   15.2525 C   0  0  0  0  0  0  0  0  0  0  0  0
   18.6398  -12.6501   13.9246 C   0  0  0  0  0  0  0  0  0  0  0  0
   18.4338  -11.6640   12.9633 C   0  0  0  0  0  0  0  0  0  0  0  0
   17.4279  -10.9448   17.5064 Br  0  0  0  0  0  0  0  0  0  0  0  0
   17.6539   -9.4036   12.3302 N   0  0  0  0  0  0  0  0  0  0  0  0
   17.8979   -8.4873   12.5951 H   0  0  0  0  0  0  0  0  0  0  0  0
   19.5381   -7.6686    8.9648 N   0  0  0  0  0  0  0  0  0  0  0  0
   19.0207   -7.8233    7.7156 C   0  0  0  0  0  0  0  0  0  0  0  0
   17.8503   -8.5626    7.5249 C   0  0  0  0  0  0  0  0  0  0  0  0
   17.2215   -9.1381    8.6298 C   0  0  0  0  0  0  0  0  0  0  0  0
   17.7704   -8.9681    9.9144 C   0  0  0  0  0  0  0  0  0  0  0  0
   18.9443   -8.2195   10.0579 C   0  0  0  0  0  0  0  0  0  0  0  0
   17.1173   -9.5567   11.0057 C   0  0  0  0  0  0  0  0  0  0  0  0
   15.9795  -10.2720   10.7879 N   0  0  0  0  0  0  0  0  0  0  0  0
   15.4645  -10.4252    9.5393 C   0  0  0  0  0  0  0  0  0  0  0  0
   16.0838   -9.8607    8.4700 N   0  0  0  0  0  0  0  0  0  0  0  0
   16.9134   -8.9105   14.9640 N   0  0  0  0  0  0  0  0  0  0  0  0
   16.7192   -8.3081   14.2099 H   0  0  0  0  0  0  0  0  0  0  0  0
   16.5785   -8.4344   16.2968 C   0  0  0  0  0  0  0  0  0  0  0  0
   15.0866   -8.1664   16.3878 C   0  0  0  0  0  0  0  0  0  0  0  0
   14.7971   -7.3798   17.5800 N   0  0  0  0  0  0  0  0  0  0  0  0
   15.2633   -8.1212   18.7457 C   0  0  0  0  0  0  0  0  0  0  0  0
   15.6770   -7.1551   19.8380 C   0  0  0  0  0  0  0  0  0  0  0  0
   15.4515   -7.7389   21.0832 O   0  0  0  0  0  0  0  0  0  0  0  0
   14.5090   -7.9486   21.1761 H   0  0  0  0  0  0  0  0  0  0  0  0
   13.3507   -7.1350   17.6753 C   0  0  0  0  0  0  0  0  0  0  0  0
   12.6667   -7.8560   18.8421 C   0  0  0  0  0  0  0  0  0  0  0  0
   11.8730   -6.9630   19.5619 O   0  0  0  0  0  0  0  0  0  0  0  0
   12.4277   -6.2507   19.9165 H   0  0  0  0  0  0  0  0  0  0  0  0
 10 11  2  0  0  0
 11 12  1  0  0  0
 12 13  2  0  0  0
 13 14  1  0  0  0
 14 15  2  0  0  0
 14 16  1  0  0  0
 16  8  1  0  0  0
  8  1  1  0  0  0
  1  2  2  0  0  0
  2  3  1  0  0  0
  3  4  2  0  0  0
  4  5  1  0  0  0
  5  6  2  0  0  0
  3  7  1  0  0  0
  2 20  1  0  0  0
 20 22  1  0  0  0
 22 23  1  0  0  0
 23 24  1  0  0  0
 24 25  1  0  0  0
 25 26  1  0  0  0
 26 27  1  0  0  0
 24 29  1  0  0  0
 29 30  1  0  0  0
 30 31  1  0  0  0
 16 17  2  0  0  0
 17 18  1  0  0  0
 18 19  2  0  0  0
 15 10  1  0  0  0
  6  1  1  0  0  0
 19 13  1  0  0  0
  8  9  1  0  0  0
 20 21  1  0  0  0
 27 28  1  0  0  0
 31 32  1  0  0  0
M  END
>  <minimizedAffinity>
-6.58514

>  <minimizedRMSD>
2.37874

$$$$
CHEMBL3593310 PubChem-122181816


 36 39  0  0  0  0  0  0  0  0999 V2000
   14.9612   -8.0820   17.7569 C   0  0  0  0  0  0  0  0  0  0  0  0
   15.9494   -8.9776   18.1902 C   0  0  0  0  0  0  0  0  0  0  0  0
   16.5605   -9.8489   17.2838 C   0  0  0  0  0  0  0  0  0  0  0  0
   16.1858   -9.8346   15.9366 C   0  0  0  0  0  0  0  0  0  0  0  0
   15.2040   -8.9411   15.4974 C   0  0  0  0  0  0  0  0  0  0  0  0
   14.5938   -8.0694   16.4032 C   0  0  0  0  0  0  0  0  0  0  0  0
   14.5628   -7.3051   20.1169 N   0  0  0  0  0  0  0  0  0  0  0  0
   14.3240   -7.1583   18.7111 C   0  0  0  0  0  0  0  0  0  0  0  0
   13.5385   -6.2640   18.2927 O   0  0  0  0  0  0  0  0  0  0  0  0
   14.9857   -8.1409   20.4201 H   0  0  0  0  0  0  0  0  0  0  0  0
   16.3970   -6.6165   22.2793 N   0  0  0  0  0  0  0  0  0  0  0  0
   15.1302   -5.9784   22.1494 C   0  0  0  0  0  0  0  0  0  0  0  0
   14.7471   -5.0367   23.1100 C   0  0  0  0  0  0  0  0  0  0  0  0
   13.4805   -4.4506   23.0577 C   0  0  0  0  0  0  0  0  0  0  0  0
   13.1172   -3.5383   23.9909 F   0  0  0  0  0  0  0  0  0  0  0  0
   12.5813   -4.8205   22.0559 C   0  0  0  0  0  0  0  0  0  0  0  0
   12.9562   -5.7618   21.0938 C   0  0  0  0  0  0  0  0  0  0  0  0
   14.2345   -6.3312   21.1161 C   0  0  0  0  0  0  0  0  0  0  0  0
   17.0071   -6.3560   23.0067 H   0  0  0  0  0  0  0  0  0  0  0  0
   16.6626   -7.3180   21.6416 H   0  0  0  0  0  0  0  0  0  0  0  0
   16.8562  -10.7467   14.9657 C   0  0  0  0  0  0  0  0  0  0  0  0
   18.3041  -10.6332   15.0856 N   0  0  0  0  0  0  0  0  0  0  0  0
   19.1691  -10.0064   14.1272 C   0  0  0  0  0  0  0  0  0  0  0  0
   20.3346   -9.6940   14.4829 O   0  0  0  0  0  0  0  0  0  0  0  0
   18.7228  -11.0177   15.8894 H   0  0  0  0  0  0  0  0  0  0  0  0
   18.7693   -9.7191   12.7382 C   0  0  0  0  0  0  0  0  0  0  0  0
   17.6380  -10.1517   12.1929 C   0  0  0  0  0  0  0  0  0  0  0  0
   17.2558   -9.8396   10.8095 C   0  0  0  0  0  0  0  0  0  0  0  0
   16.1022  -10.2821   10.1756 C   0  0  0  0  0  0  0  0  0  0  0  0
   16.0789   -9.7909    8.9074 N   0  0  0  0  0  0  0  0  0  0  0  0
   17.2123   -9.0685    8.8117 C   0  0  0  0  0  0  0  0  0  0  0  0
   17.6488   -8.3568    7.7009 C   0  0  0  0  0  0  0  0  0  0  0  0
   18.8651   -7.6675    7.8240 C   0  0  0  0  0  0  0  0  0  0  0  0
   19.5831   -7.7173    9.0342 C   0  0  0  0  0  0  0  0  0  0  0  0
   19.0906   -8.4368   10.0825 N   0  0  0  0  0  0  0  0  0  0  0  0
   17.9345   -9.0818    9.9359 N   0  0  0  0  0  0  0  0  0  0  0  0
 11 12  1  0  0  0
 12 13  2  0  0  0
 13 14  1  0  0  0
 14 15  1  0  0  0
 14 16  2  0  0  0
 16 17  1  0  0  0
 17 18  2  0  0  0
 18  7  1  0  0  0
  7  8  1  0  0  0
  8  9  2  0  0  0
  8  1  1  0  0  0
  1  2  2  0  0  0
  2  3  1  0  0  0
  3  4  2  0  0  0
  4 21  1  0  0  0
 21 22  1  0  0  0
 22 23  1  0  0  0
 23 24  2  0  0  0
 23 26  1  0  0  0
 26 27  2  0  0  0
 27 28  1  0  0  0
 28 29  2  0  0  0
 29 30  1  0  0  0
 30 31  2  0  0  0
 31 32  1  0  0  0
 32 33  2  0  0  0
 33 34  1  0  0  0
 34 35  2  0  0  0
 35 36  1  0  0  0
  4  5  1  0  0  0
  5  6  2  0  0  0
 18 12  1  0  0  0
  6  1  1  0  0  0
 36 28  1  0  0  0
 36 31  1  0  0  0
 11 19  1  0  0  0
 11 20  1  0  0  0
  7 10  1  0  0  0
 22 25  1  0  0  0
M  END
>  <minimizedAffinity>
-5.57678

>  <minimizedRMSD>
2.37903

$$$$
CHEMBL3938003 PubChem-134148921


 37 41  0  0  0  0  0  0  0  0999 V2000
   15.8781   -8.5431   17.4193 C   0  0  0  0  0  0  0  0  0  0  0  0
   15.3132   -7.5030   16.7527 N   0  0  0  0  0  0  0  0  0  0  0  0
   15.3335   -7.4341   15.3973 C   0  0  0  0  0  0  0  0  0  0  0  0
   15.9459   -8.4050   14.6737 N   0  0  0  0  0  0  0  0  0  0  0  0
   16.5668   -9.4519   15.2794 C   0  0  0  0  0  0  0  0  0  0  0  0
   16.5406   -9.5505   16.6901 C   0  0  0  0  0  0  0  0  0  0  0  0
   17.1772  -10.6279   17.3201 C   0  0  0  0  0  0  0  0  0  0  0  0
   17.7997  -11.6200   16.5630 C   0  0  0  0  0  0  0  0  0  0  0  0
   17.8091  -11.5341   15.1702 C   0  0  0  0  0  0  0  0  0  0  0  0
   17.2194  -10.4469   14.5178 C   0  0  0  0  0  0  0  0  0  0  0  0
   17.2597  -10.4145   13.0849 N   0  0  0  0  0  0  0  0  0  0  0  0
   18.2572   -9.7490   12.2992 C   0  0  0  0  0  0  0  0  0  0  0  0
   19.3338   -9.3644   12.8308 O   0  0  0  0  0  0  0  0  0  0  0  0
   16.5445  -10.8876   12.6015 H   0  0  0  0  0  0  0  0  0  0  0  0
   18.0522   -9.5535   10.8575 C   0  0  0  0  0  0  0  0  0  0  0  0
   18.8700   -8.7484   10.1802 O   0  0  0  0  0  0  0  0  0  0  0  0
   18.7400   -8.5264    8.8755 C   0  0  0  0  0  0  0  0  0  0  0  0
   17.7045   -9.1522    8.1453 C   0  0  0  0  0  0  0  0  0  0  0  0
   16.8284  -10.0041    8.8291 C   0  0  0  0  0  0  0  0  0  0  0  0
   15.8871  -10.5885    8.2285 O   0  0  0  0  0  0  0  0  0  0  0  0
   17.0037  -10.2063   10.1967 C   0  0  0  0  0  0  0  0  0  0  0  0
   17.5791   -8.9091    6.7702 C   0  0  0  0  0  0  0  0  0  0  0  0
   18.4757   -8.0511    6.1266 C   0  0  0  0  0  0  0  0  0  0  0  0
   19.4995   -7.4331    6.8514 C   0  0  0  0  0  0  0  0  0  0  0  0
   19.6317   -7.6700    8.2229 C   0  0  0  0  0  0  0  0  0  0  0  0
   15.8145   -8.5550   18.8525 N   0  0  0  0  0  0  0  0  0  0  0  0
   16.4538   -9.1320   19.3296 H   0  0  0  0  0  0  0  0  0  0  0  0
   13.1501   -6.2445   21.1928 C   0  0  0  0  0  0  0  0  0  0  0  0
   14.4830   -6.4144   21.6007 C   0  0  0  0  0  0  0  0  0  0  0  0
   15.3479   -7.1865   20.8189 C   0  0  0  0  0  0  0  0  0  0  0  0
   14.8948   -7.7943   19.6446 C   0  0  0  0  0  0  0  0  0  0  0  0
   13.5659   -7.6058   19.2390 C   0  0  0  0  0  0  0  0  0  0  0  0
   12.6861   -6.8360   20.0145 C   0  0  0  0  0  0  0  0  0  0  0  0
   11.3542   -6.6440   19.6381 O   0  0  0  0  0  0  0  0  0  0  0  0
   10.7619   -7.3243   18.5399 C   0  0  0  0  0  0  0  0  0  0  0  0
   14.9713   -5.8290   22.7719 O   0  0  0  0  0  0  0  0  0  0  0  0
   14.2873   -4.7849   23.4513 C   0  0  0  0  0  0  0  0  0  0  0  0
 28 29  2  0  0  0
 29 30  1  0  0  0
 30 31  2  0  0  0
 31 32  1  0  0  0
 32 33  2  0  0  0
 33 34  1  0  0  0
 34 35  1  0  0  0
 31 26  1  0  0  0
 26  1  1  0  0  0
  1  2  2  0  0  0
  2  3  1  0  0  0
  3  4  2  0  0  0
  4  5  1  0  0  0
  5  6  2  0  0  0
  6  7  1  0  0  0
  7  8  2  0  0  0
  8  9  1  0  0  0
  9 10  2  0  0  0
 10 11  1  0  0  0
 11 12  1  0  0  0
 12 13  2  0  0  0
 12 15  1  0  0  0
 15 16  1  0  0  0
 16 17  1  0  0  0
 17 18  2  0  0  0
 18 19  1  0  0  0
 19 20  2  0  0  0
 19 21  1  0  0  0
 18 22  1  0  0  0
 22 23  2  0  0  0
 23 24  1  0  0  0
 24 25  2  0  0  0
 29 36  1  0  0  0
 36 37  1  0  0  0
 33 28  1  0  0  0
  6  1  1  0  0  0
 21 15  2  0  0  0
 10  5  1  0  0  0
 25 17  1  0  0  0
 26 27  1  0  0  0
 11 14  1  0  0  0
M  END
>  <minimizedAffinity>
-8.04708

>  <minimizedRMSD>
2.38180

$$$$
CHEMBL3752903


 38 42  0  0  0  0  0  0  0  0999 V2000
   14.3913   -8.2019   16.9748 C   0  0  0  0  0  0  0  0  0  0  0  0
   13.0026   -8.8250   16.8831 C   0  0  0  0  0  0  0  0  0  0  0  0
   15.0240   -8.6283   18.3168 C   0  0  0  0  0  0  0  0  0  0  0  0
   16.4838   -8.2085   18.4169 C   0  0  0  0  0  0  0  0  0  0  0  0
   17.2841   -8.8792   17.3060 C   0  0  0  0  0  0  0  0  0  0  0  0
   16.7738   -8.4906   15.9124 C   0  0  0  0  0  0  0  0  0  0  0  0
   15.2515   -8.7717   15.8163 C   0  0  0  0  0  0  0  0  0  0  0  0
   14.7181   -8.4138   14.4251 C   0  0  0  0  0  0  0  0  0  0  0  0
   15.5335   -9.0651   13.3454 C   0  0  0  0  0  0  0  0  0  0  0  0
   16.8289   -9.4009   13.4921 C   0  0  0  0  0  0  0  0  0  0  0  0
   17.4907   -9.3737   14.8629 C   0  0  0  0  0  0  0  0  0  0  0  0
   17.0851   -7.0113   15.6549 C   0  0  0  0  0  0  0  0  0  0  0  0
   14.3117   -8.1333   19.4122 O   0  0  0  0  0  0  0  0  0  0  0  0
   14.3433   -7.1638   19.4071 H   0  0  0  0  0  0  0  0  0  0  0  0
   14.2748   -6.6707   16.8527 C   0  0  0  0  0  0  0  0  0  0  0  0
   13.3785   -6.1373   17.7822 O   0  0  0  0  0  0  0  0  0  0  0  0
   12.4945   -6.5051   17.6269 H   0  0  0  0  0  0  0  0  0  0  0  0
   18.9950   -9.1002   14.7746 C   0  0  0  0  0  0  0  0  0  0  0  0
   19.7949  -10.3452   15.1276 C   0  0  0  0  0  0  0  0  0  0  0  0
   18.9315  -11.5623   15.0887 C   0  0  0  0  0  0  0  0  0  0  0  0
   18.1038  -11.9409   16.0518 C   0  0  0  0  0  0  0  0  0  0  0  0
   17.3616  -13.1808   15.6185 C   0  0  0  0  0  0  0  0  0  0  0  0
   17.8462  -13.4350   14.3030 O   0  0  0  0  0  0  0  0  0  0  0  0
   18.7813  -12.4750   13.9855 C   0  0  0  0  0  0  0  0  0  0  0  0
   19.3961  -12.4196   12.8885 O   0  0  0  0  0  0  0  0  0  0  0  0
   17.5159  -10.1303   12.3656 C   0  0  0  0  0  0  0  0  0  0  0  0
   16.8147   -9.9534   11.0974 N   0  0  0  0  0  0  0  0  0  0  0  0
   15.5394  -10.3333   10.8287 C   0  0  0  0  0  0  0  0  0  0  0  0
   15.1436   -9.9861    9.5724 N   0  0  0  0  0  0  0  0  0  0  0  0
   16.2294   -9.3705    9.0735 C   0  0  0  0  0  0  0  0  0  0  0  0
   17.2353   -9.3457    9.9780 C   0  0  0  0  0  0  0  0  0  0  0  0
   18.4557   -8.7623    9.6478 C   0  0  0  0  0  0  0  0  0  0  0  0
   18.5814   -8.2197    8.4012 N   0  0  0  0  0  0  0  0  0  0  0  0
   17.5446   -8.2475    7.5038 C   0  0  0  0  0  0  0  0  0  0  0  0
   16.3531   -8.8301    7.8372 N   0  0  0  0  0  0  0  0  0  0  0  0
   19.5531   -8.7469   10.5521 N   0  0  0  0  0  0  0  0  0  0  0  0
   19.4568   -9.1396   11.4498 H   0  0  0  0  0  0  0  0  0  0  0  0
   20.4091   -8.3435   10.2806 H   0  0  0  0  0  0  0  0  0  0  0  0
 15  1  1  0  0  0
  1  2  1  0  0  0
  1  3  1  0  0  0
  3  4  1  0  0  0
  4  5  1  0  0  0
  5  6  1  0  0  0
  6  7  1  0  0  0
  7  8  1  0  0  0
  8  9  1  0  0  0
  9 10  2  0  0  0
 10 11  1  0  0  0
 11 18  1  0  0  0
 18 19  1  0  0  0
 19 20  1  0  0  0
 20 21  2  0  0  0
 21 22  1  0  0  0
 22 23  1  0  0  0
 23 24  1  0  0  0
 24 25  2  0  0  0
 10 26  1  0  0  0
 26 27  1  0  0  0
 27 28  1  0  0  0
 28 29  2  0  0  0
 29 30  1  0  0  0
 30 31  2  0  0  0
 31 32  1  0  0  0
 32 33  2  0  0  0
 33 34  1  0  0  0
 34 35  2  0  0  0
 32 36  1  0  0  0
  6 12  1  0  0  0
  3 13  1  0  0  0
 15 16  1  0  0  0
  7  1  1  0  0  0
 24 20  1  0  0  0
 31 27  1  0  0  0
 11  6  1  0  0  0
 35 30  1  0  0  0
 36 37  1  0  0  0
 36 38  1  0  0  0
 13 14  1  0  0  0
 16 17  1  0  0  0
M  END
>  <minimizedAffinity>
4.47789

>  <minimizedRMSD>
2.38217

$$$$
CHEMBL5184230 MCULE-5489041292 MCULE-7860312898 MolPort-044-561-803 PubChem-86660217


 31 35  0  0  0  0  0  0  0  0999 V2000
   19.8966   -9.1904   14.9441 C   0  0  0  0  0  0  0  0  0  0  0  0
   19.4986   -9.2568   13.6436 N   0  0  0  0  0  0  0  0  0  0  0  0
   18.2110   -9.5322   13.3008 C   0  0  0  0  0  0  0  0  0  0  0  0
   17.2916   -9.7482   14.2804 N   0  0  0  0  0  0  0  0  0  0  0  0
   17.6369   -9.7049   15.5937 C   0  0  0  0  0  0  0  0  0  0  0  0
   18.9526   -9.4119   15.9534 C   0  0  0  0  0  0  0  0  0  0  0  0
   17.8041   -9.5942   11.8788 C   0  0  0  0  0  0  0  0  0  0  0  0
   18.5409   -9.0026   10.8407 C   0  0  0  0  0  0  0  0  0  0  0  0
   19.7148   -8.2795   10.8447 C   0  0  0  0  0  0  0  0  0  0  0  0
   19.9347   -7.9668    9.5017 C   0  0  0  0  0  0  0  0  0  0  0  0
   18.9586   -8.4629    8.7026 N   0  0  0  0  0  0  0  0  0  0  0  0
   18.1250   -9.0878    9.5442 C   0  0  0  0  0  0  0  0  0  0  0  0
   16.9909   -9.7400    9.1880 N   0  0  0  0  0  0  0  0  0  0  0  0
   16.2340  -10.3348   10.1560 C   0  0  0  0  0  0  0  0  0  0  0  0
   16.6249  -10.2726   11.5093 C   0  0  0  0  0  0  0  0  0  0  0  0
   18.8801   -8.3822    7.7245 H   0  0  0  0  0  0  0  0  0  0  0  0
   21.2856   -6.4463   14.9475 C   0  0  0  0  0  0  0  0  0  0  0  0
   21.5957   -7.5915   15.8963 C   0  0  0  0  0  0  0  0  0  0  0  0
   23.0696   -7.4940   16.2972 C   0  0  0  0  0  0  0  0  0  0  0  0
   23.5429   -8.7353   16.7363 O   0  0  0  0  0  0  0  0  0  0  0  0
   23.6609   -9.4979   15.5699 C   0  0  0  0  0  0  0  0  0  0  0  0
   22.2772   -9.9518   15.1155 C   0  0  0  0  0  0  0  0  0  0  0  0
   21.2695   -8.8885   15.2681 N   0  0  0  0  0  0  0  0  0  0  0  0
   16.5959   -9.9052   16.6463 C   0  0  0  0  0  0  0  0  0  0  0  0
   15.9889  -11.2893   16.7076 C   0  0  0  0  0  0  0  0  0  0  0  0
   16.9616  -10.8289   17.7874 C   0  0  0  0  0  0  0  0  0  0  0  0
   15.4873   -8.5635   17.0473 S   0  0  0  0  0  0  0  0  0  0  0  0
   15.7587   -8.0589   18.7300 C   0  0  0  0  0  0  0  0  0  0  0  0
   14.0056   -9.0067   16.8813 N   0  0  0  0  0  0  0  0  0  0  0  0
   15.7627   -7.4028   16.1340 O   0  0  0  0  0  0  0  0  0  0  0  0
   13.6550   -9.7598   17.4096 H   0  0  0  0  0  0  0  0  0  0  0  0
 18 17  1  0  0  0
 18 19  1  0  0  0
 19 20  1  0  0  0
 20 21  1  0  0  0
 21 22  1  0  0  0
 22 23  1  0  0  0
 23  1  1  0  0  0
  1  2  2  0  0  0
  2  3  1  0  0  0
  3  4  2  0  0  0
  4  5  1  0  0  0
  5  6  2  0  0  0
  5 24  1  0  0  0
 24 25  1  0  0  0
 25 26  1  0  0  0
 24 27  1  0  0  0
 27 28  1  0  0  0
 27 29  2  0  0  0
 27 30  2  0  0  0
  3  7  1  0  0  0
  7  8  2  0  0  0
  8  9  1  0  0  0
  9 10  2  0  0  0
 10 11  1  0  0  0
 11 12  1  0  0  0
 12 13  2  0  0  0
 13 14  1  0  0  0
 14 15  2  0  0  0
 23 18  1  0  0  0
  6  1  1  0  0  0
 26 24  1  0  0  0
 15  7  1  0  0  0
 12  8  1  0  0  0
 29 31  1  0  0  0
 11 16  1  0  0  0
M  END
>  <minimizedAffinity>
15.14229

>  <minimizedRMSD>
2.38448

$$$$
CHEMBL2235548 PubChem-25108337


 29 32  0  0  0  0  0  0  0  0999 V2000
   16.8156  -10.2196   14.3848 C   0  0  0  0  0  0  0  0  0  0  0  0
   15.7631   -9.9246   13.5997 N   0  0  0  0  0  0  0  0  0  0  0  0
   16.2525   -9.7348   12.3842 N   0  0  0  0  0  0  0  0  0  0  0  0
   17.5811   -9.9267   12.4806 C   0  0  0  0  0  0  0  0  0  0  0  0
   17.9367  -10.2222   13.7068 O   0  0  0  0  0  0  0  0  0  0  0  0
   16.6952  -10.5600   16.1339 S   0  0  0  0  0  0  0  0  0  0  0  0
   15.8828   -8.9662   16.4589 C   0  0  0  0  0  0  0  0  0  0  0  0
   16.3662   -8.3806   17.7748 C   0  0  0  0  0  0  0  0  0  0  0  0
   14.3004   -7.2049   17.8117 O   0  0  0  0  0  0  0  0  0  0  0  0
   15.2539   -7.6842   18.4810 C   0  0  0  0  0  0  0  0  0  0  0  0
   15.2770   -7.5970   19.9116 N   0  0  0  0  0  0  0  0  0  0  0  0
   16.0592   -7.9869   20.3648 H   0  0  0  0  0  0  0  0  0  0  0  0
   14.2790   -7.0008   20.7510 C   0  0  0  0  0  0  0  0  0  0  0  0
   13.0172   -6.6323   20.2590 C   0  0  0  0  0  0  0  0  0  0  0  0
   12.0684   -6.0553   21.1081 C   0  0  0  0  0  0  0  0  0  0  0  0
   12.3747   -5.8433   22.4548 C   0  0  0  0  0  0  0  0  0  0  0  0
   11.0825   -5.0572   23.6133 Br  0  0  0  0  0  0  0  0  0  0  0  0
   13.6287   -6.2081   22.9516 C   0  0  0  0  0  0  0  0  0  0  0  0
   14.5767   -6.7850   22.1012 C   0  0  0  0  0  0  0  0  0  0  0  0
   18.5314   -9.7780   11.3437 C   0  0  0  0  0  0  0  0  0  0  0  0
   17.7934   -9.5797   10.1060 N   0  0  0  0  0  0  0  0  0  0  0  0
   16.6084  -10.1168    9.8349 N   0  0  0  0  0  0  0  0  0  0  0  0
   16.1568   -9.6996    8.6520 N   0  0  0  0  0  0  0  0  0  0  0  0
   17.0984   -8.8632    8.1766 C   0  0  0  0  0  0  0  0  0  0  0  0
   17.1062   -8.1453    6.9851 C   0  0  0  0  0  0  0  0  0  0  0  0
   18.2226   -7.3194    6.7438 C   0  0  0  0  0  0  0  0  0  0  0  0
   19.2766   -7.2351    7.6854 C   0  0  0  0  0  0  0  0  0  0  0  0
   19.2317   -7.9762    8.8825 C   0  0  0  0  0  0  0  0  0  0  0  0
   18.1134   -8.7828    9.0786 C   0  0  0  0  0  0  0  0  0  0  0  0
  9 10  2  0  0  0
 10  8  1  0  0  0
 10 11  1  0  0  0
  8  7  1  0  0  0
  7  6  1  0  0  0
  6  1  1  0  0  0
  1  2  2  0  0  0
  2  3  1  0  0  0
  3  4  2  0  0  0
  4 20  1  0  0  0
  4  5  1  0  0  0
 20 21  1  0  0  0
 21 22  1  0  0  0
 22 23  2  0  0  0
 23 24  1  0  0  0
 24 25  2  0  0  0
 25 26  1  0  0  0
 26 27  2  0  0  0
 27 28  1  0  0  0
 28 29  2  0  0  0
 29 21  1  0  0  0
 29 24  1  0  0  0
  5  1  1  0  0  0
 11 13  1  0  0  0
 13 14  2  0  0  0
 14 15  1  0  0  0
 15 16  2  0  0  0
 16 17  1  0  0  0
 16 18  1  0  0  0
 18 19  2  0  0  0
 19 13  1  0  0  0
 11 12  1  0  0  0
M  END
>  <minimizedAffinity>
-8.70667

>  <minimizedRMSD>
2.38589

$$$$
CHEMBL4086526


 37 41  0  0  0  0  0  0  0  0999 V2000
   17.3174   -9.8914   14.3114 C   0  0  0  0  0  0  0  0  0  0  0  0
   18.1652  -10.9790   14.5839 C   0  0  0  0  0  0  0  0  0  0  0  0
   18.6589  -11.7103   13.5517 N   0  0  0  0  0  0  0  0  0  0  0  0
   18.3774  -11.4062   12.2581 C   0  0  0  0  0  0  0  0  0  0  0  0
   17.5716  -10.2857   11.9769 C   0  0  0  0  0  0  0  0  0  0  0  0
   17.0596   -9.5725   13.0155 N   0  0  0  0  0  0  0  0  0  0  0  0
   18.8843  -12.3108   11.1861 C   0  0  0  0  0  0  0  0  0  0  0  0
   18.5620  -11.2956   15.9149 N   0  0  0  0  0  0  0  0  0  0  0  0
   18.2105  -10.7723   16.6711 H   0  0  0  0  0  0  0  0  0  0  0  0
   19.1878  -12.0378   16.0787 H   0  0  0  0  0  0  0  0  0  0  0  0
   17.2289   -9.8729   10.6023 C   0  0  0  0  0  0  0  0  0  0  0  0
   16.0343  -10.1545    9.9535 C   0  0  0  0  0  0  0  0  0  0  0  0
   16.0465   -9.5573    8.7353 N   0  0  0  0  0  0  0  0  0  0  0  0
   17.2327   -8.9207    8.6886 C   0  0  0  0  0  0  0  0  0  0  0  0
   17.9651   -9.0845    9.8011 N   0  0  0  0  0  0  0  0  0  0  0  0
   19.1617   -8.4752   10.0051 C   0  0  0  0  0  0  0  0  0  0  0  0
   19.6728   -7.6647    8.9819 C   0  0  0  0  0  0  0  0  0  0  0  0
   18.9322   -7.4967    7.7969 C   0  0  0  0  0  0  0  0  0  0  0  0
   17.6871   -8.1258    7.6389 C   0  0  0  0  0  0  0  0  0  0  0  0
   16.7365   -9.0516   15.3755 C   0  0  0  0  0  0  0  0  0  0  0  0
   17.4290   -8.3985   16.3296 N   0  0  0  0  0  0  0  0  0  0  0  0
   16.5665   -7.8157   17.1398 N   0  0  0  0  0  0  0  0  0  0  0  0
   15.3487   -8.1259   16.6522 C   0  0  0  0  0  0  0  0  0  0  0  0
   15.4076   -8.9128   15.5542 N   0  0  0  0  0  0  0  0  0  0  0  0
   18.8624   -8.4275   16.5703 C   0  0  0  0  0  0  0  0  0  0  0  0
   14.0936   -7.6790   17.2632 C   0  0  0  0  0  0  0  0  0  0  0  0
   13.2234   -7.1002   16.5581 O   0  0  0  0  0  0  0  0  0  0  0  0
   13.8646   -7.8996   18.6572 N   0  0  0  0  0  0  0  0  0  0  0  0
   14.5730   -8.3289   19.1893 H   0  0  0  0  0  0  0  0  0  0  0  0
   12.6258   -7.5154   19.3239 C   0  0  0  0  0  0  0  0  0  0  0  0
   12.3117   -8.4639   20.4853 C   0  0  0  0  0  0  0  0  0  0  0  0
   13.3352   -8.3222   21.6138 C   0  0  0  0  0  0  0  0  0  0  0  0
   13.4187   -6.8764   22.1079 C   0  0  0  0  0  0  0  0  0  0  0  0
   13.7377   -5.9298   20.9486 C   0  0  0  0  0  0  0  0  0  0  0  0
   12.7152   -6.0711   19.8189 C   0  0  0  0  0  0  0  0  0  0  0  0
   12.2238   -6.5024   22.7301 O   0  0  0  0  0  0  0  0  0  0  0  0
   12.4353   -5.1884   23.1505 C   0  0  0  0  0  0  0  0  0  0  0  0
  1  2  2  0  0  0
  2  3  1  0  0  0
  3  4  2  0  0  0
  4  5  1  0  0  0
  5  6  2  0  0  0
  5 11  1  0  0  0
 11 12  2  0  0  0
 12 13  1  0  0  0
 13 14  2  0  0  0
 14 15  1  0  0  0
 15 16  1  0  0  0
 16 17  2  0  0  0
 17 18  1  0  0  0
 18 19  2  0  0  0
  4  7  1  0  0  0
  2  8  1  0  0  0
  1 20  1  0  0  0
 20 21  1  0  0  0
 21 22  1  0  0  0
 22 23  2  0  0  0
 23 24  1  0  0  0
 23 26  1  0  0  0
 26 27  2  0  0  0
 26 28  1  0  0  0
 30 28  1  0  0  0
 30 31  1  0  0  0
 31 32  1  0  0  0
 32 33  1  0  0  0
 33 34  1  0  0  0
 34 35  1  0  0  0
 33 36  1  0  0  0
 36 37  1  0  0  0
 21 25  1  0  0  0
  6  1  1  0  0  0
 15 11  1  0  0  0
 24 20  2  0  0  0
 35 30  1  0  0  0
 19 14  1  0  0  0
  8  9  1  0  0  0
  8 10  1  0  0  0
 28 29  1  0  0  0
M  END
>  <minimizedAffinity>
-2.69724

>  <minimizedRMSD>
2.38606

$$$$
CHEMBL3764783


 32 34  0  0  0  0  0  0  0  0999 V2000
   18.1176   -9.5057   11.0877 C   0  0  0  0  0  0  0  0  0  0  0  0
   16.8786  -10.0621   10.9268 N   0  0  0  0  0  0  0  0  0  0  0  0
   16.1774   -9.9185    9.7562 C   0  0  0  0  0  0  0  0  0  0  0  0
   16.7133   -9.2062    8.7154 N   0  0  0  0  0  0  0  0  0  0  0  0
   17.9405   -8.6574    8.8804 C   0  0  0  0  0  0  0  0  0  0  0  0
   18.6216   -7.9327    7.9853 N   0  0  0  0  0  0  0  0  0  0  0  0
   19.7688   -7.6395    8.6584 C   0  0  0  0  0  0  0  0  0  0  0  0
   19.8167   -8.1515    9.9199 N   0  0  0  0  0  0  0  0  0  0  0  0
   18.6427   -8.7883   10.0227 C   0  0  0  0  0  0  0  0  0  0  0  0
   18.3599   -7.6763    7.0715 H   0  0  0  0  0  0  0  0  0  0  0  0
   18.8463   -9.6536   12.3067 N   0  0  0  0  0  0  0  0  0  0  0  0
   19.7375   -9.2423   12.3833 H   0  0  0  0  0  0  0  0  0  0  0  0
   18.3112  -10.3936   13.4386 C   0  0  0  0  0  0  0  0  0  0  0  0
   19.1262  -10.0961   14.6872 C   0  0  0  0  0  0  0  0  0  0  0  0
   18.4039   -9.1123   15.5948 C   0  0  0  0  0  0  0  0  0  0  0  0
   17.1138   -9.7186   16.1133 C   0  0  0  0  0  0  0  0  0  0  0  0
   15.9549   -8.8015   15.7784 C   0  0  0  0  0  0  0  0  0  0  0  0
   15.4908   -8.1046   17.0081 C   0  0  0  0  0  0  0  0  0  0  0  0
   14.4309   -7.4248   16.9807 O   0  0  0  0  0  0  0  0  0  0  0  0
   16.2320   -8.2352   18.2191 N   0  0  0  0  0  0  0  0  0  0  0  0
   15.8212   -7.6226   19.3538 O   0  0  0  0  0  0  0  0  0  0  0  0
   17.0532   -8.7781   18.2300 H   0  0  0  0  0  0  0  0  0  0  0  0
   15.0034   -7.1314   19.1782 H   0  0  0  0  0  0  0  0  0  0  0  0
   14.8876  -10.5171    9.6348 N   0  0  0  0  0  0  0  0  0  0  0  0
   14.5853  -10.8218    8.7488 H   0  0  0  0  0  0  0  0  0  0  0  0
   14.0053  -10.6916   10.7776 C   0  0  0  0  0  0  0  0  0  0  0  0
   12.8199   -9.8034   10.6380 C   0  0  0  0  0  0  0  0  0  0  0  0
   11.5307  -10.3296   10.7748 C   0  0  0  0  0  0  0  0  0  0  0  0
   10.4171   -9.4907   10.6652 C   0  0  0  0  0  0  0  0  0  0  0  0
   10.5921   -8.1244   10.4241 C   0  0  0  0  0  0  0  0  0  0  0  0
   11.8804   -7.5963   10.2947 C   0  0  0  0  0  0  0  0  0  0  0  0
   12.9942   -8.4348   10.4041 C   0  0  0  0  0  0  0  0  0  0  0  0
 18 19  2  0  0  0
 18 17  1  0  0  0
 17 16  1  0  0  0
 16 15  1  0  0  0
 15 14  1  0  0  0
 14 13  1  0  0  0
 13 11  1  0  0  0
 11  1  1  0  0  0
  1  2  2  0  0  0
  2  3  1  0  0  0
  3  4  2  0  0  0
  4  5  1  0  0  0
  5  6  1  0  0  0
  6  7  1  0  0  0
  7  8  2  0  0  0
  8  9  1  0  0  0
  3 24  1  0  0  0
 24 26  1  0  0  0
 26 27  1  0  0  0
 27 28  2  0  0  0
 28 29  1  0  0  0
 29 30  2  0  0  0
 30 31  1  0  0  0
 31 32  2  0  0  0
 18 20  1  0  0  0
 20 21  1  0  0  0
  9  1  1  0  0  0
 32 27  1  0  0  0
  9  5  2  0  0  0
 11 12  1  0  0  0
  6 10  1  0  0  0
 24 25  1  0  0  0
 20 22  1  0  0  0
 21 23  1  0  0  0
M  END
>  <minimizedAffinity>
3.40531

>  <minimizedRMSD>
2.39091

$$$$
CHEMBL1886072


 29 31  0  0  0  0  0  0  0  0999 V2000
   17.2072   -9.3516   13.6866 N   0  0  0  0  0  0  0  0  0  0  0  0
   17.8004  -10.0056   12.5587 C   0  0  0  0  0  0  0  0  0  0  0  0
   18.7755  -10.7849   12.7368 O   0  0  0  0  0  0  0  0  0  0  0  0
   16.4151   -8.7860   13.5388 H   0  0  0  0  0  0  0  0  0  0  0  0
   17.2547   -9.7610   11.1973 C   0  0  0  0  0  0  0  0  0  0  0  0
   17.9624   -9.0814   10.1731 C   0  0  0  0  0  0  0  0  0  0  0  0
   17.3405   -8.9044    8.9110 C   0  0  0  0  0  0  0  0  0  0  0  0
   16.0874   -9.3796    8.6929 N   0  0  0  0  0  0  0  0  0  0  0  0
   15.3944  -10.0313    9.6605 C   0  0  0  0  0  0  0  0  0  0  0  0
   14.1152  -10.5018    9.3986 O   0  0  0  0  0  0  0  0  0  0  0  0
   15.9638  -10.2295   10.9172 C   0  0  0  0  0  0  0  0  0  0  0  0
   18.0125   -8.2384    7.8816 C   0  0  0  0  0  0  0  0  0  0  0  0
   19.3010   -7.7424    8.0895 C   0  0  0  0  0  0  0  0  0  0  0  0
   19.9233   -7.9099    9.3278 C   0  0  0  0  0  0  0  0  0  0  0  0
   19.2585   -8.5743   10.3615 C   0  0  0  0  0  0  0  0  0  0  0  0
   13.7310  -10.3693    8.5543 H   0  0  0  0  0  0  0  0  0  0  0  0
   17.7229   -9.4853   15.0426 C   0  0  0  0  0  0  0  0  0  0  0  0
   14.9214   -7.9003   17.8809 C   0  0  0  0  0  0  0  0  0  0  0  0
   14.7307   -7.6833   16.5116 C   0  0  0  0  0  0  0  0  0  0  0  0
   15.6405   -8.2027   15.5860 C   0  0  0  0  0  0  0  0  0  0  0  0
   16.7418   -8.9451   16.0271 C   0  0  0  0  0  0  0  0  0  0  0  0
   16.9322   -9.1635   17.3955 C   0  0  0  0  0  0  0  0  0  0  0  0
   16.0224   -8.6438   18.3207 C   0  0  0  0  0  0  0  0  0  0  0  0
   13.7736   -7.2580   19.0415 S   0  0  0  0  0  0  0  0  0  0  0  0
   13.3427   -5.8815   18.6194 O   0  0  0  0  0  0  0  0  0  0  0  0
   14.4182   -7.1714   20.3964 O   0  0  0  0  0  0  0  0  0  0  0  0
   12.3945   -8.2942   19.1240 N   0  0  0  0  0  0  0  0  0  0  0  0
   11.7278   -7.9198   19.7991 H   0  0  0  0  0  0  0  0  0  0  0  0
   12.6868   -9.2267   19.4161 H   0  0  0  0  0  0  0  0  0  0  0  0
 24 25  2  0  0  0
 24 26  2  0  0  0
 24 27  1  0  0  0
 24 18  1  0  0  0
 18 19  2  0  0  0
 19 20  1  0  0  0
 20 21  2  0  0  0
 21 17  1  0  0  0
 17  1  1  0  0  0
  1  2  1  0  0  0
  2  3  2  0  0  0
  2  5  1  0  0  0
  5  6  2  0  0  0
  6  7  1  0  0  0
  7  8  2  0  0  0
  8  9  1  0  0  0
  9 10  1  0  0  0
  9 11  2  0  0  0
  7 12  1  0  0  0
 12 13  2  0  0  0
 13 14  1  0  0  0
 14 15  2  0  0  0
 21 22  1  0  0  0
 22 23  2  0  0  0
 23 18  1  0  0  0
 11  5  1  0  0  0
 15  6  1  0  0  0
 27 28  1  0  0  0
 27 29  1  0  0  0
  1  4  1  0  0  0
 10 16  1  0  0  0
M  END
>  <minimizedAffinity>
-6.41233

>  <minimizedRMSD>
2.39170

$$$$
CHEMBL5188335


 30 32  0  0  0  0  0  0  0  0999 V2000
   16.9001   -9.0315   14.3677 C   0  0  0  0  0  0  0  0  0  0  0  0
   15.9747   -7.9833   14.3826 C   0  0  0  0  0  0  0  0  0  0  0  0
   15.4338   -7.5394   15.5908 C   0  0  0  0  0  0  0  0  0  0  0  0
   15.8116   -8.1437   16.7991 C   0  0  0  0  0  0  0  0  0  0  0  0
   16.7292   -9.1979   16.7808 C   0  0  0  0  0  0  0  0  0  0  0  0
   17.2791   -9.6523   15.5703 C   0  0  0  0  0  0  0  0  0  0  0  0
   18.1957  -10.7102   15.5444 O   0  0  0  0  0  0  0  0  0  0  0  0
   17.9473  -11.9595   16.1745 C   0  0  0  0  0  0  0  0  0  0  0  0
   17.4420   -9.5007   13.0600 C   0  0  0  0  0  0  0  0  0  0  0  0
   16.3730  -10.0820   12.2676 N   0  0  0  0  0  0  0  0  0  0  0  0
   15.8394  -10.7450   12.8299 H   0  0  0  0  0  0  0  0  0  0  0  0
   17.0031  -10.7656   11.1522 C   0  0  0  0  0  0  0  0  0  0  0  0
   16.1062  -10.6956    9.9268 C   0  0  0  0  0  0  0  0  0  0  0  0
   19.8089   -8.1294    9.8879 C   0  0  0  0  0  0  0  0  0  0  0  0
   18.7101   -8.9911   10.0629 C   0  0  0  0  0  0  0  0  0  0  0  0
   17.8093   -9.0952    9.0039 C   0  0  0  0  0  0  0  0  0  0  0  0
   17.9641   -8.4008    7.8427 C   0  0  0  0  0  0  0  0  0  0  0  0
   19.0388   -7.5394    7.6370 C   0  0  0  0  0  0  0  0  0  0  0  0
   19.9725   -7.4086    8.6828 C   0  0  0  0  0  0  0  0  0  0  0  0
   16.9545   -8.6734    6.9951 N   0  0  0  0  0  0  0  0  0  0  0  0
   16.1855   -9.5568    7.6883 C   0  0  0  0  0  0  0  0  0  0  0  0
   16.6946   -9.8307    8.9136 N   0  0  0  0  0  0  0  0  0  0  0  0
   15.2878   -7.7237   18.0267 O   0  0  0  0  0  0  0  0  0  0  0  0
   13.8948   -7.7209   18.3231 C   0  0  0  0  0  0  0  0  0  0  0  0
   13.6643   -7.2666   19.7237 C   0  0  0  0  0  0  0  0  0  0  0  0
   12.4888   -7.0866   20.1377 O   0  0  0  0  0  0  0  0  0  0  0  0
   14.7760   -7.0209   20.5816 N   0  0  0  0  0  0  0  0  0  0  0  0
   14.5909   -6.5971   21.8535 O   0  0  0  0  0  0  0  0  0  0  0  0
   15.6903   -7.1614   20.2445 H   0  0  0  0  0  0  0  0  0  0  0  0
   13.6412   -6.5084   22.0298 H   0  0  0  0  0  0  0  0  0  0  0  0
 14 15  2  0  0  0
 15 16  1  0  0  0
 16 17  2  0  0  0
 17 18  1  0  0  0
 18 19  2  0  0  0
 17 20  1  0  0  0
 20 21  2  0  0  0
 21 22  1  0  0  0
 22 13  1  0  0  0
 13 12  1  0  0  0
 12 10  1  0  0  0
 10  9  1  0  0  0
  9  1  1  0  0  0
  1  2  2  0  0  0
  2  3  1  0  0  0
  3  4  2  0  0  0
  4  5  1  0  0  0
  5  6  2  0  0  0
  6  7  1  0  0  0
  7  8  1  0  0  0
  4 23  1  0  0  0
 23 24  1  0  0  0
 24 25  1  0  0  0
 25 26  2  0  0  0
 25 27  1  0  0  0
 27 28  1  0  0  0
 19 14  1  0  0  0
  6  1  1  0  0  0
 22 16  1  0  0  0
 10 11  1  0  0  0
 27 29  1  0  0  0
 28 30  1  0  0  0
M  END
>  <minimizedAffinity>
-4.61620

>  <minimizedRMSD>
2.39554

$$$$
CHEMBL3959627 PubChem-132961628


 36 38  0  0  0  0  0  0  0  0999 V2000
   17.1859   -8.8878   15.7353 C   0  0  0  0  0  0  0  0  0  0  0  0
   17.7689   -9.2002   16.9682 C   0  0  0  0  0  0  0  0  0  0  0  0
   17.1311   -8.8500   18.1616 C   0  0  0  0  0  0  0  0  0  0  0  0
   15.9025   -8.1825   18.1300 C   0  0  0  0  0  0  0  0  0  0  0  0
   15.3141   -7.8681   16.9013 C   0  0  0  0  0  0  0  0  0  0  0  0
   15.9531   -8.2182   15.7090 C   0  0  0  0  0  0  0  0  0  0  0  0
   17.2978   -9.8571   13.3647 C   0  0  0  0  0  0  0  0  0  0  0  0
   16.0715  -10.1394   13.3107 O   0  0  0  0  0  0  0  0  0  0  0  0
   17.8736   -9.2600   14.5338 N   0  0  0  0  0  0  0  0  0  0  0  0
   18.8426   -9.0875   14.5090 H   0  0  0  0  0  0  0  0  0  0  0  0
   18.1619  -10.1220   12.1779 C   0  0  0  0  0  0  0  0  0  0  0  0
   19.9382   -7.8004    9.0889 C   0  0  0  0  0  0  0  0  0  0  0  0
   19.2136   -7.4960    7.9338 C   0  0  0  0  0  0  0  0  0  0  0  0
   17.9053   -7.9622    7.7841 C   0  0  0  0  0  0  0  0  0  0  0  0
   17.3175   -8.7337    8.7904 C   0  0  0  0  0  0  0  0  0  0  0  0
   18.0388   -9.0456    9.9647 C   0  0  0  0  0  0  0  0  0  0  0  0
   19.3560   -8.5710   10.0988 C   0  0  0  0  0  0  0  0  0  0  0  0
   17.4422   -9.8033   10.9409 N   0  0  0  0  0  0  0  0  0  0  0  0
   16.1595  -10.2574   10.7731 C   0  0  0  0  0  0  0  0  0  0  0  0
   15.6086  -10.9603   11.6662 O   0  0  0  0  0  0  0  0  0  0  0  0
   15.4542   -9.9409    9.6011 C   0  0  0  0  0  0  0  0  0  0  0  0
   16.0494   -9.1884    8.6421 N   0  0  0  0  0  0  0  0  0  0  0  0
   14.0571  -10.4166    9.3878 C   0  0  0  0  0  0  0  0  0  0  0  0
   15.0970   -7.7397   19.6243 S   0  0  0  0  0  0  0  0  0  0  0  0
   15.3778   -6.3013   19.9627 O   0  0  0  0  0  0  0  0  0  0  0  0
   15.6059   -8.6141   20.7361 O   0  0  0  0  0  0  0  0  0  0  0  0
   13.3868   -7.9599   19.4585 N   0  0  0  0  0  0  0  0  0  0  0  0
   12.5322   -6.9518   18.9179 C   0  0  0  0  0  0  0  0  0  0  0  0
   13.0101   -5.8502   18.5318 O   0  0  0  0  0  0  0  0  0  0  0  0
   11.1297   -7.2055   18.8159 N   0  0  0  0  0  0  0  0  0  0  0  0
   12.9889   -8.8125   19.7481 H   0  0  0  0  0  0  0  0  0  0  0  0
   10.7864   -8.0806   19.1084 H   0  0  0  0  0  0  0  0  0  0  0  0
   10.1862   -6.2235   18.2970 C   0  0  0  0  0  0  0  0  0  0  0  0
   10.2875   -4.9197   19.0735 C   0  0  0  0  0  0  0  0  0  0  0  0
   10.2368   -5.1890   20.5653 C   0  0  0  0  0  0  0  0  0  0  0  0
   11.3032   -4.3694   21.2616 C   0  0  0  0  0  0  0  0  0  0  0  0
 12 13  2  0  0  0
 13 14  1  0  0  0
 14 15  2  0  0  0
 15 16  1  0  0  0
 16 17  2  0  0  0
 16 18  1  0  0  0
 18 19  1  0  0  0
 19 20  2  0  0  0
 19 21  1  0  0  0
 21 22  2  0  0  0
 21 23  1  0  0  0
 18 11  1  0  0  0
 11  7  1  0  0  0
  7  8  2  0  0  0
  7  9  1  0  0  0
  9  1  1  0  0  0
  1  2  2  0  0  0
  2  3  1  0  0  0
  3  4  2  0  0  0
  4  5  1  0  0  0
  5  6  2  0  0  0
  4 24  1  0  0  0
 24 25  2  0  0  0
 24 26  2  0  0  0
 24 27  1  0  0  0
 27 28  1  0  0  0
 28 29  2  0  0  0
 28 30  1  0  0  0
 30 33  1  0  0  0
 33 34  1  0  0  0
 34 35  1  0  0  0
 35 36  1  0  0  0
 17 12  1  0  0  0
  6  1  1  0  0  0
 22 15  1  0  0  0
  9 10  1  0  0  0
 27 31  1  0  0  0
 30 32  1  0  0  0
M  END
>  <minimizedAffinity>
-2.58006

>  <minimizedRMSD>
2.39561

$$$$
CHEMBL5078554


 37 42  0  0  0  0  0  0  0  0999 V2000
   16.9890   -9.9049    7.8230 N   0  0  0  0  0  0  0  0  0  0  0  0
   17.2880   -9.4029    6.5812 C   0  0  0  0  0  0  0  0  0  0  0  0
   18.2774   -8.4636    6.4700 N   0  0  0  0  0  0  0  0  0  0  0  0
   18.9714   -8.0075    7.5203 C   0  0  0  0  0  0  0  0  0  0  0  0
   19.8846   -7.0849    7.1733 N   0  0  0  0  0  0  0  0  0  0  0  0
   19.6850   -7.0238    5.8278 C   0  0  0  0  0  0  0  0  0  0  0  0
   18.7092   -7.8567    5.3834 N   0  0  0  0  0  0  0  0  0  0  0  0
   18.6838   -8.5034    8.7773 C   0  0  0  0  0  0  0  0  0  0  0  0
   17.7024   -9.4399    8.8905 C   0  0  0  0  0  0  0  0  0  0  0  0
   17.5686   -9.7784   10.1772 N   0  0  0  0  0  0  0  0  0  0  0  0
   18.4413   -9.0705   10.8887 N   0  0  0  0  0  0  0  0  0  0  0  0
   19.1573   -8.2672   10.0531 C   0  0  0  0  0  0  0  0  0  0  0  0
   16.5754   -9.8523    5.4335 N   0  0  0  0  0  0  0  0  0  0  0  0
   15.8661  -10.5284    5.5280 H   0  0  0  0  0  0  0  0  0  0  0  0
   16.7920   -9.4869    4.5453 H   0  0  0  0  0  0  0  0  0  0  0  0
   20.4523   -6.1394    4.9464 C   0  0  0  0  0  0  0  0  0  0  0  0
   20.0483   -4.8945    4.5138 C   0  0  0  0  0  0  0  0  0  0  0  0
   21.0851   -4.4460    3.7141 C   0  0  0  0  0  0  0  0  0  0  0  0
   22.0455   -5.4435    3.7141 C   0  0  0  0  0  0  0  0  0  0  0  0
   21.6302   -6.4376    4.4614 O   0  0  0  0  0  0  0  0  0  0  0  0
   16.6007  -10.7037   10.7481 C   0  0  0  0  0  0  0  0  0  0  0  0
   15.8407  -10.0450   11.8911 C   0  0  0  0  0  0  0  0  0  0  0  0
   16.7542   -9.2989   12.7441 N   0  0  0  0  0  0  0  0  0  0  0  0
   17.2507  -10.2365   13.7666 C   0  0  0  0  0  0  0  0  0  0  0  0
   16.7763   -9.7136   15.0607 C   0  0  0  0  0  0  0  0  0  0  0  0
   16.0421   -8.5874   14.8719 C   0  0  0  0  0  0  0  0  0  0  0  0
   15.9610   -8.2661   13.4363 C   0  0  0  0  0  0  0  0  0  0  0  0
   15.4702   -7.8993   15.9411 C   0  0  0  0  0  0  0  0  0  0  0  0
   15.6702   -8.3948   17.2448 C   0  0  0  0  0  0  0  0  0  0  0  0
   16.4355   -9.5670   17.4321 C   0  0  0  0  0  0  0  0  0  0  0  0
   16.9959  -10.2379   16.3332 C   0  0  0  0  0  0  0  0  0  0  0  0
   15.0847   -7.6974   18.4029 C   0  0  0  0  0  0  0  0  0  0  0  0
   14.1572   -6.8596   18.2348 O   0  0  0  0  0  0  0  0  0  0  0  0
   15.5641   -7.9663   19.7209 N   0  0  0  0  0  0  0  0  0  0  0  0
   15.0366   -7.3338   20.7949 O   0  0  0  0  0  0  0  0  0  0  0  0
   16.2882   -8.6207   19.8501 H   0  0  0  0  0  0  0  0  0  0  0  0
   14.3395   -6.7262   20.5021 H   0  0  0  0  0  0  0  0  0  0  0  0
  1  2  2  0  0  0
  2  3  1  0  0  0
  3  4  1  0  0  0
  4  5  2  0  0  0
  5  6  1  0  0  0
  6  7  2  0  0  0
  6 16  1  0  0  0
 16 17  2  0  0  0
 17 18  1  0  0  0
 18 19  2  0  0  0
 19 20  1  0  0  0
  4  8  1  0  0  0
  8  9  2  0  0  0
  9 10  1  0  0  0
 10 11  1  0  0  0
 11 12  2  0  0  0
 10 21  1  0  0  0
 21 22  1  0  0  0
 22 23  1  0  0  0
 23 24  1  0  0  0
 24 25  1  0  0  0
 25 26  2  0  0  0
 26 27  1  0  0  0
 26 28  1  0  0  0
 28 29  2  0  0  0
 29 30  1  0  0  0
 30 31  2  0  0  0
 29 32  1  0  0  0
 32 33  2  0  0  0
 32 34  1  0  0  0
 34 35  1  0  0  0
  2 13  1  0  0  0
  9  1  1  0  0  0
 27 23  1  0  0  0
  7  3  1  0  0  0
 20 16  1  0  0  0
 12  8  1  0  0  0
 31 25  1  0  0  0
 34 36  1  0  0  0
 35 37  1  0  0  0
 13 14  1  0  0  0
 13 15  1  0  0  0
M  END
>  <minimizedAffinity>
-3.24325

>  <minimizedRMSD>
2.39765

$$$$
CHEMBL3764783


 32 34  0  0  0  0  0  0  0  0999 V2000
   18.1079   -9.5164   11.1091 C   0  0  0  0  0  0  0  0  0  0  0  0
   16.8682  -10.0688   10.9394 N   0  0  0  0  0  0  0  0  0  0  0  0
   16.1745   -9.9206    9.7649 C   0  0  0  0  0  0  0  0  0  0  0  0
   16.7187   -9.2075    8.7291 N   0  0  0  0  0  0  0  0  0  0  0  0
   17.9464   -8.6626    8.9027 C   0  0  0  0  0  0  0  0  0  0  0  0
   18.6351   -7.9378    8.0133 N   0  0  0  0  0  0  0  0  0  0  0  0
   19.7790   -7.6495    8.6941 C   0  0  0  0  0  0  0  0  0  0  0  0
   19.8178   -8.1645    9.9546 N   0  0  0  0  0  0  0  0  0  0  0  0
   18.6414   -8.7981   10.0489 C   0  0  0  0  0  0  0  0  0  0  0  0
   18.3796   -7.6787    7.0985 H   0  0  0  0  0  0  0  0  0  0  0  0
   18.8287   -9.6691   12.3321 N   0  0  0  0  0  0  0  0  0  0  0  0
   19.7397   -9.3019   12.3986 H   0  0  0  0  0  0  0  0  0  0  0  0
   18.2573  -10.3511   13.4826 C   0  0  0  0  0  0  0  0  0  0  0  0
   19.0862  -10.0614   14.7240 C   0  0  0  0  0  0  0  0  0  0  0  0
   18.3827   -9.0686   15.6365 C   0  0  0  0  0  0  0  0  0  0  0  0
   16.9624   -9.5211   15.9172 C   0  0  0  0  0  0  0  0  0  0  0  0
   16.0127   -8.3577   15.7150 C   0  0  0  0  0  0  0  0  0  0  0  0
   15.3977   -7.9762   17.0147 C   0  0  0  0  0  0  0  0  0  0  0  0
   14.2743   -7.4070   17.0329 O   0  0  0  0  0  0  0  0  0  0  0  0
   16.0691   -8.2848   18.2341 N   0  0  0  0  0  0  0  0  0  0  0  0
   15.5220   -7.9608   19.4288 O   0  0  0  0  0  0  0  0  0  0  0  0
   16.9419   -8.7394   18.2066 H   0  0  0  0  0  0  0  0  0  0  0  0
   14.6689   -7.5221   19.2855 H   0  0  0  0  0  0  0  0  0  0  0  0
   14.8837  -10.5152    9.6344 N   0  0  0  0  0  0  0  0  0  0  0  0
   14.5840  -10.8126    8.7451 H   0  0  0  0  0  0  0  0  0  0  0  0
   13.9969  -10.6959   10.7727 C   0  0  0  0  0  0  0  0  0  0  0  0
   12.8138   -9.8043   10.6351 C   0  0  0  0  0  0  0  0  0  0  0  0
   11.5233  -10.3269   10.7735 C   0  0  0  0  0  0  0  0  0  0  0  0
   10.4120   -9.4848   10.6657 C   0  0  0  0  0  0  0  0  0  0  0  0
   10.5906   -8.1189   10.4249 C   0  0  0  0  0  0  0  0  0  0  0  0
   11.8802   -7.5944   10.2939 C   0  0  0  0  0  0  0  0  0  0  0  0
   12.9917   -8.4361   10.4015 C   0  0  0  0  0  0  0  0  0  0  0  0
 18 19  2  0  0  0
 18 17  1  0  0  0
 17 16  1  0  0  0
 16 15  1  0  0  0
 15 14  1  0  0  0
 14 13  1  0  0  0
 13 11  1  0  0  0
 11  1  1  0  0  0
  1  2  2  0  0  0
  2  3  1  0  0  0
  3  4  2  0  0  0
  4  5  1  0  0  0
  5  6  1  0  0  0
  6  7  1  0  0  0
  7  8  2  0  0  0
  8  9  1  0  0  0
  3 24  1  0  0  0
 24 26  1  0  0  0
 26 27  1  0  0  0
 27 28  2  0  0  0
 28 29  1  0  0  0
 29 30  2  0  0  0
 30 31  1  0  0  0
 31 32  2  0  0  0
 18 20  1  0  0  0
 20 21  1  0  0  0
  9  1  1  0  0  0
 32 27  1  0  0  0
  9  5  2  0  0  0
 11 12  1  0  0  0
  6 10  1  0  0  0
 24 25  1  0  0  0
 20 22  1  0  0  0
 21 23  1  0  0  0
M  END
>  <minimizedAffinity>
3.46214

>  <minimizedRMSD>
2.40006

$$$$
CHEMBL4903331 95434874 CSC025936047 MCULE-5367979437 MolPort-027-919-312 PubChem-75387819 Z1502795468 ZINC000095434874


 28 31  0  0  0  0  0  0  0  0999 V2000
   16.8067   -9.8608   11.5502 C   0  0  0  0  0  0  0  0  0  0  0  0
   17.0325   -9.4979   10.2287 C   0  0  0  0  0  0  0  0  0  0  0  0
   16.0063   -9.5134    9.3387 C   0  0  0  0  0  0  0  0  0  0  0  0
   16.4105   -9.1437    8.1550 O   0  0  0  0  0  0  0  0  0  0  0  0
   17.7035   -8.8831    8.2583 C   0  0  0  0  0  0  0  0  0  0  0  0
   18.1703   -9.0896    9.5644 C   0  0  0  0  0  0  0  0  0  0  0  0
   14.7485   -9.8738    9.6894 N   0  0  0  0  0  0  0  0  0  0  0  0
   14.5172  -10.2324   10.9878 C   0  0  0  0  0  0  0  0  0  0  0  0
   15.5369  -10.2246   11.9038 N   0  0  0  0  0  0  0  0  0  0  0  0
   18.5295   -8.4327    7.1266 C   0  0  0  0  0  0  0  0  0  0  0  0
   18.2268   -8.8601    5.8266 C   0  0  0  0  0  0  0  0  0  0  0  0
   19.0057   -8.4375    4.7453 C   0  0  0  0  0  0  0  0  0  0  0  0
   20.0925   -7.5848    4.9575 C   0  0  0  0  0  0  0  0  0  0  0  0
   20.4006   -7.1544    6.2510 C   0  0  0  0  0  0  0  0  0  0  0  0
   19.6218   -7.5769    7.3323 C   0  0  0  0  0  0  0  0  0  0  0  0
   17.8684   -9.8531   12.5054 N   0  0  0  0  0  0  0  0  0  0  0  0
   18.5524   -9.1470   12.4525 H   0  0  0  0  0  0  0  0  0  0  0  0
   17.9704  -10.8552   13.5530 C   0  0  0  0  0  0  0  0  0  0  0  0
   16.8177   -9.0849   16.4049 C   0  0  0  0  0  0  0  0  0  0  0  0
   16.6816   -9.5116   15.1744 O   0  0  0  0  0  0  0  0  0  0  0  0
   17.7429  -10.2166   14.8767 C   0  0  0  0  0  0  0  0  0  0  0  0
   18.6230  -10.2591   15.9403 C   0  0  0  0  0  0  0  0  0  0  0  0
   18.0160   -9.5196   16.9435 C   0  0  0  0  0  0  0  0  0  0  0  0
   15.8459   -8.1403   18.5157 N   0  0  0  0  0  0  0  0  0  0  0  0
   15.8232   -8.2586   17.0969 C   0  0  0  0  0  0  0  0  0  0  0  0
   14.9428   -7.6486   16.4359 O   0  0  0  0  0  0  0  0  0  0  0  0
   16.5320   -8.6150   19.0383 H   0  0  0  0  0  0  0  0  0  0  0  0
   15.1754   -7.5839   18.9740 H   0  0  0  0  0  0  0  0  0  0  0  0
 24 25  1  0  0  0
 25 19  1  0  0  0
 19 20  1  0  0  0
 20 21  1  0  0  0
 21 18  1  0  0  0
 18 16  1  0  0  0
 16  1  1  0  0  0
  1  2  1  0  0  0
  2  3  2  0  0  0
  3  4  1  0  0  0
  4  5  1  0  0  0
  5 10  1  0  0  0
 10 11  2  0  0  0
 11 12  1  0  0  0
 12 13  2  0  0  0
 13 14  1  0  0  0
 14 15  2  0  0  0
  5  6  2  0  0  0
  3  7  1  0  0  0
  7  8  2  0  0  0
  8  9  1  0  0  0
 21 22  2  0  0  0
 22 23  1  0  0  0
 25 26  2  0  0  0
 23 19  2  0  0  0
  9  1  2  0  0  0
  6  2  1  0  0  0
 15 10  1  0  0  0
 24 27  1  0  0  0
 24 28  1  0  0  0
 16 17  1  0  0  0
M  END
>  <minimizedAffinity>
-8.22598

>  <minimizedRMSD>
2.40333

$$$$
CHEMBL4546220 PubChem-137049192


 34 39  0  0  0  0  0  0  0  0999 V2000
   16.3677  -10.5230   17.3834 C   0  0  0  0  0  0  0  0  0  0  0  0
   16.4058   -9.3333   16.4803 C   0  0  0  0  0  0  0  0  0  0  0  0
   16.7416   -9.3393   15.1393 C   0  0  0  0  0  0  0  0  0  0  0  0
   16.4805   -8.0590   14.6831 C   0  0  0  0  0  0  0  0  0  0  0  0
   16.0281   -7.3254   15.7216 N   0  0  0  0  0  0  0  0  0  0  0  0
   15.9819   -8.0921   16.8009 N   0  0  0  0  0  0  0  0  0  0  0  0
   15.5192   -7.6137   18.0748 C   0  0  0  0  0  0  0  0  0  0  0  0
   14.2026   -7.3046   18.2689 N   0  0  0  0  0  0  0  0  0  0  0  0
   13.7896   -6.8600   19.4817 C   0  0  0  0  0  0  0  0  0  0  0  0
   14.6601   -6.7146   20.5186 C   0  0  0  0  0  0  0  0  0  0  0  0
   13.9921   -6.2193   21.7410 C   0  0  0  0  0  0  0  0  0  0  0  0
   12.5225   -6.0662   21.3142 C   0  0  0  0  0  0  0  0  0  0  0  0
   12.4081   -6.4883   19.8403 C   0  0  0  0  0  0  0  0  0  0  0  0
   16.0026   -7.0294   20.3306 C   0  0  0  0  0  0  0  0  0  0  0  0
   16.8347   -6.9080   21.2677 O   0  0  0  0  0  0  0  0  0  0  0  0
   16.4055   -7.4747   19.1081 N   0  0  0  0  0  0  0  0  0  0  0  0
   17.3529   -7.7010   18.9651 H   0  0  0  0  0  0  0  0  0  0  0  0
   17.1973  -10.4708   14.3099 C   0  0  0  0  0  0  0  0  0  0  0  0
   17.9992  -11.3058   14.8099 O   0  0  0  0  0  0  0  0  0  0  0  0
   16.7369  -10.6500   12.9625 N   0  0  0  0  0  0  0  0  0  0  0  0
   15.3588  -10.3076   12.6101 C   0  0  0  0  0  0  0  0  0  0  0  0
   15.3169   -9.7031   11.2093 C   0  0  0  0  0  0  0  0  0  0  0  0
   16.0415  -10.5648   10.1636 C   0  0  0  0  0  0  0  0  0  0  0  0
   16.8017  -11.7636   10.7484 C   0  0  0  0  0  0  0  0  0  0  0  0
   17.5734  -11.3947   12.0170 C   0  0  0  0  0  0  0  0  0  0  0  0
   16.9255   -9.7174    9.3066 C   0  0  0  0  0  0  0  0  0  0  0  0
   16.9547   -9.8270    7.9561 N   0  0  0  0  0  0  0  0  0  0  0  0
   17.8281   -8.9399    7.4162 C   0  0  0  0  0  0  0  0  0  0  0  0
   18.0772   -8.8151    6.0494 C   0  0  0  0  0  0  0  0  0  0  0  0
   19.0076   -7.8527    5.6220 C   0  0  0  0  0  0  0  0  0  0  0  0
   19.6716   -7.0343    6.5568 C   0  0  0  0  0  0  0  0  0  0  0  0
   19.4133   -7.1678    7.9302 C   0  0  0  0  0  0  0  0  0  0  0  0
   18.4877   -8.1289    8.3267 C   0  0  0  0  0  0  0  0  0  0  0  0
   17.9787   -8.5130    9.8771 S   0  0  0  0  0  0  0  0  0  0  0  0
  1  2  1  0  0  0
  2  3  2  0  0  0
  3  4  1  0  0  0
  4  5  2  0  0  0
  5  6  1  0  0  0
  6  7  1  0  0  0
  7  8  2  0  0  0
  8  9  1  0  0  0
  9 10  2  0  0  0
 10 11  1  0  0  0
 11 12  1  0  0  0
 12 13  1  0  0  0
 10 14  1  0  0  0
 14 15  2  0  0  0
 14 16  1  0  0  0
  3 18  1  0  0  0
 18 19  2  0  0  0
 18 20  1  0  0  0
 20 21  1  0  0  0
 21 22  1  0  0  0
 22 23  1  0  0  0
 23 24  1  0  0  0
 24 25  1  0  0  0
 23 26  1  0  0  0
 26 27  2  0  0  0
 27 28  1  0  0  0
 28 29  2  0  0  0
 29 30  1  0  0  0
 30 31  2  0  0  0
 31 32  1  0  0  0
 32 33  2  0  0  0
 33 34  1  0  0  0
  6  2  1  0  0  0
 16  7  1  0  0  0
 13  9  1  0  0  0
 25 20  1  0  0  0
 34 26  1  0  0  0
 33 28  1  0  0  0
 16 17  1  0  0  0
M  END
>  <minimizedAffinity>
-3.06622

>  <minimizedRMSD>
2.40960

$$$$
CHEMBL1429340 5350168 ChemDiv-D103-1055 LN00724499 MCULE-8561544070 MolPort-000-816-075 PubChem-4871289 ZINC000005350168 ZINC05350168


 29 31  0  0  0  0  0  0  0  0999 V2000
   17.7421  -10.3359   13.2123 C   0  0  0  0  0  0  0  0  0  0  0  0
   17.6797  -11.5512   13.5449 O   0  0  0  0  0  0  0  0  0  0  0  0
   17.9309   -9.3266   14.2079 N   0  0  0  0  0  0  0  0  0  0  0  0
   18.0227   -8.3904   13.9174 H   0  0  0  0  0  0  0  0  0  0  0  0
   18.4459   -7.5844    5.8658 C   0  0  0  0  0  0  0  0  0  0  0  0
   18.4803   -8.0220    7.2853 C   0  0  0  0  0  0  0  0  0  0  0  0
   19.5676   -7.6797    8.0952 C   0  0  0  0  0  0  0  0  0  0  0  0
   19.6054   -8.0888    9.4315 C   0  0  0  0  0  0  0  0  0  0  0  0
   18.5552   -8.8423    9.9637 C   0  0  0  0  0  0  0  0  0  0  0  0
   18.5958   -9.2287   11.2354 O   0  0  0  0  0  0  0  0  0  0  0  0
   17.6264   -9.9475   11.7997 C   0  0  0  0  0  0  0  0  0  0  0  0
   16.5057  -10.3272   11.0489 C   0  0  0  0  0  0  0  0  0  0  0  0
   16.4197   -9.9450    9.7115 C   0  0  0  0  0  0  0  0  0  0  0  0
   15.4147  -10.2832    9.0304 O   0  0  0  0  0  0  0  0  0  0  0  0
   17.4552   -9.1896    9.1476 C   0  0  0  0  0  0  0  0  0  0  0  0
   17.4253   -8.7752    7.8086 C   0  0  0  0  0  0  0  0  0  0  0  0
   17.9934   -9.6227   15.6328 C   0  0  0  0  0  0  0  0  0  0  0  0
   16.8609   -8.9691   16.3496 C   0  0  0  0  0  0  0  0  0  0  0  0
   16.8310   -8.9597   17.7481 C   0  0  0  0  0  0  0  0  0  0  0  0
   15.7625   -8.3604   18.4214 C   0  0  0  0  0  0  0  0  0  0  0  0
   14.7207   -7.7684   17.6987 C   0  0  0  0  0  0  0  0  0  0  0  0
   14.7479   -7.7843   16.2996 C   0  0  0  0  0  0  0  0  0  0  0  0
   15.8161   -8.3835   15.6258 C   0  0  0  0  0  0  0  0  0  0  0  0
   13.3747   -7.0268   18.5437 S   0  0  0  0  0  0  0  0  0  0  0  0
   12.7374   -8.1319   19.7093 N   0  0  0  0  0  0  0  0  0  0  0  0
   13.8438   -5.7890   19.2555 O   0  0  0  0  0  0  0  0  0  0  0  0
   12.3006   -6.6630   17.5582 O   0  0  0  0  0  0  0  0  0  0  0  0
   13.4668   -8.3786   20.3782 H   0  0  0  0  0  0  0  0  0  0  0  0
   12.4110   -8.9744   19.2360 H   0  0  0  0  0  0  0  0  0  0  0  0
  5  6  1  0  0  0
  6  7  2  0  0  0
  7  8  1  0  0  0
  8  9  2  0  0  0
  9 10  1  0  0  0
 10 11  1  0  0  0
 11 12  2  0  0  0
 11  1  1  0  0  0
 12 13  1  0  0  0
 13 14  2  0  0  0
 13 15  1  0  0  0
 15 16  2  0  0  0
 15  9  1  0  0  0
 16  6  1  0  0  0
  1  2  2  0  0  0
  1  3  1  0  0  0
  3 17  1  0  0  0
 17 18  1  0  0  0
 18 19  2  0  0  0
 19 20  1  0  0  0
 20 21  2  0  0  0
 21 22  1  0  0  0
 21 24  1  0  0  0
 22 23  2  0  0  0
 23 18  1  0  0  0
 24 25  1  0  0  0
 24 26  2  0  0  0
 24 27  2  0  0  0
  3  4  1  0  0  0
 25 28  1  0  0  0
 25 29  1  0  0  0
M  END
>  <minimizedAffinity>
-7.34723

>  <minimizedRMSD>
2.41066

$$$$
CHEMBL197660 PubChem-11569488


 37 41  0  0  0  0  0  0  0  0999 V2000
   16.8825  -11.7804   15.7457 C   0  0  0  0  0  0  0  0  0  0  0  0
   18.3464  -11.3921   15.6305 C   0  0  0  0  0  0  0  0  0  0  0  0
   18.7414  -10.4720   16.7741 C   0  0  0  0  0  0  0  0  0  0  0  0
   17.0091   -8.6271   16.9440 C   0  0  0  0  0  0  0  0  0  0  0  0
   17.5755   -7.9770   16.0225 O   0  0  0  0  0  0  0  0  0  0  0  0
   17.5596   -9.8738   17.3818 N   0  0  0  0  0  0  0  0  0  0  0  0
   17.1211  -10.3474   18.1253 H   0  0  0  0  0  0  0  0  0  0  0  0
   15.7829   -8.1021   17.5696 C   0  0  0  0  0  0  0  0  0  0  0  0
   14.6504   -7.8311   16.7908 C   0  0  0  0  0  0  0  0  0  0  0  0
   13.4876   -7.3319   17.3836 C   0  0  0  0  0  0  0  0  0  0  0  0
   13.4346   -7.0961   18.7669 C   0  0  0  0  0  0  0  0  0  0  0  0
   14.5736   -7.3660   19.5426 C   0  0  0  0  0  0  0  0  0  0  0  0
   15.7365   -7.8650   18.9498 C   0  0  0  0  0  0  0  0  0  0  0  0
   12.2387   -6.5736   19.3768 N   0  0  0  0  0  0  0  0  0  0  0  0
   10.9329   -7.1703   19.0830 C   0  0  0  0  0  0  0  0  0  0  0  0
    9.8438   -6.1044   19.2064 C   0  0  0  0  0  0  0  0  0  0  0  0
    9.9265   -5.4802   20.4632 O   0  0  0  0  0  0  0  0  0  0  0  0
   11.0909   -4.6933   20.4382 C   0  0  0  0  0  0  0  0  0  0  0  0
   12.3255   -5.5939   20.4632 C   0  0  0  0  0  0  0  0  0  0  0  0
   16.0922  -11.1997   14.5865 C   0  0  0  0  0  0  0  0  0  0  0  0
   16.7579  -10.0049   14.0723 N   0  0  0  0  0  0  0  0  0  0  0  0
   17.8806  -10.3838   13.1991 C   0  0  0  0  0  0  0  0  0  0  0  0
   17.4120  -11.0602   11.9085 C   0  0  0  0  0  0  0  0  0  0  0  0
   16.4144  -10.2167   11.2665 N   0  0  0  0  0  0  0  0  0  0  0  0
   15.2772   -9.7963   12.0710 C   0  0  0  0  0  0  0  0  0  0  0  0
   15.7875   -9.1544   13.3652 C   0  0  0  0  0  0  0  0  0  0  0  0
   16.5561   -9.7640    9.9121 C   0  0  0  0  0  0  0  0  0  0  0  0
   15.6092   -9.9267    8.9570 N   0  0  0  0  0  0  0  0  0  0  0  0
   16.0728   -9.3947    7.8562 O   0  0  0  0  0  0  0  0  0  0  0  0
   17.2692   -8.8982    8.0589 C   0  0  0  0  0  0  0  0  0  0  0  0
   17.6333   -9.1041    9.3581 C   0  0  0  0  0  0  0  0  0  0  0  0
   18.8579   -8.6741    9.8623 C   0  0  0  0  0  0  0  0  0  0  0  0
   19.7335   -8.0089    8.9734 C   0  0  0  0  0  0  0  0  0  0  0  0
   19.3490   -7.8030    7.6276 C   0  0  0  0  0  0  0  0  0  0  0  0
   18.1013   -8.2493    7.1528 C   0  0  0  0  0  0  0  0  0  0  0  0
   20.9818   -7.5425    9.3941 O   0  0  0  0  0  0  0  0  0  0  0  0
   21.9383   -8.3782   10.0318 C   0  0  0  0  0  0  0  0  0  0  0  0
  8  4  1  0  0  0
  4  5  2  0  0  0
  4  6  1  0  0  0
  6  3  1  0  0  0
  3  2  1  0  0  0
  2  1  1  0  0  0
  1 20  1  0  0  0
 20 21  1  0  0  0
 21 22  1  0  0  0
 22 23  1  0  0  0
 23 24  1  0  0  0
 24 25  1  0  0  0
 25 26  1  0  0  0
 24 27  1  0  0  0
 27 28  2  0  0  0
 28 29  1  0  0  0
 29 30  1  0  0  0
 30 31  2  0  0  0
 31 32  1  0  0  0
 32 33  2  0  0  0
 33 34  1  0  0  0
 34 35  2  0  0  0
 33 36  1  0  0  0
 36 37  1  0  0  0
  8  9  2  0  0  0
  9 10  1  0  0  0
 10 11  2  0  0  0
 11 12  1  0  0  0
 12 13  2  0  0  0
 11 14  1  0  0  0
 14 15  1  0  0  0
 15 16  1  0  0  0
 16 17  1  0  0  0
 17 18  1  0  0  0
 18 19  1  0  0  0
 13  8  1  0  0  0
 19 14  1  0  0  0
 26 21  1  0  0  0
 31 27  1  0  0  0
 35 30  1  0  0  0
  6  7  1  0  0  0
M  END
>  <minimizedAffinity>
-1.02181

>  <minimizedRMSD>
2.41339

$$$$
CHEMBL344373 PubChem-9824300


 32 35  0  0  0  0  0  0  0  0999 V2000
   17.6319  -11.2983   15.5437 C   0  0  0  0  0  0  0  0  0  0  0  0
   16.9387  -10.0391   15.1268 C   0  0  0  0  0  0  0  0  0  0  0  0
   16.7454   -9.7516   13.7594 C   0  0  0  0  0  0  0  0  0  0  0  0
   16.0855   -8.5775   13.3818 C   0  0  0  0  0  0  0  0  0  0  0  0
   15.6202   -7.6862   14.3482 C   0  0  0  0  0  0  0  0  0  0  0  0
   15.8097   -7.9646   15.7017 C   0  0  0  0  0  0  0  0  0  0  0  0
   16.4626   -9.1360   16.0989 C   0  0  0  0  0  0  0  0  0  0  0  0
   17.2392  -10.6666   12.6826 C   0  0  0  0  0  0  0  0  0  0  0  0
   18.9980  -10.3567   12.3178 S   0  0  0  0  0  0  0  0  0  0  0  0
   18.6492   -9.5512   10.7595 C   0  0  0  0  0  0  0  0  0  0  0  0
   17.5242   -9.8039   10.0418 N   0  0  0  0  0  0  0  0  0  0  0  0
   17.6763   -8.9998    8.9806 C   0  0  0  0  0  0  0  0  0  0  0  0
   16.8120   -8.8458    7.8999 C   0  0  0  0  0  0  0  0  0  0  0  0
   17.1908   -7.9375    6.8936 C   0  0  0  0  0  0  0  0  0  0  0  0
   18.4044   -7.2207    6.9930 C   0  0  0  0  0  0  0  0  0  0  0  0
   19.2542   -7.4038    8.0999 C   0  0  0  0  0  0  0  0  0  0  0  0
   18.8460   -8.3091    9.0761 C   0  0  0  0  0  0  0  0  0  0  0  0
   19.4907   -8.6423   10.2022 N   0  0  0  0  0  0  0  0  0  0  0  0
   20.3547   -8.3124   10.5398 H   0  0  0  0  0  0  0  0  0  0  0  0
   16.6718   -9.4446   17.8572 S   0  0  0  0  0  0  0  0  0  0  0  0
   15.5076   -8.1296   18.3224 C   0  0  0  0  0  0  0  0  0  0  0  0
   15.8563   -7.5933   19.6990 C   0  0  0  0  0  0  0  0  0  0  0  0
   14.7047   -6.9168   20.2768 N   0  0  0  0  0  0  0  0  0  0  0  0
   13.6016   -6.4605   19.4874 C   0  0  0  0  0  0  0  0  0  0  0  0
   13.6223   -6.5953   18.2329 O   0  0  0  0  0  0  0  0  0  0  0  0
   14.6837   -6.7669   21.2496 H   0  0  0  0  0  0  0  0  0  0  0  0
   12.4471   -5.8287   20.1433 C   0  0  0  0  0  0  0  0  0  0  0  0
   11.1822   -5.8461   19.5436 C   0  0  0  0  0  0  0  0  0  0  0  0
   10.1333   -5.2540   20.1732 N   0  0  0  0  0  0  0  0  0  0  0  0
   10.2887   -4.6434   21.3772 C   0  0  0  0  0  0  0  0  0  0  0  0
   11.5476   -4.6243   21.9786 C   0  0  0  0  0  0  0  0  0  0  0  0
   12.5970   -5.2162   21.3495 N   0  0  0  0  0  0  0  0  0  0  0  0
  1  2  1  0  0  0
  2  3  2  0  0  0
  3  8  1  0  0  0
  3  4  1  0  0  0
  8  9  1  0  0  0
  9 10  1  0  0  0
 10 11  2  0  0  0
 11 12  1  0  0  0
 12 13  2  0  0  0
 13 14  1  0  0  0
 14 15  2  0  0  0
 15 16  1  0  0  0
 16 17  2  0  0  0
 17 18  1  0  0  0
 17 12  1  0  0  0
 18 10  1  0  0  0
  4  5  2  0  0  0
  5  6  1  0  0  0
  6  7  2  0  0  0
  7 20  1  0  0  0
  7  2  1  0  0  0
 20 21  1  0  0  0
 21 22  1  0  0  0
 22 23  1  0  0  0
 23 24  1  0  0  0
 24 25  2  0  0  0
 24 27  1  0  0  0
 27 28  2  0  0  0
 28 29  1  0  0  0
 29 30  2  0  0  0
 30 31  1  0  0  0
 31 32  2  0  0  0
 32 27  1  0  0  0
 18 19  1  0  0  0
 23 26  1  0  0  0
M  END
>  <minimizedAffinity>
-4.62840

>  <minimizedRMSD>
2.41820

$$$$
CHEMBL4173465 PubChem-145951848


 32 36  0  0  0  0  0  0  0  0999 V2000
   17.0619   -9.9700   12.0833 C   0  0  0  0  0  0  0  0  0  0  0  0
   16.2918   -9.2253   12.9978 C   0  0  0  0  0  0  0  0  0  0  0  0
   16.4803   -9.4679   14.3551 C   0  0  0  0  0  0  0  0  0  0  0  0
   17.3829  -10.3889   14.8044 C   0  0  0  0  0  0  0  0  0  0  0  0
   18.1748  -11.1393   13.9389 C   0  0  0  0  0  0  0  0  0  0  0  0
   18.0068  -10.9161   12.5609 C   0  0  0  0  0  0  0  0  0  0  0  0
   17.3486  -10.4087   16.1423 N   0  0  0  0  0  0  0  0  0  0  0  0
   16.4108   -9.4879   16.4662 C   0  0  0  0  0  0  0  0  0  0  0  0
   15.8485   -8.8780   15.3881 N   0  0  0  0  0  0  0  0  0  0  0  0
   18.1352  -11.2344   17.0445 C   0  0  0  0  0  0  0  0  0  0  0  0
   16.0500   -9.1861   17.8166 N   0  0  0  0  0  0  0  0  0  0  0  0
   15.8085   -9.9271   18.4180 H   0  0  0  0  0  0  0  0  0  0  0  0
   16.0256   -7.8266   18.3378 C   0  0  0  0  0  0  0  0  0  0  0  0
   14.6313   -7.4278   18.6868 C   0  0  0  0  0  0  0  0  0  0  0  0
   14.2748   -7.2195   20.0232 C   0  0  0  0  0  0  0  0  0  0  0  0
   12.9635   -6.8628   20.3498 C   0  0  0  0  0  0  0  0  0  0  0  0
   11.9975   -6.7145   19.3405 C   0  0  0  0  0  0  0  0  0  0  0  0
   12.3602   -6.9276   18.0064 C   0  0  0  0  0  0  0  0  0  0  0  0
   13.6718   -7.2838   17.6796 C   0  0  0  0  0  0  0  0  0  0  0  0
   10.6783   -6.3594   19.6350 O   0  0  0  0  0  0  0  0  0  0  0  0
   10.3283   -5.0991   20.1895 C   0  0  0  0  0  0  0  0  0  0  0  0
   16.9024   -9.7208   10.7141 O   0  0  0  0  0  0  0  0  0  0  0  0
   18.9019   -8.4328   10.4600 N   0  0  0  0  0  0  0  0  0  0  0  0
   19.8447   -7.7917    9.6972 C   0  0  0  0  0  0  0  0  0  0  0  0
   19.7558   -7.7964    8.3335 N   0  0  0  0  0  0  0  0  0  0  0  0
   18.7146   -8.4542    7.7694 C   0  0  0  0  0  0  0  0  0  0  0  0
   17.7693   -9.0948    8.5000 C   0  0  0  0  0  0  0  0  0  0  0  0
   17.8552   -9.1037    9.8930 C   0  0  0  0  0  0  0  0  0  0  0  0
   16.8437   -9.5767    7.5884 C   0  0  0  0  0  0  0  0  0  0  0  0
   17.2775   -9.2189    6.3492 N   0  0  0  0  0  0  0  0  0  0  0  0
   18.4117   -8.5395    6.4707 N   0  0  0  0  0  0  0  0  0  0  0  0
   19.1563   -7.9767    5.3584 C   0  0  0  0  0  0  0  0  0  0  0  0
 23 24  2  0  0  0
 24 25  1  0  0  0
 25 26  2  0  0  0
 26 27  1  0  0  0
 27 28  2  0  0  0
 28 22  1  0  0  0
 22  1  1  0  0  0
  1  2  2  0  0  0
  2  3  1  0  0  0
  3  4  2  0  0  0
  4  5  1  0  0  0
  5  6  2  0  0  0
  4  7  1  0  0  0
  7  8  1  0  0  0
  8  9  2  0  0  0
  8 11  1  0  0  0
 11 13  1  0  0  0
 13 14  1  0  0  0
 14 15  2  0  0  0
 15 16  1  0  0  0
 16 17  2  0  0  0
 17 18  1  0  0  0
 18 19  2  0  0  0
 17 20  1  0  0  0
 20 21  1  0  0  0
  7 10  1  0  0  0
 27 29  1  0  0  0
 29 30  2  0  0  0
 30 31  1  0  0  0
 31 32  1  0  0  0
 28 23  1  0  0  0
  6  1  1  0  0  0
 19 14  1  0  0  0
 31 26  1  0  0  0
  9  3  1  0  0  0
 11 12  1  0  0  0
M  END
>  <minimizedAffinity>
-7.61689

>  <minimizedRMSD>
2.42012

$$$$
CHEMBL1502197 3347749 CSC026149415 MCULE-9722409337 MolPort-004-267-815 PubChem-2464556 Z20241451 ZINC000003347749


 29 31  0  0  0  0  0  0  0  0999 V2000
   18.0107  -10.4927   12.2164 N   0  0  0  0  0  0  0  0  0  0  0  0
   16.7578  -10.0165   11.7248 C   0  0  0  0  0  0  0  0  0  0  0  0
   15.7253  -10.0660   12.4451 O   0  0  0  0  0  0  0  0  0  0  0  0
   18.8027  -10.4450   11.6335 H   0  0  0  0  0  0  0  0  0  0  0  0
   18.1499  -11.0464   13.5544 C   0  0  0  0  0  0  0  0  0  0  0  0
   18.8021  -10.0281   14.4774 C   0  0  0  0  0  0  0  0  0  0  0  0
   15.8904   -8.4373   17.2007 C   0  0  0  0  0  0  0  0  0  0  0  0
   16.7233   -9.4881   17.6004 C   0  0  0  0  0  0  0  0  0  0  0  0
   17.6774  -10.0018   16.7172 C   0  0  0  0  0  0  0  0  0  0  0  0
   17.8055   -9.4616   15.4324 C   0  0  0  0  0  0  0  0  0  0  0  0
   16.9722   -8.4113   15.0318 C   0  0  0  0  0  0  0  0  0  0  0  0
   16.0182   -7.8984   15.9154 C   0  0  0  0  0  0  0  0  0  0  0  0
   15.4959   -7.1869   19.7236 N   0  0  0  0  0  0  0  0  0  0  0  0
   14.6999   -7.7910   18.3151 S   0  0  0  0  0  0  0  0  0  0  0  0
   13.9382   -6.6756   17.6558 O   0  0  0  0  0  0  0  0  0  0  0  0
   13.7351   -8.8745   18.7065 O   0  0  0  0  0  0  0  0  0  0  0  0
   16.1501   -6.4517   19.4554 H   0  0  0  0  0  0  0  0  0  0  0  0
   16.0043   -7.9452   20.1784 H   0  0  0  0  0  0  0  0  0  0  0  0
   16.6670   -9.4694   10.3433 C   0  0  0  0  0  0  0  0  0  0  0  0
   18.1908   -8.5724    9.9164 S   0  0  0  0  0  0  0  0  0  0  0  0
   17.9622   -8.8223    8.1567 C   0  0  0  0  0  0  0  0  0  0  0  0
   18.7527   -8.3187    7.1986 N   0  0  0  0  0  0  0  0  0  0  0  0
   18.2023   -8.7621    6.0624 C   0  0  0  0  0  0  0  0  0  0  0  0
   18.7481   -8.4397    4.8235 C   0  0  0  0  0  0  0  0  0  0  0  0
   19.8982   -7.6309    4.8239 C   0  0  0  0  0  0  0  0  0  0  0  0
   20.4583   -7.1765    6.0359 C   0  0  0  0  0  0  0  0  0  0  0  0
   19.8589   -7.5372    7.2523 C   0  0  0  0  0  0  0  0  0  0  0  0
   17.1117   -9.5158    6.2942 N   0  0  0  0  0  0  0  0  0  0  0  0
   16.9618   -9.5536    7.6163 N   0  0  0  0  0  0  0  0  0  0  0  0
 13 14  1  0  0  0
 14  7  1  0  0  0
  7  8  2  0  0  0
  8  9  1  0  0  0
  9 10  2  0  0  0
 10  6  1  0  0  0
  6  5  1  0  0  0
  5  1  1  0  0  0
  1  2  1  0  0  0
  2 19  1  0  0  0
 19 20  1  0  0  0
 20 21  1  0  0  0
 21 22  1  0  0  0
 22 23  1  0  0  0
 23 24  1  0  0  0
 24 25  2  0  0  0
 25 26  1  0  0  0
 26 27  2  0  0  0
 23 28  2  0  0  0
 28 29  1  0  0  0
  2  3  2  0  0  0
 10 11  1  0  0  0
 11 12  2  0  0  0
 14 15  2  0  0  0
 14 16  2  0  0  0
 12  7  1  0  0  0
 29 21  2  0  0  0
 27 22  1  0  0  0
 13 17  1  0  0  0
 13 18  1  0  0  0
  1  4  1  0  0  0
M  END
>  <minimizedAffinity>
-4.78700

>  <minimizedRMSD>
2.42278

$$$$
CHEMBL4207038


 39 42  0  0  0  0  0  0  0  0999 V2000
   16.4008  -10.1279    9.3336 C   0  0  0  0  0  0  0  0  0  0  0  0
   17.2743   -9.4326    8.3279 C   0  0  0  0  0  0  0  0  0  0  0  0
   18.2389   -8.5167    8.6157 N   0  0  0  0  0  0  0  0  0  0  0  0
   18.7252   -8.1615    7.4173 C   0  0  0  0  0  0  0  0  0  0  0  0
   18.0667   -8.8585    6.4486 C   0  0  0  0  0  0  0  0  0  0  0  0
   17.1430   -9.6692    6.9957 N   0  0  0  0  0  0  0  0  0  0  0  0
   18.3565   -8.6954    5.0969 C   0  0  0  0  0  0  0  0  0  0  0  0
   19.3647   -7.7764    4.7469 C   0  0  0  0  0  0  0  0  0  0  0  0
   20.0445   -7.0522    5.7613 C   0  0  0  0  0  0  0  0  0  0  0  0
   19.7269   -7.2397    7.1186 C   0  0  0  0  0  0  0  0  0  0  0  0
   19.6718   -7.5990    3.3953 O   0  0  0  0  0  0  0  0  0  0  0  0
   20.4197   -6.4893    2.9177 C   0  0  0  0  0  0  0  0  0  0  0  0
   18.6435   -7.9986    9.9164 C   0  0  0  0  0  0  0  0  0  0  0  0
   20.1316   -8.2137   10.1257 C   0  0  0  0  0  0  0  0  0  0  0  0
   16.5756  -10.2330   11.9166 C   0  0  0  0  0  0  0  0  0  0  0  0
   15.3461  -10.0271   12.0872 O   0  0  0  0  0  0  0  0  0  0  0  0
   17.1045  -10.3796   10.5907 N   0  0  0  0  0  0  0  0  0  0  0  0
   18.0390  -10.6811   10.5199 H   0  0  0  0  0  0  0  0  0  0  0  0
   19.3655  -10.4817   15.2048 C   0  0  0  0  0  0  0  0  0  0  0  0
   19.4593  -11.3420   14.1036 C   0  0  0  0  0  0  0  0  0  0  0  0
   18.5332  -11.2518   13.0505 C   0  0  0  0  0  0  0  0  0  0  0  0
   17.4938  -10.3016   13.0727 C   0  0  0  0  0  0  0  0  0  0  0  0
   17.4183   -9.4552   14.2008 C   0  0  0  0  0  0  0  0  0  0  0  0
   18.3360   -9.5442   15.2292 C   0  0  0  0  0  0  0  0  0  0  0  0
   18.0464   -8.5656   16.3236 C   0  0  0  0  0  0  0  0  0  0  0  0
   16.8348   -7.8833   15.8705 N   0  0  0  0  0  0  0  0  0  0  0  0
   16.4710   -8.4328   14.6108 C   0  0  0  0  0  0  0  0  0  0  0  0
   15.4304   -8.0898   13.9933 O   0  0  0  0  0  0  0  0  0  0  0  0
   16.3563   -7.1703   16.3521 H   0  0  0  0  0  0  0  0  0  0  0  0
   15.0213   -9.4968    9.5201 C   0  0  0  0  0  0  0  0  0  0  0  0
   13.9158  -10.5350    9.4093 C   0  0  0  0  0  0  0  0  0  0  0  0
   13.1439  -10.6292   10.7152 C   0  0  0  0  0  0  0  0  0  0  0  0
   11.9485   -9.7995   10.6540 N   0  0  0  0  0  0  0  0  0  0  0  0
   11.0774  -10.2437   10.5399 H   0  0  0  0  0  0  0  0  0  0  0  0
   11.9745   -8.3726   10.7510 C   0  0  0  0  0  0  0  0  0  0  0  0
   12.9290   -7.7688   11.3802 N   0  0  0  0  0  0  0  0  0  0  0  0
   13.6087   -8.2924   11.8630 H   0  0  0  0  0  0  0  0  0  0  0  0
   10.9534   -7.5720   10.0252 C   0  0  0  0  0  0  0  0  0  0  0  0
   11.4419   -6.3009    9.7886 F   0  0  0  0  0  0  0  0  0  0  0  0
 19 20  2  0  0  0
 20 21  1  0  0  0
 21 22  2  0  0  0
 22 23  1  0  0  0
 23 24  2  0  0  0
 24 25  1  0  0  0
 25 26  1  0  0  0
 26 27  1  0  0  0
 27 28  2  0  0  0
 22 15  1  0  0  0
 15 16  2  0  0  0
 15 17  1  0  0  0
 17  1  1  0  0  0
  1  2  1  0  0  0
  2  3  1  0  0  0
  3  4  1  0  0  0
  4  5  2  0  0  0
  5  6  1  0  0  0
  5  7  1  0  0  0
  7  8  2  0  0  0
  8  9  1  0  0  0
  9 10  2  0  0  0
  8 11  1  0  0  0
 11 12  1  0  0  0
  3 13  1  0  0  0
 13 14  1  0  0  0
  1 30  1  0  0  0
 30 31  1  0  0  0
 31 32  1  0  0  0
 32 33  1  0  0  0
 33 35  1  0  0  0
 35 36  2  0  0  0
 35 38  1  0  0  0
 38 39  1  0  0  0
 24 19  1  0  0  0
  6  2  2  0  0  0
 27 23  1  0  0  0
 10  4  1  0  0  0
 26 29  1  0  0  0
 17 18  1  0  0  0
 33 34  1  0  0  0
 36 37  1  0  0  0
M  END
>  <minimizedAffinity>
3.34911

>  <minimizedRMSD>
2.42293

$$$$
CHEMBL3971140 PubChem-134153891


 38 42  0  0  0  0  0  0  0  0999 V2000
   17.1216  -10.3353   14.2852 C   0  0  0  0  0  0  0  0  0  0  0  0
   17.6694  -11.3933   15.0255 C   0  0  0  0  0  0  0  0  0  0  0  0
   17.6190  -11.3765   16.4223 C   0  0  0  0  0  0  0  0  0  0  0  0
   17.0174  -10.3076   17.0884 C   0  0  0  0  0  0  0  0  0  0  0  0
   16.4550   -9.2466   16.3639 C   0  0  0  0  0  0  0  0  0  0  0  0
   16.5107   -9.2691   14.9629 C   0  0  0  0  0  0  0  0  0  0  0  0
   18.2632  -12.4371   14.3947 F   0  0  0  0  0  0  0  0  0  0  0  0
   16.6933   -9.3858   11.9404 C   0  0  0  0  0  0  0  0  0  0  0  0
   16.2755   -8.2742   12.3645 O   0  0  0  0  0  0  0  0  0  0  0  0
   17.1725  -10.3847   12.8515 N   0  0  0  0  0  0  0  0  0  0  0  0
   17.5787  -11.1876   12.4520 H   0  0  0  0  0  0  0  0  0  0  0  0
   17.1979   -9.6314    8.4093 C   0  0  0  0  0  0  0  0  0  0  0  0
   17.8393   -9.2489    7.2333 C   0  0  0  0  0  0  0  0  0  0  0  0
   18.8136   -8.2432    7.3267 C   0  0  0  0  0  0  0  0  0  0  0  0
   19.1175   -7.6521    8.5676 C   0  0  0  0  0  0  0  0  0  0  0  0
   18.4377   -8.0767    9.7171 C   0  0  0  0  0  0  0  0  0  0  0  0
   17.5026   -9.0579    9.5839 N   0  0  0  0  0  0  0  0  0  0  0  0
   16.7185   -9.6599   10.4937 C   0  0  0  0  0  0  0  0  0  0  0  0
   15.9421  -10.6058    9.8366 C   0  0  0  0  0  0  0  0  0  0  0  0
   16.2493  -10.5825    8.5146 N   0  0  0  0  0  0  0  0  0  0  0  0
   15.8129   -8.1235   17.0690 C   0  0  0  0  0  0  0  0  0  0  0  0
   15.0174   -7.3606   16.4534 O   0  0  0  0  0  0  0  0  0  0  0  0
   16.0804   -7.9065   18.4557 N   0  0  0  0  0  0  0  0  0  0  0  0
   16.7155   -8.5016   18.9159 H   0  0  0  0  0  0  0  0  0  0  0  0
   15.4473   -6.8375   19.2109 C   0  0  0  0  0  0  0  0  0  0  0  0
   14.3754   -7.4048   20.0815 C   0  0  0  0  0  0  0  0  0  0  0  0
   14.3439   -7.1879   21.4796 C   0  0  0  0  0  0  0  0  0  0  0  0
   13.2790   -7.7201   22.2241 C   0  0  0  0  0  0  0  0  0  0  0  0
   12.2739   -8.4658   21.6046 C   0  0  0  0  0  0  0  0  0  0  0  0
   12.3163   -8.6849   20.2281 C   0  0  0  0  0  0  0  0  0  0  0  0
   13.3614   -8.1543   19.4708 C   0  0  0  0  0  0  0  0  0  0  0  0
   15.3529   -6.4207   22.1611 N   0  0  0  0  0  0  0  0  0  0  0  0
   16.7790   -6.6267   21.9138 C   0  0  0  0  0  0  0  0  0  0  0  0
   17.5096   -6.7624   23.2503 C   0  0  0  0  0  0  0  0  0  0  0  0
   17.2152   -5.6073   24.1006 N   0  0  0  0  0  0  0  0  0  0  0  0
   15.7895   -5.6227   24.4260 C   0  0  0  0  0  0  0  0  0  0  0  0
   14.9642   -5.4214   23.1556 C   0  0  0  0  0  0  0  0  0  0  0  0
   17.9289   -5.8155   25.3483 C   0  0  0  0  0  0  0  0  0  0  0  0
 12 13  1  0  0  0
 13 14  2  0  0  0
 14 15  1  0  0  0
 15 16  2  0  0  0
 16 17  1  0  0  0
 17 18  1  0  0  0
 18 19  2  0  0  0
 19 20  1  0  0  0
 18  8  1  0  0  0
  8  9  2  0  0  0
  8 10  1  0  0  0
 10  1  1  0  0  0
  1  2  2  0  0  0
  2  3  1  0  0  0
  3  4  2  0  0  0
  4  5  1  0  0  0
  5  6  2  0  0  0
  5 21  1  0  0  0
 21 22  2  0  0  0
 21 23  1  0  0  0
 23 25  1  0  0  0
 25 26  1  0  0  0
 26 27  1  0  0  0
 27 28  2  0  0  0
 28 29  1  0  0  0
 29 30  2  0  0  0
 30 31  1  0  0  0
 27 32  1  0  0  0
 32 33  1  0  0  0
 33 34  1  0  0  0
 34 35  1  0  0  0
 35 36  1  0  0  0
 36 37  1  0  0  0
 35 38  1  0  0  0
  2  7  1  0  0  0
 17 12  1  0  0  0
  6  1  1  0  0  0
 31 26  2  0  0  0
 37 32  1  0  0  0
 20 12  2  0  0  0
 10 11  1  0  0  0
 23 24  1  0  0  0
M  END
>  <minimizedAffinity>
-8.21381

>  <minimizedRMSD>
2.42424

$$$$
CHEMBL4070236


 37 41  0  0  0  0  0  0  0  0999 V2000
   18.4784  -10.4209   15.2942 C   0  0  0  0  0  0  0  0  0  0  0  0
   18.1318  -11.4854   14.4561 C   0  0  0  0  0  0  0  0  0  0  0  0
   18.4614  -11.4441   13.0991 C   0  0  0  0  0  0  0  0  0  0  0  0
   19.1380  -10.3346   12.5676 C   0  0  0  0  0  0  0  0  0  0  0  0
   19.4827   -9.2734   13.4109 C   0  0  0  0  0  0  0  0  0  0  0  0
   19.1525   -9.3143   14.7687 C   0  0  0  0  0  0  0  0  0  0  0  0
   18.7349   -9.3234   17.7001 O   0  0  0  0  0  0  0  0  0  0  0  0
   18.0461  -10.4592   16.9955 S   0  0  0  0  0  0  0  0  0  0  0  0
   18.5084  -11.7559   17.6039 O   0  0  0  0  0  0  0  0  0  0  0  0
   16.3252  -10.2991   17.1637 N   0  0  0  0  0  0  0  0  0  0  0  0
   15.8176  -11.5137   17.8001 C   0  0  0  0  0  0  0  0  0  0  0  0
   16.0464   -9.0747   17.9431 C   0  0  0  0  0  0  0  0  0  0  0  0
   15.8843   -7.8009   17.0984 C   0  0  0  0  0  0  0  0  0  0  0  0
   14.5099   -7.3209   17.5738 C   0  0  0  0  0  0  0  0  0  0  0  0
   14.7040   -6.7348   18.9678 C   0  0  0  0  0  0  0  0  0  0  0  0
   14.8564   -8.0003   19.8006 C   0  0  0  0  0  0  0  0  0  0  0  0
   14.7249   -9.0761   18.7294 C   0  0  0  0  0  0  0  0  0  0  0  0
   13.8173   -8.5080   17.8305 O   0  0  0  0  0  0  0  0  0  0  0  0
   15.9449   -7.9983   15.6087 C   0  0  0  0  0  0  0  0  0  0  0  0
   16.5356   -7.1394   14.9009 O   0  0  0  0  0  0  0  0  0  0  0  0
   15.3705   -9.1542   14.9960 N   0  0  0  0  0  0  0  0  0  0  0  0
   15.4408   -9.3373   13.6568 O   0  0  0  0  0  0  0  0  0  0  0  0
   14.9177   -9.8261   15.5551 H   0  0  0  0  0  0  0  0  0  0  0  0
   15.9143   -8.5932   13.2531 H   0  0  0  0  0  0  0  0  0  0  0  0
   19.4832  -10.2628   11.2134 O   0  0  0  0  0  0  0  0  0  0  0  0
   18.8314  -11.0204   10.1977 C   0  0  0  0  0  0  0  0  0  0  0  0
   17.6579  -10.2665    9.6515 C   0  0  0  0  0  0  0  0  0  0  0  0
   16.3945  -10.5092   10.1956 C   0  0  0  0  0  0  0  0  0  0  0  0
   15.2853   -9.8117    9.7144 C   0  0  0  0  0  0  0  0  0  0  0  0
   15.4306   -8.8983    8.7178 N   0  0  0  0  0  0  0  0  0  0  0  0
   16.6438   -8.6333    8.1657 C   0  0  0  0  0  0  0  0  0  0  0  0
   17.7953   -9.3170    8.6220 C   0  0  0  0  0  0  0  0  0  0  0  0
   19.0393   -9.0342    8.0379 C   0  0  0  0  0  0  0  0  0  0  0  0
   19.1387   -8.0840    7.0175 C   0  0  0  0  0  0  0  0  0  0  0  0
   17.9976   -7.4108    6.5723 C   0  0  0  0  0  0  0  0  0  0  0  0
   16.7524   -7.6847    7.1448 C   0  0  0  0  0  0  0  0  0  0  0  0
   13.9412  -10.0715   10.2907 C   0  0  0  0  0  0  0  0  0  0  0  0
  7  8  2  0  0  0
  8  9  2  0  0  0
  8  1  1  0  0  0
  1  2  2  0  0  0
  2  3  1  0  0  0
  3  4  2  0  0  0
  4 25  1  0  0  0
 25 26  1  0  0  0
 26 27  1  0  0  0
 27 28  2  0  0  0
 28 29  1  0  0  0
 29 30  2  0  0  0
 30 31  1  0  0  0
 31 32  2  0  0  0
 32 33  1  0  0  0
 33 34  2  0  0  0
 34 35  1  0  0  0
 35 36  2  0  0  0
 29 37  1  0  0  0
  4  5  1  0  0  0
  5  6  2  0  0  0
  8 10  1  0  0  0
 10 11  1  0  0  0
 12 10  1  0  0  0
 12 13  1  0  0  0
 13 14  1  0  0  0
 14 15  1  0  0  0
 15 16  1  0  0  0
 17 16  1  0  0  0
 17 18  1  0  0  0
 13 19  1  0  0  0
 19 20  2  0  0  0
 19 21  1  0  0  0
 21 22  1  0  0  0
  6  1  1  0  0  0
 17 12  1  0  0  0
 32 27  1  0  0  0
 18 14  1  0  0  0
 36 31  1  0  0  0
 21 23  1  0  0  0
 22 24  1  0  0  0
M  END
>  <minimizedAffinity>
9.02034

>  <minimizedRMSD>
2.42528

$$$$
CHEMBL3982995 PubChem-121249646


 32 36  0  0  0  0  0  0  0  0999 V2000
   17.7221  -10.3850   15.6440 C   0  0  0  0  0  0  0  0  0  0  0  0
   18.0386  -11.7447   15.7114 C   0  0  0  0  0  0  0  0  0  0  0  0
   18.3508  -12.4558   14.5508 C   0  0  0  0  0  0  0  0  0  0  0  0
   18.3478  -11.8091   13.3128 C   0  0  0  0  0  0  0  0  0  0  0  0
   18.0311  -10.4438   13.2202 C   0  0  0  0  0  0  0  0  0  0  0  0
   17.7211   -9.7424   14.3973 C   0  0  0  0  0  0  0  0  0  0  0  0
   18.0327   -9.7729   11.9444 N   0  0  0  0  0  0  0  0  0  0  0  0
   18.8994   -8.6087   11.7357 C   0  0  0  0  0  0  0  0  0  0  0  0
   19.5989   -8.7152   10.3895 C   0  0  0  0  0  0  0  0  0  0  0  0
   18.5768   -8.8836    9.3100 C   0  0  0  0  0  0  0  0  0  0  0  0
   17.3795   -9.5835    9.5559 C   0  0  0  0  0  0  0  0  0  0  0  0
   17.0808  -10.1873   10.9005 C   0  0  0  0  0  0  0  0  0  0  0  0
   16.4533   -9.7209    8.5047 C   0  0  0  0  0  0  0  0  0  0  0  0
   16.7090   -9.1794    7.2777 N   0  0  0  0  0  0  0  0  0  0  0  0
   17.8715   -8.5078    7.0895 C   0  0  0  0  0  0  0  0  0  0  0  0
   18.3114   -7.8947    5.9387 C   0  0  0  0  0  0  0  0  0  0  0  0
   19.5522   -7.3790    6.3331 C   0  0  0  0  0  0  0  0  0  0  0  0
   19.8022   -7.6817    7.6310 N   0  0  0  0  0  0  0  0  0  0  0  0
   18.7655   -8.3680    8.0691 N   0  0  0  0  0  0  0  0  0  0  0  0
   16.0674   -8.3436   18.4308 N   0  0  0  0  0  0  0  0  0  0  0  0
   16.1968   -8.9808   17.1536 C   0  0  0  0  0  0  0  0  0  0  0  0
   15.2644   -8.9204   16.3075 O   0  0  0  0  0  0  0  0  0  0  0  0
   17.4079   -9.6882   16.8576 N   0  0  0  0  0  0  0  0  0  0  0  0
   16.8321   -8.4292   19.0450 H   0  0  0  0  0  0  0  0  0  0  0  0
   18.0964   -9.6966   17.5613 H   0  0  0  0  0  0  0  0  0  0  0  0
   13.7571   -6.1692   22.2111 C   0  0  0  0  0  0  0  0  0  0  0  0
   13.8057   -6.5246   20.7691 C   0  0  0  0  0  0  0  0  0  0  0  0
   12.7711   -6.1295   19.9168 C   0  0  0  0  0  0  0  0  0  0  0  0
   12.8176   -6.4642   18.5610 C   0  0  0  0  0  0  0  0  0  0  0  0
   13.8990   -7.1939   18.0586 C   0  0  0  0  0  0  0  0  0  0  0  0
   14.9418   -7.5943   18.9088 C   0  0  0  0  0  0  0  0  0  0  0  0
   14.8866   -7.2545   20.2652 C   0  0  0  0  0  0  0  0  0  0  0  0
 26 27  1  0  0  0
 27 28  2  0  0  0
 28 29  1  0  0  0
 29 30  2  0  0  0
 30 31  1  0  0  0
 31 20  1  0  0  0
 20 21  1  0  0  0
 21 22  2  0  0  0
 21 23  1  0  0  0
 23  1  1  0  0  0
  1  2  2  0  0  0
  2  3  1  0  0  0
  3  4  2  0  0  0
  4  5  1  0  0  0
  5  6  2  0  0  0
  5  7  1  0  0  0
  7  8  1  0  0  0
  8  9  1  0  0  0
  9 10  1  0  0  0
 10 11  2  0  0  0
 11 12  1  0  0  0
 11 13  1  0  0  0
 13 14  2  0  0  0
 14 15  1  0  0  0
 15 16  2  0  0  0
 16 17  1  0  0  0
 17 18  2  0  0  0
 18 19  1  0  0  0
 31 32  2  0  0  0
 32 27  1  0  0  0
  6  1  1  0  0  0
 12  7  1  0  0  0
 19 15  1  0  0  0
 19 10  1  0  0  0
 20 24  1  0  0  0
 23 25  1  0  0  0
M  END
>  <minimizedAffinity>
-8.21172

>  <minimizedRMSD>
2.42626

$$$$
CHEMBL1374741 919823 MCULE-7865407302 MolPort-000-039-806 PubChem-1165978 ZINC000000919823 ZINC00919823


 32 35  0  0  0  0  0  0  0  0999 V2000
   16.5852  -10.5595   16.3400 S   0  0  0  0  0  0  0  0  0  0  0  0
   16.7383  -10.2099   14.5882 C   0  0  0  0  0  0  0  0  0  0  0  0
   15.6995   -9.8767   13.7981 N   0  0  0  0  0  0  0  0  0  0  0  0
   16.1855   -9.7036   12.5758 N   0  0  0  0  0  0  0  0  0  0  0  0
   17.5120   -9.9284   12.6460 C   0  0  0  0  0  0  0  0  0  0  0  0
   17.8868  -10.2581   13.8936 N   0  0  0  0  0  0  0  0  0  0  0  0
   19.2191  -10.5779   14.3810 C   0  0  0  0  0  0  0  0  0  0  0  0
   18.4232   -9.8872   11.4638 C   0  0  0  0  0  0  0  0  0  0  0  0
   17.6579   -9.6209   10.2557 N   0  0  0  0  0  0  0  0  0  0  0  0
   16.4911  -10.1824    9.9555 N   0  0  0  0  0  0  0  0  0  0  0  0
   16.0606   -9.7745    8.7614 N   0  0  0  0  0  0  0  0  0  0  0  0
   17.0036   -8.9308    8.3027 C   0  0  0  0  0  0  0  0  0  0  0  0
   17.0415   -8.2373    7.0972 C   0  0  0  0  0  0  0  0  0  0  0  0
   18.1648   -7.4183    6.8657 C   0  0  0  0  0  0  0  0  0  0  0  0
   19.1982   -7.3201    7.8283 C   0  0  0  0  0  0  0  0  0  0  0  0
   19.1245   -8.0394    9.0376 C   0  0  0  0  0  0  0  0  0  0  0  0
   17.9979   -8.8356    9.2259 C   0  0  0  0  0  0  0  0  0  0  0  0
   17.0348   -8.8648   16.8274 C   0  0  0  0  0  0  0  0  0  0  0  0
   15.6571   -8.0952   18.7974 N   0  0  0  0  0  0  0  0  0  0  0  0
   15.8501   -8.1502   17.3778 C   0  0  0  0  0  0  0  0  0  0  0  0
   15.0277   -7.6202   16.5846 O   0  0  0  0  0  0  0  0  0  0  0  0
   16.3563   -8.5073   19.3545 H   0  0  0  0  0  0  0  0  0  0  0  0
   12.2022   -6.8784   19.6298 C   0  0  0  0  0  0  0  0  0  0  0  0
   12.4318   -6.3355   20.9033 C   0  0  0  0  0  0  0  0  0  0  0  0
   13.7139   -6.3726   21.4726 C   0  0  0  0  0  0  0  0  0  0  0  0
   14.7642   -6.9577   20.7592 C   0  0  0  0  0  0  0  0  0  0  0  0
   14.5502   -7.5018   19.4888 C   0  0  0  0  0  0  0  0  0  0  0  0
   13.2643   -7.4582   18.9307 C   0  0  0  0  0  0  0  0  0  0  0  0
   10.4781   -7.8772   18.1643 C   0  0  0  0  0  0  0  0  0  0  0  0
   10.9357   -6.8556   19.0398 O   0  0  0  0  0  0  0  0  0  0  0  0
   13.9701   -5.8378   22.7381 O   0  0  0  0  0  0  0  0  0  0  0  0
   12.9669   -5.2066   23.5224 C   0  0  0  0  0  0  0  0  0  0  0  0
 29 30  1  0  0  0
 30 23  1  0  0  0
 23 24  2  0  0  0
 24 25  1  0  0  0
 25 31  1  0  0  0
 25 26  2  0  0  0
 31 32  1  0  0  0
 26 27  1  0  0  0
 27 19  1  0  0  0
 27 28  2  0  0  0
 19 20  1  0  0  0
 20 21  2  0  0  0
 20 18  1  0  0  0
 18  1  1  0  0  0
  1  2  1  0  0  0
  2  3  2  0  0  0
  3  4  1  0  0  0
  4  5  2  0  0  0
  5  8  1  0  0  0
  5  6  1  0  0  0
  8  9  1  0  0  0
  9 10  1  0  0  0
 10 11  2  0  0  0
 11 12  1  0  0  0
 12 13  2  0  0  0
 13 14  1  0  0  0
 14 15  2  0  0  0
 15 16  1  0  0  0
 16 17  2  0  0  0
 17  9  1  0  0  0
 17 12  1  0  0  0
  6  7  1  0  0  0
  6  2  1  0  0  0
 28 23  1  0  0  0
 19 22  1  0  0  0
M  END
>  <minimizedAffinity>
-9.42298

>  <minimizedRMSD>
2.42785

$$$$
CHEMBL2011932


 35 38  0  0  0  0  0  0  0  0999 V2000
   16.1606   -9.6984   11.0079 C   0  0  0  0  0  0  0  0  0  0  0  0
   15.1990  -10.0936   10.0486 C   0  0  0  0  0  0  0  0  0  0  0  0
   15.4325   -9.9445    8.7113 N   0  0  0  0  0  0  0  0  0  0  0  0
   16.6125   -9.4151    8.3122 C   0  0  0  0  0  0  0  0  0  0  0  0
   17.5687   -9.0220    9.1875 C   0  0  0  0  0  0  0  0  0  0  0  0
   17.3929   -9.1308   10.5659 C   0  0  0  0  0  0  0  0  0  0  0  0
   18.6244   -8.5344    8.5192 N   0  0  0  0  0  0  0  0  0  0  0  0
   18.2397   -8.6640    7.2191 C   0  0  0  0  0  0  0  0  0  0  0  0
   17.0016   -9.2038    7.0485 N   0  0  0  0  0  0  0  0  0  0  0  0
   15.7095  -10.0364   12.8396 Br  0  0  0  0  0  0  0  0  0  0  0  0
   16.5173   -9.3906    6.2120 H   0  0  0  0  0  0  0  0  0  0  0  0
   19.0922   -8.2525    6.0916 C   0  0  0  0  0  0  0  0  0  0  0  0
   18.7766   -8.6477    4.7847 C   0  0  0  0  0  0  0  0  0  0  0  0
   19.5861   -8.2567    3.7148 C   0  0  0  0  0  0  0  0  0  0  0  0
   20.7231   -7.4642    3.9400 C   0  0  0  0  0  0  0  0  0  0  0  0
   21.0371   -7.0703    5.2445 C   0  0  0  0  0  0  0  0  0  0  0  0
   20.2274   -7.4614    6.3145 C   0  0  0  0  0  0  0  0  0  0  0  0
   21.5527   -7.0567    2.8918 O   0  0  0  0  0  0  0  0  0  0  0  0
   21.3078   -7.4097    1.5373 C   0  0  0  0  0  0  0  0  0  0  0  0
   18.4485   -8.6857   11.4314 N   0  0  0  0  0  0  0  0  0  0  0  0
   18.5260   -7.7156   11.5802 H   0  0  0  0  0  0  0  0  0  0  0  0
   19.4116   -9.5357   12.1068 C   0  0  0  0  0  0  0  0  0  0  0  0
   18.9187  -10.9695   12.1045 C   0  0  0  0  0  0  0  0  0  0  0  0
   19.4622  -11.7068   13.3150 C   0  0  0  0  0  0  0  0  0  0  0  0
   18.5167  -11.6157   14.4172 N   0  0  0  0  0  0  0  0  0  0  0  0
   18.5535  -10.5397   15.3564 C   0  0  0  0  0  0  0  0  0  0  0  0
   19.4555   -9.6615   15.2863 O   0  0  0  0  0  0  0  0  0  0  0  0
   17.8319  -12.3156   14.5188 H   0  0  0  0  0  0  0  0  0  0  0  0
   17.5331  -10.4717   16.4443 C   0  0  0  0  0  0  0  0  0  0  0  0
   17.8973  -11.2366   17.6958 C   0  0  0  0  0  0  0  0  0  0  0  0
   16.8077  -11.7586   16.7682 C   0  0  0  0  0  0  0  0  0  0  0  0
   16.7671   -9.1854   16.6979 C   0  0  0  0  0  0  0  0  0  0  0  0
   17.0899   -8.2035   15.6771 N   0  0  0  0  0  0  0  0  0  0  0  0
   18.0899   -8.0038   15.7017 H   0  0  0  0  0  0  0  0  0  0  0  0
   16.5674   -7.3454   15.8534 H   0  0  0  0  0  0  0  0  0  0  0  0
  1  2  2  0  0  0
  2  3  1  0  0  0
  3  4  2  0  0  0
  4  5  1  0  0  0
  5  6  2  0  0  0
  6 20  1  0  0  0
 20 22  1  0  0  0
 22 23  1  0  0  0
 23 24  1  0  0  0
 24 25  1  0  0  0
 25 26  1  0  0  0
 26 27  2  0  0  0
 26 29  1  0  0  0
 29 30  1  0  0  0
 30 31  1  0  0  0
 29 32  1  0  0  0
 32 33  1  0  0  0
  5  7  1  0  0  0
  7  8  2  0  0  0
  8  9  1  0  0  0
  8 12  1  0  0  0
 12 13  2  0  0  0
 13 14  1  0  0  0
 14 15  2  0  0  0
 15 16  1  0  0  0
 16 17  2  0  0  0
 15 18  1  0  0  0
 18 19  1  0  0  0
  1 10  1  0  0  0
  6  1  1  0  0  0
 31 29  1  0  0  0
 17 12  1  0  0  0
  9  4  1  0  0  0
 20 21  1  0  0  0
 25 28  1  0  0  0
 33 34  1  0  0  0
 33 35  1  0  0  0
  9 11  1  0  0  0
M  END
>  <minimizedAffinity>
-3.68600

>  <minimizedRMSD>
2.42803

$$$$
CHEMBL4970933 72312264 PubChem-95788184 ZINC000072312264 ZINC72312264


 30 34  0  0  0  0  0  0  0  0999 V2000
   17.6135  -10.0180   12.9606 N   0  0  0  0  0  0  0  0  0  0  0  0
   18.8351  -10.5020   13.5975 C   0  0  0  0  0  0  0  0  0  0  0  0
   18.5219  -11.7162   14.4681 C   0  0  0  0  0  0  0  0  0  0  0  0
   17.3684  -11.4333   15.4428 C   0  0  0  0  0  0  0  0  0  0  0  0
   16.1358  -10.8719   14.7150 C   0  0  0  0  0  0  0  0  0  0  0  0
   16.4919   -9.6779   13.8320 C   0  0  0  0  0  0  0  0  0  0  0  0
   13.1530  -10.6879    9.9209 C   0  0  0  0  0  0  0  0  0  0  0  0
   14.5642  -10.2275   10.0017 C   0  0  0  0  0  0  0  0  0  0  0  0
   15.2324   -9.6890    8.9507 N   0  0  0  0  0  0  0  0  0  0  0  0
   16.4324   -9.4373    9.5082 C   0  0  0  0  0  0  0  0  0  0  0  0
   17.5351   -8.8528    8.8934 C   0  0  0  0  0  0  0  0  0  0  0  0
   17.5336   -8.4549    7.5524 C   0  0  0  0  0  0  0  0  0  0  0  0
   18.6795   -7.8691    7.0049 C   0  0  0  0  0  0  0  0  0  0  0  0
   19.8208   -7.6808    7.7937 C   0  0  0  0  0  0  0  0  0  0  0  0
   19.8248   -8.0766    9.1361 C   0  0  0  0  0  0  0  0  0  0  0  0
   18.6859   -8.6636    9.6943 C   0  0  0  0  0  0  0  0  0  0  0  0
   18.6830   -9.0496   11.0046 N   0  0  0  0  0  0  0  0  0  0  0  0
   17.5839   -9.6294   11.5743 C   0  0  0  0  0  0  0  0  0  0  0  0
   16.4775   -9.8019   10.7946 N   0  0  0  0  0  0  0  0  0  0  0  0
   15.3036  -10.3000   11.1317 N   0  0  0  0  0  0  0  0  0  0  0  0
   17.7863  -10.6633   16.7171 C   0  0  0  0  0  0  0  0  0  0  0  0
   18.4705   -9.3696   16.3752 C   0  0  0  0  0  0  0  0  0  0  0  0
   19.5708   -9.2867   15.7674 O   0  0  0  0  0  0  0  0  0  0  0  0
   17.7637   -8.2224   16.8238 N   0  0  0  0  0  0  0  0  0  0  0  0
   16.6352   -8.7920   17.4611 C   0  0  0  0  0  0  0  0  0  0  0  0
   15.7391   -8.0977   18.0068 O   0  0  0  0  0  0  0  0  0  0  0  0
   16.5985  -10.2127   17.4355 N   0  0  0  0  0  0  0  0  0  0  0  0
   18.6598  -11.4870   17.6543 C   0  0  0  0  0  0  0  0  0  0  0  0
   17.9989   -7.2723   16.7184 H   0  0  0  0  0  0  0  0  0  0  0  0
   15.9017  -10.7860   17.8291 H   0  0  0  0  0  0  0  0  0  0  0  0
  7  8  1  0  0  0
  8  9  1  0  0  0
  9 10  2  0  0  0
 10 11  1  0  0  0
 11 12  2  0  0  0
 12 13  1  0  0  0
 13 14  2  0  0  0
 14 15  1  0  0  0
 15 16  2  0  0  0
 16 17  1  0  0  0
 16 11  1  0  0  0
 17 18  2  0  0  0
 18 19  1  0  0  0
 18  1  1  0  0  0
 19 20  1  0  0  0
 19 10  1  0  0  0
 20  8  2  0  0  0
  1  2  1  0  0  0
  2  3  1  0  0  0
  3  4  1  0  0  0
  4  5  1  0  0  0
  5  6  1  0  0  0
  6  1  1  0  0  0
 21  4  1  0  0  0
 21 22  1  0  0  0
 21 28  1  0  0  0
 22 23  2  0  0  0
 22 24  1  0  0  0
 24 25  1  0  0  0
 25 26  2  0  0  0
 25 27  1  0  0  0
 27 21  1  0  0  0
 24 29  1  0  0  0
 27 30  1  0  0  0
M  END
>  <minimizedAffinity>
-4.33225

>  <minimizedRMSD>
2.42863

$$$$
CHEMBL1333710


 29 31  0  0  0  0  0  0  0  0999 V2000
   17.6520   -9.3720   13.9497 N   0  0  0  0  0  0  0  0  0  0  0  0
   17.0060   -9.7339   12.7222 C   0  0  0  0  0  0  0  0  0  0  0  0
   15.7505   -9.7837   12.6337 O   0  0  0  0  0  0  0  0  0  0  0  0
   18.6365   -9.3728   13.9476 H   0  0  0  0  0  0  0  0  0  0  0  0
   15.8033   -8.3489   17.6348 C   0  0  0  0  0  0  0  0  0  0  0  0
   16.7295   -9.3941   17.5597 C   0  0  0  0  0  0  0  0  0  0  0  0
   17.3300   -9.7216   16.3406 C   0  0  0  0  0  0  0  0  0  0  0  0
   17.0118   -9.0089   15.1803 C   0  0  0  0  0  0  0  0  0  0  0  0
   16.0839   -7.9597   15.2538 C   0  0  0  0  0  0  0  0  0  0  0  0
   15.4837   -7.6323   16.4724 C   0  0  0  0  0  0  0  0  0  0  0  0
   13.4127   -7.3566   20.5309 C   0  0  0  0  0  0  0  0  0  0  0  0
   13.8563   -7.6324   19.1398 C   0  0  0  0  0  0  0  0  0  0  0  0
   13.0367   -7.5004   18.1931 O   0  0  0  0  0  0  0  0  0  0  0  0
   15.2088   -8.0431   18.9037 N   0  0  0  0  0  0  0  0  0  0  0  0
   15.7901   -8.1236   19.6942 H   0  0  0  0  0  0  0  0  0  0  0  0
   17.8348  -10.0286   11.5182 C   0  0  0  0  0  0  0  0  0  0  0  0
   18.4887   -8.7602   10.9857 C   0  0  0  0  0  0  0  0  0  0  0  0
   18.4625   -8.7231    9.4941 C   0  0  0  0  0  0  0  0  0  0  0  0
   17.5319   -9.4406    8.8079 N   0  0  0  0  0  0  0  0  0  0  0  0
   17.4862   -9.4195    7.4499 C   0  0  0  0  0  0  0  0  0  0  0  0
   16.5194  -10.1649    6.7842 O   0  0  0  0  0  0  0  0  0  0  0  0
   18.4116   -8.6485    6.7384 C   0  0  0  0  0  0  0  0  0  0  0  0
   18.4067   -8.5911    5.3391 C   0  0  0  0  0  0  0  0  0  0  0  0
   19.3515   -7.8067    4.6699 C   0  0  0  0  0  0  0  0  0  0  0  0
   20.3016   -7.0796    5.3951 C   0  0  0  0  0  0  0  0  0  0  0  0
   20.3113   -7.1333    6.7925 C   0  0  0  0  0  0  0  0  0  0  0  0
   19.3697   -7.9152    7.4676 C   0  0  0  0  0  0  0  0  0  0  0  0
   19.3741   -7.9700    8.8239 N   0  0  0  0  0  0  0  0  0  0  0  0
   15.9050  -10.6775    7.2719 H   0  0  0  0  0  0  0  0  0  0  0  0
 11 12  1  0  0  0
 12 13  2  0  0  0
 12 14  1  0  0  0
 14  5  1  0  0  0
  5  6  2  0  0  0
  6  7  1  0  0  0
  7  8  2  0  0  0
  8  1  1  0  0  0
  8  9  1  0  0  0
  1  2  1  0  0  0
  2  3  2  0  0  0
  2 16  1  0  0  0
 16 17  1  0  0  0
 17 18  1  0  0  0
 18 19  2  0  0  0
 19 20  1  0  0  0
 20 21  1  0  0  0
 20 22  2  0  0  0
 22 23  1  0  0  0
 23 24  2  0  0  0
 24 25  1  0  0  0
 25 26  2  0  0  0
 26 27  1  0  0  0
 27 28  2  0  0  0
 27 22  1  0  0  0
 28 18  1  0  0  0
  9 10  2  0  0  0
 10  5  1  0  0  0
 14 15  1  0  0  0
  1  4  1  0  0  0
 21 29  1  0  0  0
M  END
>  <minimizedAffinity>
-6.04358

>  <minimizedRMSD>
2.42935

$$$$
CHEMBL1903981 CSC026359511 MCULE-8558938172 MolPort-005-725-329 PubChem-24981723 Z29623804 ZINC12871065


 35 37  0  0  0  0  0  0  0  0999 V2000
   16.5731   -9.8898   11.0619 C   0  0  0  0  0  0  0  0  0  0  0  0
   15.5614  -10.6402   11.0110 O   0  0  0  0  0  0  0  0  0  0  0  0
   17.2246   -9.6595   12.3176 N   0  0  0  0  0  0  0  0  0  0  0  0
   17.8559   -8.9066   12.3787 H   0  0  0  0  0  0  0  0  0  0  0  0
   16.5128   -8.3106    7.7256 N   0  0  0  0  0  0  0  0  0  0  0  0
   16.1802   -8.9352    8.8574 N   0  0  0  0  0  0  0  0  0  0  0  0
   17.0731   -9.1928    9.8511 C   0  0  0  0  0  0  0  0  0  0  0  0
   18.4132   -8.7816    9.6759 C   0  0  0  0  0  0  0  0  0  0  0  0
   19.4000   -8.9982   10.6521 C   0  0  0  0  0  0  0  0  0  0  0  0
   20.7158   -8.5789   10.4452 C   0  0  0  0  0  0  0  0  0  0  0  0
   21.0646   -7.9353    9.2575 C   0  0  0  0  0  0  0  0  0  0  0  0
   20.0976   -7.7097    8.2766 C   0  0  0  0  0  0  0  0  0  0  0  0
   18.7722   -8.1269    8.4757 C   0  0  0  0  0  0  0  0  0  0  0  0
   17.7948   -7.9012    7.4992 C   0  0  0  0  0  0  0  0  0  0  0  0
   18.0969   -7.3204    6.4184 O   0  0  0  0  0  0  0  0  0  0  0  0
   15.4795   -8.0941    6.7171 C   0  0  0  0  0  0  0  0  0  0  0  0
   14.1056   -6.3594    5.5660 C   0  0  0  0  0  0  0  0  0  0  0  0
   14.9333   -6.6762    6.7967 C   0  0  0  0  0  0  0  0  0  0  0  0
   17.0185  -10.4418   13.4680 N   0  0  0  0  0  0  0  0  0  0  0  0
   18.0746  -10.9909   14.2625 C   0  0  0  0  0  0  0  0  0  0  0  0
   19.2561  -10.5705   14.1458 O   0  0  0  0  0  0  0  0  0  0  0  0
   16.0909  -10.6228   13.7436 H   0  0  0  0  0  0  0  0  0  0  0  0
   17.7693  -12.0534   15.2589 C   0  0  0  0  0  0  0  0  0  0  0  0
   17.8313  -11.3707   16.9452 S   0  0  0  0  0  0  0  0  0  0  0  0
   17.7394   -9.6421   16.3797 C   0  0  0  0  0  0  0  0  0  0  0  0
   16.4152   -9.0495   16.7182 C   0  0  0  0  0  0  0  0  0  0  0  0
   15.4612   -9.1676   15.9046 O   0  0  0  0  0  0  0  0  0  0  0  0
   16.2488   -8.3445   17.9534 N   0  0  0  0  0  0  0  0  0  0  0  0
   17.0335   -8.2677   18.5430 H   0  0  0  0  0  0  0  0  0  0  0  0
   15.0280   -7.7434   18.3953 C   0  0  0  0  0  0  0  0  0  0  0  0
   14.0830   -7.2477   17.5740 N   0  0  0  0  0  0  0  0  0  0  0  0
   13.1398   -6.7971   18.3438 O   0  0  0  0  0  0  0  0  0  0  0  0
   13.4408   -6.9832   19.6063 C   0  0  0  0  0  0  0  0  0  0  0  0
   12.5695   -6.5789   20.7408 C   0  0  0  0  0  0  0  0  0  0  0  0
   14.6706   -7.6021   19.7226 C   0  0  0  0  0  0  0  0  0  0  0  0
 17 18  1  0  0  0
 18 16  1  0  0  0
 16  5  1  0  0  0
  5  6  1  0  0  0
  6  7  2  0  0  0
  7  1  1  0  0  0
  7  8  1  0  0  0
  1  2  2  0  0  0
  1  3  1  0  0  0
  3 19  1  0  0  0
 19 20  1  0  0  0
 20 21  2  0  0  0
 20 23  1  0  0  0
 23 24  1  0  0  0
 24 25  1  0  0  0
 25 26  1  0  0  0
 26 27  2  0  0  0
 26 28  1  0  0  0
 28 30  1  0  0  0
 30 31  2  0  0  0
 31 32  1  0  0  0
 32 33  1  0  0  0
 33 34  1  0  0  0
 33 35  2  0  0  0
 35 30  1  0  0  0
  8  9  2  0  0  0
  9 10  1  0  0  0
 10 11  2  0  0  0
 11 12  1  0  0  0
 12 13  2  0  0  0
 13 14  1  0  0  0
 13  8  1  0  0  0
 14 15  2  0  0  0
 14  5  1  0  0  0
  3  4  1  0  0  0
 19 22  1  0  0  0
 28 29  1  0  0  0
M  END
>  <minimizedAffinity>
1.79503

>  <minimizedRMSD>
2.43413

$$$$
CHEMBL426834 PubChem-11691676


 37 41  0  0  0  0  0  0  0  0999 V2000
   17.6788  -11.0384   17.0575 C   0  0  0  0  0  0  0  0  0  0  0  0
   17.7215  -11.1274   15.5378 C   0  0  0  0  0  0  0  0  0  0  0  0
   17.1808   -9.6804   12.1324 N   0  0  0  0  0  0  0  0  0  0  0  0
   16.4597   -8.8184   13.0626 C   0  0  0  0  0  0  0  0  0  0  0  0
   16.4447   -9.4791   14.4391 C   0  0  0  0  0  0  0  0  0  0  0  0
   17.7894   -9.7956   14.9529 N   0  0  0  0  0  0  0  0  0  0  0  0
   18.8569   -9.7966   13.9353 C   0  0  0  0  0  0  0  0  0  0  0  0
   18.4000  -10.3503   12.5809 C   0  0  0  0  0  0  0  0  0  0  0  0
   18.7376   -8.2792    8.0402 C   0  0  0  0  0  0  0  0  0  0  0  0
   17.8893   -8.7463    7.0011 C   0  0  0  0  0  0  0  0  0  0  0  0
   16.7532   -9.5252    7.2892 C   0  0  0  0  0  0  0  0  0  0  0  0
   16.5016   -9.8144    8.6262 C   0  0  0  0  0  0  0  0  0  0  0  0
   15.5165  -10.5120    9.1373 O   0  0  0  0  0  0  0  0  0  0  0  0
   15.6222  -10.5604   10.4397 N   0  0  0  0  0  0  0  0  0  0  0  0
   16.7307   -9.8595   10.7808 C   0  0  0  0  0  0  0  0  0  0  0  0
   17.3135   -9.3692    9.6298 C   0  0  0  0  0  0  0  0  0  0  0  0
   18.4450   -8.5958    9.3809 C   0  0  0  0  0  0  0  0  0  0  0  0
   20.3487   -7.2917    6.4448 C   0  0  0  0  0  0  0  0  0  0  0  0
   19.8678   -7.5047    7.7649 O   0  0  0  0  0  0  0  0  0  0  0  0
   16.4245  -10.3169   17.5353 C   0  0  0  0  0  0  0  0  0  0  0  0
   16.6287   -8.8098   17.5627 C   0  0  0  0  0  0  0  0  0  0  0  0
   15.8424   -8.2185   18.6342 N   0  0  0  0  0  0  0  0  0  0  0  0
   14.6307   -7.5034   18.3783 C   0  0  0  0  0  0  0  0  0  0  0  0
   14.2207   -7.3629   17.1933 O   0  0  0  0  0  0  0  0  0  0  0  0
   16.1538   -8.3136   19.5633 H   0  0  0  0  0  0  0  0  0  0  0  0
   13.8598   -6.9348   19.4976 C   0  0  0  0  0  0  0  0  0  0  0  0
   12.5949   -6.3721   19.2755 C   0  0  0  0  0  0  0  0  0  0  0  0
   11.8645   -5.8345   20.3383 C   0  0  0  0  0  0  0  0  0  0  0  0
   12.3936   -5.8560   21.6312 C   0  0  0  0  0  0  0  0  0  0  0  0
   13.6560   -6.4150   21.8690 C   0  0  0  0  0  0  0  0  0  0  0  0
   14.3830   -6.9523   20.7981 C   0  0  0  0  0  0  0  0  0  0  0  0
   14.2141   -6.4387   23.2300 C   0  0  0  0  0  0  0  0  0  0  0  0
   13.7659   -5.6618   24.2374 N   0  0  0  0  0  0  0  0  0  0  0  0
   14.5058   -5.9772   25.2560 O   0  0  0  0  0  0  0  0  0  0  0  0
   15.3662   -6.8984   24.9039 C   0  0  0  0  0  0  0  0  0  0  0  0
   16.3724   -7.4963   25.8207 C   0  0  0  0  0  0  0  0  0  0  0  0
   15.2322   -7.2415   23.6097 N   0  0  0  0  0  0  0  0  0  0  0  0
 18 19  1  0  0  0
 19  9  1  0  0  0
  9 10  2  0  0  0
 10 11  1  0  0  0
 11 12  2  0  0  0
 12 13  1  0  0  0
 13 14  1  0  0  0
 14 15  2  0  0  0
 15  3  1  0  0  0
 15 16  1  0  0  0
  3  4  1  0  0  0
  4  5  1  0  0  0
  5  6  1  0  0  0
  6  2  1  0  0  0
  6  7  1  0  0  0
  2  1  1  0  0  0
  1 20  1  0  0  0
 20 21  1  0  0  0
 21 22  1  0  0  0
 22 23  1  0  0  0
 23 24  2  0  0  0
 23 26  1  0  0  0
 26 27  2  0  0  0
 27 28  1  0  0  0
 28 29  2  0  0  0
 29 30  1  0  0  0
 30 32  1  0  0  0
 30 31  2  0  0  0
 32 33  2  0  0  0
 33 34  1  0  0  0
 34 35  1  0  0  0
 35 36  1  0  0  0
 35 37  2  0  0  0
 37 32  1  0  0  0
 31 26  1  0  0  0
  7  8  1  0  0  0
  8  3  1  0  0  0
 16 17  2  0  0  0
 16 12  1  0  0  0
 17  9  1  0  0  0
 22 25  1  0  0  0
M  END
>  <minimizedAffinity>
-8.43352

>  <minimizedRMSD>
2.43430

$$$$
CHEMBL2147852 CHEMBL2220288 PubChem-60153784 PubChem-60153785 PubChem-71460160


 39 43  0  0  0  0  0  0  0  0999 V2000
   16.7817   -9.3111   13.1796 N   0  0  0  0  0  0  0  0  0  0  0  0
   16.1534   -8.3064   13.9873 C   0  0  0  0  0  0  0  0  0  0  0  0
   15.2914   -7.5239   13.5053 O   0  0  0  0  0  0  0  0  0  0  0  0
   17.3677   -9.9515   13.6441 H   0  0  0  0  0  0  0  0  0  0  0  0
   20.0382   -7.4973    9.3989 C   0  0  0  0  0  0  0  0  0  0  0  0
   19.2914   -8.0491    8.2269 C   0  0  0  0  0  0  0  0  0  0  0  0
   18.1236   -8.7800    8.4062 C   0  0  0  0  0  0  0  0  0  0  0  0
   17.3899   -9.1689    9.4997 C   0  0  0  0  0  0  0  0  0  0  0  0
   17.5882   -8.9480   10.8600 C   0  0  0  0  0  0  0  0  0  0  0  0
   16.6405   -9.4750   11.7618 C   0  0  0  0  0  0  0  0  0  0  0  0
   15.5361  -10.2061   11.2715 C   0  0  0  0  0  0  0  0  0  0  0  0
   15.3572  -10.4156    9.8922 C   0  0  0  0  0  0  0  0  0  0  0  0
   16.3055   -9.8836    9.0212 C   0  0  0  0  0  0  0  0  0  0  0  0
   16.2863   -9.9821    7.6695 N   0  0  0  0  0  0  0  0  0  0  0  0
   17.3965   -9.3104    7.2842 C   0  0  0  0  0  0  0  0  0  0  0  0
   17.8183   -9.1167    6.0083 N   0  0  0  0  0  0  0  0  0  0  0  0
   17.0434   -9.6709    4.9020 C   0  0  0  0  0  0  0  0  0  0  0  0
   18.9750   -8.3969    5.7931 C   0  0  0  0  0  0  0  0  0  0  0  0
   19.4430   -8.1776    4.4851 C   0  0  0  0  0  0  0  0  0  0  0  0
   20.6122   -7.4513    4.2530 C   0  0  0  0  0  0  0  0  0  0  0  0
   21.3380   -6.9296    5.3232 C   0  0  0  0  0  0  0  0  0  0  0  0
   20.8989   -7.1294    6.6330 C   0  0  0  0  0  0  0  0  0  0  0  0
   19.7270   -7.8554    6.8946 C   0  0  0  0  0  0  0  0  0  0  0  0
   16.5510   -8.1642   15.4137 C   0  0  0  0  0  0  0  0  0  0  0  0
   16.5831   -9.4722   16.0507 N   0  0  0  0  0  0  0  0  0  0  0  0
   17.7330   -9.9662   16.7455 C   0  0  0  0  0  0  0  0  0  0  0  0
   18.7487   -9.2353   16.8992 O   0  0  0  0  0  0  0  0  0  0  0  0
   15.7809  -10.0408   16.0018 H   0  0  0  0  0  0  0  0  0  0  0  0
   17.7565  -11.3712   17.2637 C   0  0  0  0  0  0  0  0  0  0  0  0
   16.4262  -11.9633   17.2447 N   0  0  0  0  0  0  0  0  0  0  0  0
   16.0947  -12.0241   16.2820 H   0  0  0  0  0  0  0  0  0  0  0  0
   15.7877  -11.3823   17.7881 H   0  0  0  0  0  0  0  0  0  0  0  0
   18.7671  -12.2528   16.5240 C   0  0  0  0  0  0  0  0  0  0  0  0
   18.6279  -12.2074   15.0341 C   0  0  0  0  0  0  0  0  0  0  0  0
   19.2711  -11.3174   14.2088 C   0  0  0  0  0  0  0  0  0  0  0  0
   18.9236  -11.6185   12.9448 N   0  0  0  0  0  0  0  0  0  0  0  0
   18.0898  -12.6758   13.0405 C   0  0  0  0  0  0  0  0  0  0  0  0
   17.8894  -13.0677   14.3144 N   0  0  0  0  0  0  0  0  0  0  0  0
   17.3321  -13.8107   14.6409 H   0  0  0  0  0  0  0  0  0  0  0  0
  5  6  1  0  0  0
  6  7  2  0  0  0
  7  8  1  0  0  0
  8  9  2  0  0  0
  9 10  1  0  0  0
 10  1  1  0  0  0
 10 11  2  0  0  0
  1  2  1  0  0  0
  2  3  2  0  0  0
  2 24  1  0  0  0
 24 25  1  0  0  0
 25 26  1  0  0  0
 26 27  2  0  0  0
 29 26  1  0  0  0
 29 30  1  0  0  0
 29 33  1  0  0  0
 33 34  1  0  0  0
 34 35  2  0  0  0
 35 36  1  0  0  0
 36 37  2  0  0  0
 37 38  1  0  0  0
 38 34  1  0  0  0
 11 12  1  0  0  0
 12 13  2  0  0  0
 13 14  1  0  0  0
 13  8  1  0  0  0
 14 15  2  0  0  0
 15 16  1  0  0  0
 15  7  1  0  0  0
 16 17  1  0  0  0
 16 18  1  0  0  0
 18 19  2  0  0  0
 19 20  1  0  0  0
 20 21  2  0  0  0
 21 22  1  0  0  0
 22 23  2  0  0  0
 23  6  1  0  0  0
 23 18  1  0  0  0
  1  4  1  0  0  0
 25 28  1  0  0  0
 30 31  1  0  0  0
 30 32  1  0  0  0
 38 39  1  0  0  0
M  END
>  <minimizedAffinity>
-1.08495

>  <minimizedRMSD>
2.43645

$$$$
CHEMBL5180295


 33 36  0  0  0  0  0  0  0  0999 V2000
   17.4220   -9.5766   10.2850 C   0  0  0  0  0  0  0  0  0  0  0  0
   18.3089   -9.1362    9.2825 C   0  0  0  0  0  0  0  0  0  0  0  0
   17.8472   -8.8585    7.9717 C   0  0  0  0  0  0  0  0  0  0  0  0
   16.5204   -9.0142    7.6742 N   0  0  0  0  0  0  0  0  0  0  0  0
   15.6672   -9.4242    8.6426 C   0  0  0  0  0  0  0  0  0  0  0  0
   16.0721   -9.7024    9.9173 C   0  0  0  0  0  0  0  0  0  0  0  0
   14.8864  -10.0144   10.5661 C   0  0  0  0  0  0  0  0  0  0  0  0
   13.8669   -9.9316    9.6782 N   0  0  0  0  0  0  0  0  0  0  0  0
   14.3739   -9.5778    8.5285 O   0  0  0  0  0  0  0  0  0  0  0  0
   14.6769  -10.2906   12.0128 C   0  0  0  0  0  0  0  0  0  0  0  0
   18.7871   -8.4037    6.9249 C   0  0  0  0  0  0  0  0  0  0  0  0
   18.5864   -8.7778    5.5870 C   0  0  0  0  0  0  0  0  0  0  0  0
   19.4699   -8.3524    4.5908 C   0  0  0  0  0  0  0  0  0  0  0  0
   20.5630   -7.5483    4.9231 C   0  0  0  0  0  0  0  0  0  0  0  0
   20.7730   -7.1694    6.2513 C   0  0  0  0  0  0  0  0  0  0  0  0
   19.8895   -7.5949    7.2474 C   0  0  0  0  0  0  0  0  0  0  0  0
   21.5021   -7.0960    3.8640 C   0  0  0  0  0  0  0  0  0  0  0  0
   17.9547   -9.9072   11.6187 C   0  0  0  0  0  0  0  0  0  0  0  0
   18.9824   -9.3086   12.0385 O   0  0  0  0  0  0  0  0  0  0  0  0
   17.3609  -10.9536   12.3948 N   0  0  0  0  0  0  0  0  0  0  0  0
   16.5947  -11.4309   12.0019 H   0  0  0  0  0  0  0  0  0  0  0  0
   17.7937  -11.3600   13.6967 C   0  0  0  0  0  0  0  0  0  0  0  0
   18.3981  -12.5443   13.9280 N   0  0  0  0  0  0  0  0  0  0  0  0
   18.6135  -12.5113   15.2597 C   0  0  0  0  0  0  0  0  0  0  0  0
   18.1592  -11.3560   15.7746 N   0  0  0  0  0  0  0  0  0  0  0  0
   17.6337  -10.6236   14.8116 N   0  0  0  0  0  0  0  0  0  0  0  0
   18.1771  -10.9786   17.1777 C   0  0  0  0  0  0  0  0  0  0  0  0
   17.7531   -9.5590   17.3299 C   0  0  0  0  0  0  0  0  0  0  0  0
   18.6204   -8.6450   17.3246 O   0  0  0  0  0  0  0  0  0  0  0  0
   16.3653   -9.2446   17.4424 N   0  0  0  0  0  0  0  0  0  0  0  0
   15.7075   -9.9770   17.4340 H   0  0  0  0  0  0  0  0  0  0  0  0
   15.8948   -7.8758   17.5692 C   0  0  0  0  0  0  0  0  0  0  0  0
   14.4682   -7.8780   18.0760 C   0  0  0  0  0  0  0  0  0  0  0  0
  1  2  2  0  0  0
  2  3  1  0  0  0
  3  4  2  0  0  0
  4  5  1  0  0  0
  5  6  2  0  0  0
  6  7  1  0  0  0
  7  8  2  0  0  0
  8  9  1  0  0  0
  7 10  1  0  0  0
  3 11  1  0  0  0
 11 12  2  0  0  0
 12 13  1  0  0  0
 13 14  2  0  0  0
 14 15  1  0  0  0
 15 16  2  0  0  0
 14 17  1  0  0  0
  1 18  1  0  0  0
 18 19  2  0  0  0
 18 20  1  0  0  0
 20 22  1  0  0  0
 22 23  1  0  0  0
 23 24  2  0  0  0
 24 25  1  0  0  0
 25 26  1  0  0  0
 25 27  1  0  0  0
 27 28  1  0  0  0
 28 29  2  0  0  0
 28 30  1  0  0  0
 30 32  1  0  0  0
 32 33  1  0  0  0
  6  1  1  0  0  0
 16 11  1  0  0  0
 26 22  2  0  0  0
  9  5  1  0  0  0
 20 21  1  0  0  0
 30 31  1  0  0  0
M  END
>  <minimizedAffinity>
-1.77694

>  <minimizedRMSD>
2.44075

$$$$
CHEMBL1886072


 29 31  0  0  0  0  0  0  0  0999 V2000
   17.3733   -9.3032   13.6471 N   0  0  0  0  0  0  0  0  0  0  0  0
   17.8197  -10.0421   12.5054 C   0  0  0  0  0  0  0  0  0  0  0  0
   18.7184  -10.9167   12.6483 O   0  0  0  0  0  0  0  0  0  0  0  0
   16.7288   -8.5716   13.5105 H   0  0  0  0  0  0  0  0  0  0  0  0
   17.2646   -9.7795   11.1507 C   0  0  0  0  0  0  0  0  0  0  0  0
   17.9650   -9.0932   10.1258 C   0  0  0  0  0  0  0  0  0  0  0  0
   17.3331   -8.9069    8.8696 C   0  0  0  0  0  0  0  0  0  0  0  0
   16.0766   -9.3763    8.6589 N   0  0  0  0  0  0  0  0  0  0  0  0
   15.3881  -10.0288    9.6291 C   0  0  0  0  0  0  0  0  0  0  0  0
   14.1040  -10.4906    9.3759 O   0  0  0  0  0  0  0  0  0  0  0  0
   15.9672  -10.2368   10.8797 C   0  0  0  0  0  0  0  0  0  0  0  0
   17.9959   -8.2317    7.8403 C   0  0  0  0  0  0  0  0  0  0  0  0
   19.2832   -7.7309    8.0434 C   0  0  0  0  0  0  0  0  0  0  0  0
   19.9126   -7.9013    9.2777 C   0  0  0  0  0  0  0  0  0  0  0  0
   19.2573   -8.5759   10.3105 C   0  0  0  0  0  0  0  0  0  0  0  0
   13.7134  -10.3516    8.5356 H   0  0  0  0  0  0  0  0  0  0  0  0
   17.8288   -9.5842   15.0017 C   0  0  0  0  0  0  0  0  0  0  0  0
   15.0654   -7.9738   17.8623 C   0  0  0  0  0  0  0  0  0  0  0  0
   16.1193   -8.7906   18.2869 C   0  0  0  0  0  0  0  0  0  0  0  0
   17.0230   -9.3100   17.3554 C   0  0  0  0  0  0  0  0  0  0  0  0
   16.8757   -9.0138   15.9963 C   0  0  0  0  0  0  0  0  0  0  0  0
   15.8179   -8.2032   15.5697 C   0  0  0  0  0  0  0  0  0  0  0  0
   14.9144   -7.6839   16.5015 C   0  0  0  0  0  0  0  0  0  0  0  0
   13.9247   -7.3321   19.0297 S   0  0  0  0  0  0  0  0  0  0  0  0
   13.4108   -6.0015   18.5567 O   0  0  0  0  0  0  0  0  0  0  0  0
   12.7758   -8.2871   19.1880 O   0  0  0  0  0  0  0  0  0  0  0  0
   14.7090   -7.1164   20.5541 N   0  0  0  0  0  0  0  0  0  0  0  0
   14.0422   -6.7432   21.2298 H   0  0  0  0  0  0  0  0  0  0  0  0
   15.4860   -6.4643   20.4475 H   0  0  0  0  0  0  0  0  0  0  0  0
 24 25  2  0  0  0
 24 26  2  0  0  0
 24 27  1  0  0  0
 24 18  1  0  0  0
 18 19  2  0  0  0
 19 20  1  0  0  0
 20 21  2  0  0  0
 21 17  1  0  0  0
 17  1  1  0  0  0
  1  2  1  0  0  0
  2  3  2  0  0  0
  2  5  1  0  0  0
  5  6  2  0  0  0
  6  7  1  0  0  0
  7  8  2  0  0  0
  8  9  1  0  0  0
  9 10  1  0  0  0
  9 11  2  0  0  0
  7 12  1  0  0  0
 12 13  2  0  0  0
 13 14  1  0  0  0
 14 15  2  0  0  0
 21 22  1  0  0  0
 22 23  2  0  0  0
 23 18  1  0  0  0
 11  5  1  0  0  0
 15  6  1  0  0  0
 27 28  1  0  0  0
 27 29  1  0  0  0
  1  4  1  0  0  0
 10 16  1  0  0  0
M  END
>  <minimizedAffinity>
-6.49957

>  <minimizedRMSD>
2.44125

$$$$
CHEMBL1322968 411659 MCULE-2606100412 MolPort-000-007-301 PubChem-856230 ZINC000000411659 ZINC00411659


 22 24  0  0  0  0  0  0  0  0999 V2000
   17.1908  -10.0725   12.8084 C   0  0  0  0  0  0  0  0  0  0  0  0
   15.8459  -10.0245   12.7913 N   0  0  0  0  0  0  0  0  0  0  0  0
   15.4971   -9.9277   11.5179 N   0  0  0  0  0  0  0  0  0  0  0  0
   16.6443   -9.9235   10.8141 C   0  0  0  0  0  0  0  0  0  0  0  0
   17.6905  -10.0073   11.5988 O   0  0  0  0  0  0  0  0  0  0  0  0
   18.1703  -10.2020   14.2989 S   0  0  0  0  0  0  0  0  0  0  0  0
   16.7105  -10.1327   15.3815 C   0  0  0  0  0  0  0  0  0  0  0  0
   16.4121   -8.6379   17.3914 N   0  0  0  0  0  0  0  0  0  0  0  0
   16.5779   -8.7781   15.9855 C   0  0  0  0  0  0  0  0  0  0  0  0
   16.6353   -7.7551   15.2551 O   0  0  0  0  0  0  0  0  0  0  0  0
   16.3245   -7.7419   17.7898 H   0  0  0  0  0  0  0  0  0  0  0  0
   16.3850   -9.4369   17.9660 H   0  0  0  0  0  0  0  0  0  0  0  0
   16.7130   -9.7999    9.3310 C   0  0  0  0  0  0  0  0  0  0  0  0
   17.8078   -8.9179    8.9556 N   0  0  0  0  0  0  0  0  0  0  0  0
   18.5434   -8.1411    9.7869 C   0  0  0  0  0  0  0  0  0  0  0  0
   19.4579   -7.3887    9.1161 N   0  0  0  0  0  0  0  0  0  0  0  0
   19.2567   -7.7218    7.8274 C   0  0  0  0  0  0  0  0  0  0  0  0
   19.9233   -7.2313    6.7075 C   0  0  0  0  0  0  0  0  0  0  0  0
   19.5253   -7.7246    5.4500 C   0  0  0  0  0  0  0  0  0  0  0  0
   18.4867   -8.6781    5.3470 C   0  0  0  0  0  0  0  0  0  0  0  0
   17.8332   -9.1520    6.4998 C   0  0  0  0  0  0  0  0  0  0  0  0
   18.2578   -8.6418    7.7257 C   0  0  0  0  0  0  0  0  0  0  0  0
  8  9  1  0  0  0
  9 10  2  0  0  0
  9  7  1  0  0  0
  7  6  1  0  0  0
  6  1  1  0  0  0
  1  2  2  0  0  0
  2  3  1  0  0  0
  3  4  2  0  0  0
  4 13  1  0  0  0
  4  5  1  0  0  0
 13 14  1  0  0  0
 14 15  1  0  0  0
 15 16  2  0  0  0
 16 17  1  0  0  0
 17 18  2  0  0  0
 18 19  1  0  0  0
 19 20  2  0  0  0
 20 21  1  0  0  0
 21 22  2  0  0  0
 22 14  1  0  0  0
 22 17  1  0  0  0
  5  1  1  0  0  0
  8 11  1  0  0  0
  8 12  1  0  0  0
M  END
>  <minimizedAffinity>
-7.15065

>  <minimizedRMSD>
2.44389

$$$$
CHEMBL4114591 PubChem-118322776


 32 35  0  0  0  0  0  0  0  0999 V2000
   16.0242   -9.9795    9.8855 C   0  0  0  0  0  0  0  0  0  0  0  0
   14.9188  -10.4662    9.5260 O   0  0  0  0  0  0  0  0  0  0  0  0
   16.9087   -9.3951    8.8591 C   0  0  0  0  0  0  0  0  0  0  0  0
   16.7950   -9.7025    7.5417 N   0  0  0  0  0  0  0  0  0  0  0  0
   17.7170   -9.0394    6.7990 C   0  0  0  0  0  0  0  0  0  0  0  0
   18.5628   -8.2078    7.5111 C   0  0  0  0  0  0  0  0  0  0  0  0
   18.1649   -8.2848    9.1364 S   0  0  0  0  0  0  0  0  0  0  0  0
   19.5608   -7.4600    6.8951 C   0  0  0  0  0  0  0  0  0  0  0  0
   19.7082   -7.5592    5.4957 C   0  0  0  0  0  0  0  0  0  0  0  0
   18.8418   -8.4107    4.7688 C   0  0  0  0  0  0  0  0  0  0  0  0
   17.8421   -9.1550    5.4164 C   0  0  0  0  0  0  0  0  0  0  0  0
   20.7577   -6.7812    4.7949 C   0  0  0  0  0  0  0  0  0  0  0  0
   21.8726   -7.4271    4.2344 C   0  0  0  0  0  0  0  0  0  0  0  0
   22.8622   -6.6939    3.5735 C   0  0  0  0  0  0  0  0  0  0  0  0
   22.7484   -5.3059    3.4656 C   0  0  0  0  0  0  0  0  0  0  0  0
   21.6454   -4.6511    4.0182 C   0  0  0  0  0  0  0  0  0  0  0  0
   20.6558   -5.3845    4.6789 C   0  0  0  0  0  0  0  0  0  0  0  0
   17.3689  -10.3918   13.1061 C   0  0  0  0  0  0  0  0  0  0  0  0
   16.2707   -9.6838   13.4259 N   0  0  0  0  0  0  0  0  0  0  0  0
   15.6413   -9.4452   12.2859 N   0  0  0  0  0  0  0  0  0  0  0  0
   16.3807  -10.0167   11.3147 C   0  0  0  0  0  0  0  0  0  0  0  0
   17.4440  -10.6000   11.8139 O   0  0  0  0  0  0  0  0  0  0  0  0
   19.2223  -11.9648   13.4937 C   0  0  0  0  0  0  0  0  0  0  0  0
   18.3718  -10.8678   14.1028 C   0  0  0  0  0  0  0  0  0  0  0  0
   19.2255   -9.7641   14.5145 N   0  0  0  0  0  0  0  0  0  0  0  0
   19.2376   -9.0468   13.7894 H   0  0  0  0  0  0  0  0  0  0  0  0
   18.5806   -9.1058   15.9816 S   0  0  0  0  0  0  0  0  0  0  0  0
   17.4828   -8.1297   15.6641 O   0  0  0  0  0  0  0  0  0  0  0  0
   19.6746   -8.3946   16.7259 O   0  0  0  0  0  0  0  0  0  0  0  0
   17.9538  -10.3771   16.9702 N   0  0  0  0  0  0  0  0  0  0  0  0
   17.2103  -10.8628   16.4685 H   0  0  0  0  0  0  0  0  0  0  0  0
   17.5802   -9.9834   17.8339 H   0  0  0  0  0  0  0  0  0  0  0  0
 24 23  1  0  0  0
 24 18  1  0  0  0
 18 19  2  0  0  0
 19 20  1  0  0  0
 20 21  2  0  0  0
 21 22  1  0  0  0
 21  1  1  0  0  0
  1  2  2  0  0  0
  1  3  1  0  0  0
  3  4  2  0  0  0
  4  5  1  0  0  0
  5  6  2  0  0  0
  6  7  1  0  0  0
  6  8  1  0  0  0
  8  9  2  0  0  0
  9 10  1  0  0  0
 10 11  2  0  0  0
  9 12  1  0  0  0
 12 13  2  0  0  0
 13 14  1  0  0  0
 14 15  2  0  0  0
 15 16  1  0  0  0
 16 17  2  0  0  0
 24 25  1  0  0  0
 25 27  1  0  0  0
 27 28  2  0  0  0
 27 29  2  0  0  0
 27 30  1  0  0  0
 22 18  1  0  0  0
  7  3  1  0  0  0
 11  5  1  0  0  0
 17 12  1  0  0  0
 25 26  1  0  0  0
 30 31  1  0  0  0
 30 32  1  0  0  0
M  END
>  <minimizedAffinity>
-7.69291

>  <minimizedRMSD>
2.44419

$$$$
CHEMBL4114591 PubChem-118322776


 32 35  0  0  0  0  0  0  0  0999 V2000
   16.0240   -9.9793    9.8855 C   0  0  0  0  0  0  0  0  0  0  0  0
   14.9186  -10.4657    9.5261 O   0  0  0  0  0  0  0  0  0  0  0  0
   16.9087   -9.3950    8.8592 C   0  0  0  0  0  0  0  0  0  0  0  0
   16.7951   -9.7026    7.5418 N   0  0  0  0  0  0  0  0  0  0  0  0
   17.7173   -9.0397    6.7991 C   0  0  0  0  0  0  0  0  0  0  0  0
   18.5630   -8.2081    7.5111 C   0  0  0  0  0  0  0  0  0  0  0  0
   18.1650   -8.2849    9.1364 S   0  0  0  0  0  0  0  0  0  0  0  0
   19.5608   -7.4598    6.8951 C   0  0  0  0  0  0  0  0  0  0  0  0
   19.7081   -7.5590    5.4958 C   0  0  0  0  0  0  0  0  0  0  0  0
   18.8419   -8.4109    4.7689 C   0  0  0  0  0  0  0  0  0  0  0  0
   17.8424   -9.1554    5.4164 C   0  0  0  0  0  0  0  0  0  0  0  0
   20.7573   -6.7808    4.7949 C   0  0  0  0  0  0  0  0  0  0  0  0
   20.6550   -5.3840    4.6789 C   0  0  0  0  0  0  0  0  0  0  0  0
   21.6445   -4.6503    4.0185 C   0  0  0  0  0  0  0  0  0  0  0  0
   22.7479   -5.3047    3.4660 C   0  0  0  0  0  0  0  0  0  0  0  0
   22.8621   -6.6927    3.5738 C   0  0  0  0  0  0  0  0  0  0  0  0
   21.8726   -7.4264    4.2344 C   0  0  0  0  0  0  0  0  0  0  0  0
   17.3687  -10.3917   13.1062 C   0  0  0  0  0  0  0  0  0  0  0  0
   16.2705   -9.6840   13.4260 N   0  0  0  0  0  0  0  0  0  0  0  0
   15.6410   -9.4454   12.2859 N   0  0  0  0  0  0  0  0  0  0  0  0
   16.3805  -10.0167   11.3148 C   0  0  0  0  0  0  0  0  0  0  0  0
   17.4440  -10.5999   11.8138 O   0  0  0  0  0  0  0  0  0  0  0  0
   19.2221  -11.9648   13.4936 C   0  0  0  0  0  0  0  0  0  0  0  0
   18.3717  -10.8679   14.1027 C   0  0  0  0  0  0  0  0  0  0  0  0
   19.2254   -9.7641   14.5145 N   0  0  0  0  0  0  0  0  0  0  0  0
   19.2375   -9.0468   13.7894 H   0  0  0  0  0  0  0  0  0  0  0  0
   18.5806   -9.1058   15.9815 S   0  0  0  0  0  0  0  0  0  0  0  0
   17.4826   -8.1297   15.6640 O   0  0  0  0  0  0  0  0  0  0  0  0
   19.6746   -8.3946   16.7258 O   0  0  0  0  0  0  0  0  0  0  0  0
   17.9538  -10.3771   16.9703 N   0  0  0  0  0  0  0  0  0  0  0  0
   17.2103  -10.8629   16.4686 H   0  0  0  0  0  0  0  0  0  0  0  0
   17.5802   -9.9834   17.8339 H   0  0  0  0  0  0  0  0  0  0  0  0
 24 23  1  0  0  0
 24 18  1  0  0  0
 18 19  2  0  0  0
 19 20  1  0  0  0
 20 21  2  0  0  0
 21 22  1  0  0  0
 21  1  1  0  0  0
  1  2  2  0  0  0
  1  3  1  0  0  0
  3  4  2  0  0  0
  4  5  1  0  0  0
  5  6  2  0  0  0
  6  7  1  0  0  0
  6  8  1  0  0  0
  8  9  2  0  0  0
  9 10  1  0  0  0
 10 11  2  0  0  0
  9 12  1  0  0  0
 12 13  2  0  0  0
 13 14  1  0  0  0
 14 15  2  0  0  0
 15 16  1  0  0  0
 16 17  2  0  0  0
 24 25  1  0  0  0
 25 27  1  0  0  0
 27 28  2  0  0  0
 27 29  2  0  0  0
 27 30  1  0  0  0
 22 18  1  0  0  0
  7  3  1  0  0  0
 11  5  1  0  0  0
 17 12  1  0  0  0
 25 26  1  0  0  0
 30 31  1  0  0  0
 30 32  1  0  0  0
M  END
>  <minimizedAffinity>
-7.69281

>  <minimizedRMSD>
2.44477

$$$$
CHEMBL3962351 PubChem-60207645


 32 34  0  0  0  0  0  0  0  0999 V2000
   15.5153   -8.3463   16.0610 C   0  0  0  0  0  0  0  0  0  0  0  0
   15.2740   -8.0809   17.5384 C   0  0  0  0  0  0  0  0  0  0  0  0
   13.8201   -7.7117   17.7829 C   0  0  0  0  0  0  0  0  0  0  0  0
   14.0864   -7.2058   20.2416 N   0  0  0  0  0  0  0  0  0  0  0  0
   13.6982   -6.7701   18.9320 C   0  0  0  0  0  0  0  0  0  0  0  0
   13.2772   -5.6004   18.7296 O   0  0  0  0  0  0  0  0  0  0  0  0
   14.4092   -8.1326   20.3195 H   0  0  0  0  0  0  0  0  0  0  0  0
   14.0081   -4.9585   23.8417 C   0  0  0  0  0  0  0  0  0  0  0  0
   13.5927   -4.3655   22.6479 C   0  0  0  0  0  0  0  0  0  0  0  0
   13.6157   -5.0994   21.4591 C   0  0  0  0  0  0  0  0  0  0  0  0
   14.0541   -6.4331   21.4520 C   0  0  0  0  0  0  0  0  0  0  0  0
   14.4706   -7.0225   22.6580 C   0  0  0  0  0  0  0  0  0  0  0  0
   14.4464   -6.2848   23.8461 C   0  0  0  0  0  0  0  0  0  0  0  0
   14.9214   -8.3733   22.6850 N   0  0  0  0  0  0  0  0  0  0  0  0
   14.9427   -8.9019   21.8547 H   0  0  0  0  0  0  0  0  0  0  0  0
   15.2118   -8.7785   23.5340 H   0  0  0  0  0  0  0  0  0  0  0  0
   17.0057   -8.3529   15.7574 C   0  0  0  0  0  0  0  0  0  0  0  0
   17.4390   -9.6785   15.1499 C   0  0  0  0  0  0  0  0  0  0  0  0
   17.6113   -9.5365   13.7125 N   0  0  0  0  0  0  0  0  0  0  0  0
   16.5387   -9.7645   12.7958 C   0  0  0  0  0  0  0  0  0  0  0  0
   15.4026  -10.1069   13.2246 O   0  0  0  0  0  0  0  0  0  0  0  0
   18.4930   -9.2755   13.3606 H   0  0  0  0  0  0  0  0  0  0  0  0
   16.7638   -9.5941   11.3528 C   0  0  0  0  0  0  0  0  0  0  0  0
   17.7801   -8.8031   10.9101 N   0  0  0  0  0  0  0  0  0  0  0  0
   18.0086   -8.6277    9.5829 C   0  0  0  0  0  0  0  0  0  0  0  0
   19.0552   -7.8132    9.1428 C   0  0  0  0  0  0  0  0  0  0  0  0
   19.2753   -7.6442    7.7717 C   0  0  0  0  0  0  0  0  0  0  0  0
   18.4509   -8.2882    6.8415 C   0  0  0  0  0  0  0  0  0  0  0  0
   17.4018   -9.1047    7.2776 C   0  0  0  0  0  0  0  0  0  0  0  0
   17.1782   -9.2764    8.6463 C   0  0  0  0  0  0  0  0  0  0  0  0
   16.1647  -10.0649    9.0878 N   0  0  0  0  0  0  0  0  0  0  0  0
   15.9404  -10.2370   10.4177 C   0  0  0  0  0  0  0  0  0  0  0  0
  8  9  2  0  0  0
  9 10  1  0  0  0
 10 11  2  0  0  0
 11 12  1  0  0  0
 11  4  1  0  0  0
 12 13  2  0  0  0
 12 14  1  0  0  0
 13  8  1  0  0  0
  4  5  1  0  0  0
  5  6  2  0  0  0
  5  3  1  0  0  0
  3  2  1  0  0  0
  2  1  1  0  0  0
  1 17  1  0  0  0
 17 18  1  0  0  0
 18 19  1  0  0  0
 19 20  1  0  0  0
 20 21  2  0  0  0
 20 23  1  0  0  0
 23 24  2  0  0  0
 24 25  1  0  0  0
 25 26  2  0  0  0
 26 27  1  0  0  0
 27 28  2  0  0  0
 28 29  1  0  0  0
 29 30  2  0  0  0
 30 31  1  0  0  0
 30 25  1  0  0  0
 31 32  2  0  0  0
 32 23  1  0  0  0
 14 15  1  0  0  0
 14 16  1  0  0  0
  4  7  1  0  0  0
 19 22  1  0  0  0
M  END
>  <minimizedAffinity>
-8.56463

>  <minimizedRMSD>
2.44714

$$$$
CHEMBL157775


 40 42  0  0  0  0  0  0  0  0999 V2000
   17.7955   -9.4518   15.3737 C   0  0  0  0  0  0  0  0  0  0  0  0
   17.5974   -9.8483   16.6994 C   0  0  0  0  0  0  0  0  0  0  0  0
   16.5898   -9.2532   17.4651 C   0  0  0  0  0  0  0  0  0  0  0  0
   15.7697   -8.2594   16.9103 C   0  0  0  0  0  0  0  0  0  0  0  0
   15.9666   -7.8749   15.5760 C   0  0  0  0  0  0  0  0  0  0  0  0
   16.9747   -8.4683   14.8106 C   0  0  0  0  0  0  0  0  0  0  0  0
   14.7074   -7.6343   17.7168 C   0  0  0  0  0  0  0  0  0  0  0  0
   13.6781   -7.1692   17.1532 O   0  0  0  0  0  0  0  0  0  0  0  0
   14.8447   -7.5482   19.1397 N   0  0  0  0  0  0  0  0  0  0  0  0
   15.6665   -7.8949   19.5565 H   0  0  0  0  0  0  0  0  0  0  0  0
   13.8182   -6.9688   19.9952 C   0  0  0  0  0  0  0  0  0  0  0  0
   12.8368   -8.0218   20.4031 C   0  0  0  0  0  0  0  0  0  0  0  0
   11.9743   -8.4239   19.5796 O   0  0  0  0  0  0  0  0  0  0  0  0
   12.8766   -8.5637   21.6825 O   0  0  0  0  0  0  0  0  0  0  0  0
   13.5177   -8.2660   22.2976 H   0  0  0  0  0  0  0  0  0  0  0  0
   14.4750   -6.3434   21.2159 C   0  0  0  0  0  0  0  0  0  0  0  0
   13.6583   -5.1607   21.7097 C   0  0  0  0  0  0  0  0  0  0  0  0
   14.0074   -4.8475   23.1229 C   0  0  0  0  0  0  0  0  0  0  0  0
   13.7893   -5.6897   24.0336 O   0  0  0  0  0  0  0  0  0  0  0  0
   14.5622   -3.6149   23.4395 O   0  0  0  0  0  0  0  0  0  0  0  0
   14.7253   -2.9870   22.7634 H   0  0  0  0  0  0  0  0  0  0  0  0
   18.8593  -10.1031   14.5544 C   0  0  0  0  0  0  0  0  0  0  0  0
   18.2656  -10.9866   13.5494 N   0  0  0  0  0  0  0  0  0  0  0  0
   18.0889  -12.3790   13.8524 C   0  0  0  0  0  0  0  0  0  0  0  0
   18.4697  -12.8614   14.9530 O   0  0  0  0  0  0  0  0  0  0  0  0
   16.9475   -7.7382    6.5824 N   0  0  0  0  0  0  0  0  0  0  0  0
   17.4045   -8.2297    7.8362 C   0  0  0  0  0  0  0  0  0  0  0  0
   18.6485   -7.9041    8.2797 N   0  0  0  0  0  0  0  0  0  0  0  0
   19.1088   -8.3534    9.4774 C   0  0  0  0  0  0  0  0  0  0  0  0
   20.3844   -7.9989    9.9011 O   0  0  0  0  0  0  0  0  0  0  0  0
   18.2907   -9.1642   10.2705 C   0  0  0  0  0  0  0  0  0  0  0  0
   18.7050   -9.6576   11.5097 C   0  0  0  0  0  0  0  0  0  0  0  0
   17.8457  -10.4629   12.2730 C   0  0  0  0  0  0  0  0  0  0  0  0
   16.5712  -10.7547   11.7559 C   0  0  0  0  0  0  0  0  0  0  0  0
   16.1841  -10.2683   10.5451 N   0  0  0  0  0  0  0  0  0  0  0  0
   17.0073   -9.4877    9.7964 C   0  0  0  0  0  0  0  0  0  0  0  0
   16.5928   -9.0152    8.5924 N   0  0  0  0  0  0  0  0  0  0  0  0
   17.5340   -7.1691    6.0334 H   0  0  0  0  0  0  0  0  0  0  0  0
   16.0446   -7.9669    6.2635 H   0  0  0  0  0  0  0  0  0  0  0  0
   20.9233   -7.4550    9.3609 H   0  0  0  0  0  0  0  0  0  0  0  0
 26 27  1  0  0  0
 27 28  2  0  0  0
 28 29  1  0  0  0
 29 30  1  0  0  0
 29 31  2  0  0  0
 31 32  1  0  0  0
 32 33  2  0  0  0
 33 23  1  0  0  0
 33 34  1  0  0  0
 23 24  1  0  0  0
 23 22  1  0  0  0
 24 25  2  0  0  0
 22  1  1  0  0  0
  1  2  2  0  0  0
  2  3  1  0  0  0
  3  4  2  0  0  0
  4  7  1  0  0  0
  4  5  1  0  0  0
  7  8  2  0  0  0
  7  9  1  0  0  0
 11  9  1  0  0  0
 11 16  1  0  0  0
 11 12  1  0  0  0
 16 17  1  0  0  0
 17 18  1  0  0  0
 18 19  2  0  0  0
 18 20  1  0  0  0
 12 13  2  0  0  0
 12 14  1  0  0  0
  5  6  2  0  0  0
  6  1  1  0  0  0
 34 35  2  0  0  0
 35 36  1  0  0  0
 36 37  2  0  0  0
 36 31  1  0  0  0
 37 27  1  0  0  0
 26 38  1  0  0  0
 26 39  1  0  0  0
 30 40  1  0  0  0
  9 10  1  0  0  0
 20 21  1  0  0  0
 14 15  1  0  0  0
M  END
>  <minimizedAffinity>
-7.66899

>  <minimizedRMSD>
2.44769

$$$$
CHEMBL4476775 PubChem-129067227


 33 36  0  0  0  0  0  0  0  0999 V2000
   17.9660   -9.3174   16.0760 N   0  0  0  0  0  0  0  0  0  0  0  0
   17.0119   -8.4134   15.7863 C   0  0  0  0  0  0  0  0  0  0  0  0
   16.0245   -8.5778   16.7366 C   0  0  0  0  0  0  0  0  0  0  0  0
   16.4389   -9.5906   17.5830 C   0  0  0  0  0  0  0  0  0  0  0  0
   17.6387  -10.0208   17.1470 N   0  0  0  0  0  0  0  0  0  0  0  0
   14.7736   -7.8185   16.8389 C   0  0  0  0  0  0  0  0  0  0  0  0
   14.2014   -7.4033   15.7947 O   0  0  0  0  0  0  0  0  0  0  0  0
   14.2074   -7.5552   18.1261 N   0  0  0  0  0  0  0  0  0  0  0  0
   14.6567   -7.9266   18.9195 H   0  0  0  0  0  0  0  0  0  0  0  0
   12.9986   -6.7648   18.3215 C   0  0  0  0  0  0  0  0  0  0  0  0
   12.9995   -6.1281   19.6751 C   0  0  0  0  0  0  0  0  0  0  0  0
   12.8845   -6.8953   20.8481 C   0  0  0  0  0  0  0  0  0  0  0  0
   12.9062   -6.2488   22.0851 C   0  0  0  0  0  0  0  0  0  0  0  0
   13.0405   -4.8615   22.1473 C   0  0  0  0  0  0  0  0  0  0  0  0
   13.1512   -4.1336   20.9625 C   0  0  0  0  0  0  0  0  0  0  0  0
   13.1293   -4.7756   19.7642 N   0  0  0  0  0  0  0  0  0  0  0  0
   12.7046   -8.6426   20.8061 Cl  0  0  0  0  0  0  0  0  0  0  0  0
   19.2161   -9.4986   15.3526 C   0  0  0  0  0  0  0  0  0  0  0  0
   19.0747  -10.5800   14.2936 C   0  0  0  0  0  0  0  0  0  0  0  0
   18.6464   -9.9915   13.0373 N   0  0  0  0  0  0  0  0  0  0  0  0
   18.3416   -9.0294   13.1855 H   0  0  0  0  0  0  0  0  0  0  0  0
   17.5397  -10.7986   12.5549 C   0  0  0  0  0  0  0  0  0  0  0  0
   16.5339   -9.9234   11.8254 C   0  0  0  0  0  0  0  0  0  0  0  0
   19.3511   -7.5843    7.1804 C   0  0  0  0  0  0  0  0  0  0  0  0
   18.4744   -8.4144    6.4455 C   0  0  0  0  0  0  0  0  0  0  0  0
   17.5348   -9.2255    7.1079 C   0  0  0  0  0  0  0  0  0  0  0  0
   17.5099   -9.1691    8.4993 C   0  0  0  0  0  0  0  0  0  0  0  0
   18.3560   -8.3706    9.2075 C   0  0  0  0  0  0  0  0  0  0  0  0
   19.2990   -7.5556    8.5867 C   0  0  0  0  0  0  0  0  0  0  0  0
   18.1309   -8.5071   10.5218 N   0  0  0  0  0  0  0  0  0  0  0  0
   17.1167   -9.4112   10.5507 C   0  0  0  0  0  0  0  0  0  0  0  0
   16.7083   -9.8488    9.3309 N   0  0  0  0  0  0  0  0  0  0  0  0
   18.5849   -8.0647   11.2750 H   0  0  0  0  0  0  0  0  0  0  0  0
 24 25  2  0  0  0
 25 26  1  0  0  0
 26 27  2  0  0  0
 27 28  1  0  0  0
 28 29  2  0  0  0
 28 30  1  0  0  0
 30 31  1  0  0  0
 31 32  2  0  0  0
 31 23  1  0  0  0
 23 22  1  0  0  0
 22 20  1  0  0  0
 20 19  1  0  0  0
 19 18  1  0  0  0
 18  1  1  0  0  0
  1  2  1  0  0  0
  2  3  2  0  0  0
  3  4  1  0  0  0
  4  5  2  0  0  0
  3  6  1  0  0  0
  6  7  2  0  0  0
  6  8  1  0  0  0
  8 10  1  0  0  0
 10 11  1  0  0  0
 11 12  2  0  0  0
 12 13  1  0  0  0
 13 14  2  0  0  0
 14 15  1  0  0  0
 15 16  2  0  0  0
 12 17  1  0  0  0
 29 24  1  0  0  0
 32 27  1  0  0  0
  5  1  1  0  0  0
 16 11  1  0  0  0
 30 33  1  0  0  0
 20 21  1  0  0  0
  8  9  1  0  0  0
M  END
>  <minimizedAffinity>
-5.47354

>  <minimizedRMSD>
2.45683

$$$$
CHEMBL3594209 PubChem-122182520


 32 33  0  0  0  0  0  0  0  0999 V2000
   15.0686  -10.1182   10.0012 C   0  0  0  0  0  0  0  0  0  0  0  0
   16.3034   -9.2240    8.0634 N   0  0  0  0  0  0  0  0  0  0  0  0
   16.2866   -9.5154    9.3887 C   0  0  0  0  0  0  0  0  0  0  0  0
   17.4252   -9.3046   10.1653 C   0  0  0  0  0  0  0  0  0  0  0  0
   18.5935   -8.7791    9.5954 C   0  0  0  0  0  0  0  0  0  0  0  0
   18.5874   -8.4743    8.2091 C   0  0  0  0  0  0  0  0  0  0  0  0
   17.4067   -8.7131    7.4595 C   0  0  0  0  0  0  0  0  0  0  0  0
   17.3709   -8.4316    6.0906 C   0  0  0  0  0  0  0  0  0  0  0  0
   18.4967   -7.9104    5.4508 C   0  0  0  0  0  0  0  0  0  0  0  0
   19.6643   -7.6706    6.1771 C   0  0  0  0  0  0  0  0  0  0  0  0
   19.7086   -7.9517    7.5447 C   0  0  0  0  0  0  0  0  0  0  0  0
   19.7690   -8.5894   10.4903 C   0  0  0  0  0  0  0  0  0  0  0  0
   19.6673   -8.8763   11.7157 O   0  0  0  0  0  0  0  0  0  0  0  0
   21.0127   -8.0895    9.9926 N   0  0  0  0  0  0  0  0  0  0  0  0
   22.1723   -7.9106   10.8494 C   0  0  0  0  0  0  0  0  0  0  0  0
   21.0856   -7.8590    9.0382 H   0  0  0  0  0  0  0  0  0  0  0  0
   15.3552  -10.5469   11.3631 N   0  0  0  0  0  0  0  0  0  0  0  0
   15.4446   -9.6294   12.4559 C   0  0  0  0  0  0  0  0  0  0  0  0
   15.1515   -8.4141   12.2998 O   0  0  0  0  0  0  0  0  0  0  0  0
   15.4927  -11.5059   11.5381 H   0  0  0  0  0  0  0  0  0  0  0  0
   15.9086  -10.1078   13.7891 C   0  0  0  0  0  0  0  0  0  0  0  0
   17.2319   -9.4551   14.1725 C   0  0  0  0  0  0  0  0  0  0  0  0
   17.0746   -8.4491   15.3094 C   0  0  0  0  0  0  0  0  0  0  0  0
   16.2638   -9.0297   16.4572 C   0  0  0  0  0  0  0  0  0  0  0  0
   15.2355   -8.0242   16.9388 C   0  0  0  0  0  0  0  0  0  0  0  0
   15.3265   -7.8855   18.4494 C   0  0  0  0  0  0  0  0  0  0  0  0
   14.1081   -7.2463   19.0399 C   0  0  0  0  0  0  0  0  0  0  0  0
   13.4086   -6.4357   18.3726 O   0  0  0  0  0  0  0  0  0  0  0  0
   13.7381   -7.5699   20.3783 N   0  0  0  0  0  0  0  0  0  0  0  0
   12.6383   -7.0223   20.9465 O   0  0  0  0  0  0  0  0  0  0  0  0
   14.2898   -8.1999   20.8960 H   0  0  0  0  0  0  0  0  0  0  0  0
   12.2080   -6.4286   20.3115 H   0  0  0  0  0  0  0  0  0  0  0  0
  2  3  2  0  0  0
  3  4  1  0  0  0
  4  5  2  0  0  0
  5  6  1  0  0  0
  6  7  2  0  0  0
  7  8  1  0  0  0
  8  9  2  0  0  0
  9 10  1  0  0  0
 10 11  2  0  0  0
  5 12  1  0  0  0
 12 13  2  0  0  0
 12 14  1  0  0  0
 14 15  1  0  0  0
  3  1  1  0  0  0
  1 17  1  0  0  0
 17 18  1  0  0  0
 18 19  2  0  0  0
 18 21  1  0  0  0
 21 22  1  0  0  0
 22 23  1  0  0  0
 23 24  1  0  0  0
 24 25  1  0  0  0
 25 26  1  0  0  0
 26 27  1  0  0  0
 27 28  2  0  0  0
 27 29  1  0  0  0
 29 30  1  0  0  0
  7  2  1  0  0  0
 11  6  1  0  0  0
 14 16  1  0  0  0
 17 20  1  0  0  0
 29 31  1  0  0  0
 30 32  1  0  0  0
M  END
>  <minimizedAffinity>
-0.75285

>  <minimizedRMSD>
2.45961

$$$$
CHEMBL1546429 3378413 CSC025893249 MCULE-4290260446 MolPort-004-284-557 PubChem-2496468 Z16599796 ZINC000003378413 ZINC03378413


 30 32  0  0  0  0  0  0  0  0999 V2000
   15.3005   -9.2886    9.7841 O   0  0  0  0  0  0  0  0  0  0  0  0
   16.1115   -9.9834    8.8810 C   0  0  0  0  0  0  0  0  0  0  0  0
   15.8816  -11.2012    8.6422 O   0  0  0  0  0  0  0  0  0  0  0  0
   17.8909   -8.4592    4.6701 C   0  0  0  0  0  0  0  0  0  0  0  0
   18.0936   -8.5699    6.1066 N   0  0  0  0  0  0  0  0  0  0  0  0
   17.1439   -9.1588    6.8346 N   0  0  0  0  0  0  0  0  0  0  0  0
   17.2350   -9.3114    8.1840 C   0  0  0  0  0  0  0  0  0  0  0  0
   18.3886   -8.8298    8.8406 C   0  0  0  0  0  0  0  0  0  0  0  0
   18.5719   -8.9559   10.2273 C   0  0  0  0  0  0  0  0  0  0  0  0
   19.7270   -8.4702   10.8436 C   0  0  0  0  0  0  0  0  0  0  0  0
   20.7177   -7.8515   10.0808 C   0  0  0  0  0  0  0  0  0  0  0  0
   20.5547   -7.7194    8.7009 C   0  0  0  0  0  0  0  0  0  0  0  0
   19.3972   -8.2050    8.0723 C   0  0  0  0  0  0  0  0  0  0  0  0
   19.2272   -8.0825    6.6879 C   0  0  0  0  0  0  0  0  0  0  0  0
   20.1167   -7.5265    5.9834 O   0  0  0  0  0  0  0  0  0  0  0  0
   14.4142   -9.9455   10.6823 C   0  0  0  0  0  0  0  0  0  0  0  0
   15.1019  -10.2184   11.9751 C   0  0  0  0  0  0  0  0  0  0  0  0
   14.4214  -10.5325   12.9877 O   0  0  0  0  0  0  0  0  0  0  0  0
   16.5304  -10.1800   12.0365 N   0  0  0  0  0  0  0  0  0  0  0  0
   17.0248  -10.0603   11.1936 H   0  0  0  0  0  0  0  0  0  0  0  0
   17.2869  -10.3045   13.2449 C   0  0  0  0  0  0  0  0  0  0  0  0
   17.1687   -9.5431   14.4094 C   0  0  0  0  0  0  0  0  0  0  0  0
   18.0390   -9.9763   15.4236 C   0  0  0  0  0  0  0  0  0  0  0  0
   18.8473  -11.0545   15.0670 C   0  0  0  0  0  0  0  0  0  0  0  0
   18.4728  -11.4614   13.4769 S   0  0  0  0  0  0  0  0  0  0  0  0
   16.3231   -8.3458   14.5768 C   0  0  0  0  0  0  0  0  0  0  0  0
   16.0035   -7.8766   15.8830 N   0  0  0  0  0  0  0  0  0  0  0  0
   15.9112   -7.7022   13.5765 O   0  0  0  0  0  0  0  0  0  0  0  0
   16.3191   -8.3702   16.6742 H   0  0  0  0  0  0  0  0  0  0  0  0
   15.4670   -7.0587   15.9946 H   0  0  0  0  0  0  0  0  0  0  0  0
  4  5  1  0  0  0
  5  6  1  0  0  0
  6  7  2  0  0  0
  7  2  1  0  0  0
  2  3  2  0  0  0
  2  1  1  0  0  0
  1 16  1  0  0  0
 16 17  1  0  0  0
 17 18  2  0  0  0
 17 19  1  0  0  0
 19 21  1  0  0  0
 21 22  2  0  0  0
 22 23  1  0  0  0
 23 24  2  0  0  0
 24 25  1  0  0  0
 22 26  1  0  0  0
 26 27  1  0  0  0
 26 28  2  0  0  0
  7  8  1  0  0  0
  8  9  2  0  0  0
  9 10  1  0  0  0
 10 11  2  0  0  0
 11 12  1  0  0  0
 12 13  2  0  0  0
 13 14  1  0  0  0
 14 15  2  0  0  0
 14  5  1  0  0  0
 25 21  1  0  0  0
 13  8  1  0  0  0
 19 20  1  0  0  0
 27 29  1  0  0  0
 27 30  1  0  0  0
M  END
>  <minimizedAffinity>
-1.64356

>  <minimizedRMSD>
2.46126

$$$$
CHEMBL5085531


 31 33  0  0  0  0  0  0  0  0999 V2000
   17.1773   -9.7031   12.9100 N   0  0  0  0  0  0  0  0  0  0  0  0
   18.0582   -9.2644   12.9359 H   0  0  0  0  0  0  0  0  0  0  0  0
   16.4524   -9.7042   11.6749 C   0  0  0  0  0  0  0  0  0  0  0  0
   15.1643  -10.1435   11.6361 N   0  0  0  0  0  0  0  0  0  0  0  0
   14.4565  -10.1574   10.4760 C   0  0  0  0  0  0  0  0  0  0  0  0
   15.0296   -9.7293    9.3209 N   0  0  0  0  0  0  0  0  0  0  0  0
   16.3116   -9.2831    9.3044 C   0  0  0  0  0  0  0  0  0  0  0  0
   17.0626   -9.2600   10.4947 C   0  0  0  0  0  0  0  0  0  0  0  0
   18.3836   -8.7990   10.4718 C   0  0  0  0  0  0  0  0  0  0  0  0
   18.9648   -8.3595    9.2708 C   0  0  0  0  0  0  0  0  0  0  0  0
   18.2130   -8.3836    8.0845 C   0  0  0  0  0  0  0  0  0  0  0  0
   16.8867   -8.8470    8.1098 C   0  0  0  0  0  0  0  0  0  0  0  0
   13.0519  -10.6423   10.4710 C   0  0  0  0  0  0  0  0  0  0  0  0
   18.8029   -7.9432    6.8946 O   0  0  0  0  0  0  0  0  0  0  0  0
   18.6990   -8.6610    5.6725 C   0  0  0  0  0  0  0  0  0  0  0  0
   20.2844   -7.8959    9.2334 O   0  0  0  0  0  0  0  0  0  0  0  0
   21.2520   -8.2494   10.2127 C   0  0  0  0  0  0  0  0  0  0  0  0
   16.6736  -10.3202   14.1304 C   0  0  0  0  0  0  0  0  0  0  0  0
   15.1535  -10.3508   14.1210 C   0  0  0  0  0  0  0  0  0  0  0  0
   16.7830   -8.4338   17.4344 C   0  0  0  0  0  0  0  0  0  0  0  0
   18.1567   -8.2016   17.5603 C   0  0  0  0  0  0  0  0  0  0  0  0
   19.0385   -8.6597   16.5773 C   0  0  0  0  0  0  0  0  0  0  0  0
   18.5484   -9.3485   15.4639 C   0  0  0  0  0  0  0  0  0  0  0  0
   17.1754   -9.5804   15.3285 C   0  0  0  0  0  0  0  0  0  0  0  0
   16.2937   -9.1208   16.3185 C   0  0  0  0  0  0  0  0  0  0  0  0
   14.9998   -9.0146   19.3293 O   0  0  0  0  0  0  0  0  0  0  0  0
   15.6745   -7.8496   18.6611 S   0  0  0  0  0  0  0  0  0  0  0  0
   14.6390   -6.9668   18.0243 O   0  0  0  0  0  0  0  0  0  0  0  0
   16.5441   -6.9505   19.8534 N   0  0  0  0  0  0  0  0  0  0  0  0
   15.8955   -6.6128   20.5646 H   0  0  0  0  0  0  0  0  0  0  0  0
   17.0063   -6.1565   19.4103 H   0  0  0  0  0  0  0  0  0  0  0  0
 26 27  2  0  0  0
 27 28  2  0  0  0
 27 20  1  0  0  0
 20 21  2  0  0  0
 21 22  1  0  0  0
 22 23  2  0  0  0
 23 24  1  0  0  0
 24 18  1  0  0  0
 18  1  1  0  0  0
  1  3  1  0  0  0
  3  4  2  0  0  0
  4  5  1  0  0  0
  5  6  2  0  0  0
  6  7  1  0  0  0
  7  8  2  0  0  0
  8  9  1  0  0  0
  9 10  2  0  0  0
 10 11  1  0  0  0
 11 12  2  0  0  0
 11 14  1  0  0  0
 14 15  1  0  0  0
 10 16  1  0  0  0
 16 17  1  0  0  0
  5 13  1  0  0  0
 18 19  1  0  0  0
 24 25  2  0  0  0
 27 29  1  0  0  0
 25 20  1  0  0  0
  8  3  1  0  0  0
 12  7  1  0  0  0
  1  2  1  0  0  0
 29 30  1  0  0  0
 29 31  1  0  0  0
M  END
>  <minimizedAffinity>
-0.12838

>  <minimizedRMSD>
2.46329

$$$$
CHEMBL4903331 95434874 CSC025936047 MCULE-5367979437 MolPort-027-919-312 PubChem-75387819 Z1502795468 ZINC000095434874


 28 31  0  0  0  0  0  0  0  0999 V2000
   16.6474  -10.3427   11.1416 C   0  0  0  0  0  0  0  0  0  0  0  0
   16.9105   -9.7642    9.8951 C   0  0  0  0  0  0  0  0  0  0  0  0
   15.8764   -9.3523    9.1114 C   0  0  0  0  0  0  0  0  0  0  0  0
   16.3089   -8.8406    7.9919 O   0  0  0  0  0  0  0  0  0  0  0  0
   17.6283   -8.9096    8.0256 C   0  0  0  0  0  0  0  0  0  0  0  0
   18.0822   -9.4905    9.2163 C   0  0  0  0  0  0  0  0  0  0  0  0
   14.5829   -9.4795    9.4906 N   0  0  0  0  0  0  0  0  0  0  0  0
   14.3175  -10.0430   10.7054 C   0  0  0  0  0  0  0  0  0  0  0  0
   15.3392  -10.4660   11.5137 N   0  0  0  0  0  0  0  0  0  0  0  0
   18.4917   -8.4290    6.9351 C   0  0  0  0  0  0  0  0  0  0  0  0
   19.6058   -7.6209    7.2065 C   0  0  0  0  0  0  0  0  0  0  0  0
   20.4203   -7.1690    6.1640 C   0  0  0  0  0  0  0  0  0  0  0  0
   20.1262   -7.5221    4.8442 C   0  0  0  0  0  0  0  0  0  0  0  0
   19.0179   -8.3268    4.5666 C   0  0  0  0  0  0  0  0  0  0  0  0
   18.2031   -8.7788    5.6090 C   0  0  0  0  0  0  0  0  0  0  0  0
   17.6741  -10.8031   12.0284 N   0  0  0  0  0  0  0  0  0  0  0  0
   17.6180  -11.7314   12.3515 H   0  0  0  0  0  0  0  0  0  0  0  0
   18.7936   -9.9942   12.4844 C   0  0  0  0  0  0  0  0  0  0  0  0
   17.9462   -9.8417   15.9273 C   0  0  0  0  0  0  0  0  0  0  0  0
   17.6488  -10.0587   14.6706 O   0  0  0  0  0  0  0  0  0  0  0  0
   18.7251   -9.8346   13.9613 C   0  0  0  0  0  0  0  0  0  0  0  0
   19.7813   -9.4610   14.7690 C   0  0  0  0  0  0  0  0  0  0  0  0
   19.2708   -9.4629   16.0578 C   0  0  0  0  0  0  0  0  0  0  0  0
   17.0386  -11.1290   17.8794 N   0  0  0  0  0  0  0  0  0  0  0  0
   16.9899   -9.9878   17.0293 C   0  0  0  0  0  0  0  0  0  0  0  0
   16.1190   -9.1010   17.2279 O   0  0  0  0  0  0  0  0  0  0  0  0
   17.7174  -11.8261   17.7293 H   0  0  0  0  0  0  0  0  0  0  0  0
   16.3935  -11.2210   18.6174 H   0  0  0  0  0  0  0  0  0  0  0  0
 24 25  1  0  0  0
 25 19  1  0  0  0
 19 20  1  0  0  0
 20 21  1  0  0  0
 21 18  1  0  0  0
 18 16  1  0  0  0
 16  1  1  0  0  0
  1  2  1  0  0  0
  2  3  2  0  0  0
  3  4  1  0  0  0
  4  5  1  0  0  0
  5 10  1  0  0  0
 10 11  2  0  0  0
 11 12  1  0  0  0
 12 13  2  0  0  0
 13 14  1  0  0  0
 14 15  2  0  0  0
  5  6  2  0  0  0
  3  7  1  0  0  0
  7  8  2  0  0  0
  8  9  1  0  0  0
 21 22  2  0  0  0
 22 23  1  0  0  0
 25 26  2  0  0  0
 23 19  2  0  0  0
  9  1  2  0  0  0
  6  2  1  0  0  0
 15 10  1  0  0  0
 24 27  1  0  0  0
 24 28  1  0  0  0
 16 17  1  0  0  0
M  END
>  <minimizedAffinity>
-4.64054

>  <minimizedRMSD>
2.46985

$$$$
CHEMBL5197915 PubChem-156771160


 37 40  0  0  0  0  0  0  0  0999 V2000
   17.2117   -8.6472   14.1290 C   0  0  0  0  0  0  0  0  0  0  0  0
   16.4375   -8.7786   12.9670 C   0  0  0  0  0  0  0  0  0  0  0  0
   16.5949   -9.8844   12.1204 C   0  0  0  0  0  0  0  0  0  0  0  0
   17.5215  -10.8731   12.4537 C   0  0  0  0  0  0  0  0  0  0  0  0
   18.3053  -10.7634   13.6129 C   0  0  0  0  0  0  0  0  0  0  0  0
   18.1539   -9.6411   14.4465 C   0  0  0  0  0  0  0  0  0  0  0  0
   16.1592   -6.4778   14.6962 C   0  0  0  0  0  0  0  0  0  0  0  0
   17.0593   -7.5417   14.9746 O   0  0  0  0  0  0  0  0  0  0  0  0
   19.2351  -11.7545   13.9505 O   0  0  0  0  0  0  0  0  0  0  0  0
   18.8542  -13.0594   14.3646 C   0  0  0  0  0  0  0  0  0  0  0  0
   18.9682   -9.5245   15.6943 C   0  0  0  0  0  0  0  0  0  0  0  0
   18.1706   -8.8988   16.7462 N   0  0  0  0  0  0  0  0  0  0  0  0
   17.8877   -7.9673   16.4419 H   0  0  0  0  0  0  0  0  0  0  0  0
   16.9726   -9.6949   17.0352 C   0  0  0  0  0  0  0  0  0  0  0  0
   16.0450   -8.9961   18.0216 C   0  0  0  0  0  0  0  0  0  0  0  0
   15.6141   -7.7808   17.4895 O   0  0  0  0  0  0  0  0  0  0  0  0
   16.3813   -7.2125   17.3186 H   0  0  0  0  0  0  0  0  0  0  0  0
   17.3200  -11.0983   17.5162 C   0  0  0  0  0  0  0  0  0  0  0  0
   16.8266  -12.0443   16.6175 O   0  0  0  0  0  0  0  0  0  0  0  0
   15.8622  -11.9597   16.5561 H   0  0  0  0  0  0  0  0  0  0  0  0
   15.8255  -10.0396   10.9598 O   0  0  0  0  0  0  0  0  0  0  0  0
   16.3279   -9.9212    9.6567 C   0  0  0  0  0  0  0  0  0  0  0  0
   15.7912  -10.6975    8.6802 N   0  0  0  0  0  0  0  0  0  0  0  0
   16.2331  -10.6285    7.3992 C   0  0  0  0  0  0  0  0  0  0  0  0
   17.2354   -9.7760    7.0678 N   0  0  0  0  0  0  0  0  0  0  0  0
   17.8271   -8.9779    7.9975 C   0  0  0  0  0  0  0  0  0  0  0  0
   17.3884   -9.0506    9.3412 C   0  0  0  0  0  0  0  0  0  0  0  0
   18.0355   -8.2980   10.3271 C   0  0  0  0  0  0  0  0  0  0  0  0
   19.0940   -7.4588    9.9897 C   0  0  0  0  0  0  0  0  0  0  0  0
   19.5155   -7.3661    8.6639 C   0  0  0  0  0  0  0  0  0  0  0  0
   18.8945   -8.1107    7.6468 C   0  0  0  0  0  0  0  0  0  0  0  0
   19.3946   -7.9555    6.2514 C   0  0  0  0  0  0  0  0  0  0  0  0
   18.6602   -8.4306    5.1517 C   0  0  0  0  0  0  0  0  0  0  0  0
   19.1322   -8.2582    3.8476 C   0  0  0  0  0  0  0  0  0  0  0  0
   20.3441   -7.6012    3.6249 C   0  0  0  0  0  0  0  0  0  0  0  0
   21.0819   -7.1147    4.7060 C   0  0  0  0  0  0  0  0  0  0  0  0
   20.6084   -7.2881    6.0096 C   0  0  0  0  0  0  0  0  0  0  0  0
  7  8  1  0  0  0
  8  1  1  0  0  0
  1  2  2  0  0  0
  2  3  1  0  0  0
  3  4  2  0  0  0
  4  5  1  0  0  0
  5  6  2  0  0  0
  6 11  1  0  0  0
 11 12  1  0  0  0
 12 14  1  0  0  0
 14 15  1  0  0  0
 15 16  1  0  0  0
 14 18  1  0  0  0
 18 19  1  0  0  0
  5  9  1  0  0  0
  9 10  1  0  0  0
  3 21  1  0  0  0
 21 22  1  0  0  0
 22 23  2  0  0  0
 23 24  1  0  0  0
 24 25  2  0  0  0
 25 26  1  0  0  0
 26 27  2  0  0  0
 27 28  1  0  0  0
 28 29  2  0  0  0
 29 30  1  0  0  0
 30 31  2  0  0  0
 31 32  1  0  0  0
 32 33  2  0  0  0
 33 34  1  0  0  0
 34 35  2  0  0  0
 35 36  1  0  0  0
 36 37  2  0  0  0
  6  1  1  0  0  0
 27 22  1  0  0  0
 31 26  1  0  0  0
 37 32  1  0  0  0
 12 13  1  0  0  0
 16 17  1  0  0  0
 19 20  1  0  0  0
M  END
>  <minimizedAffinity>
-2.61536

>  <minimizedRMSD>
2.47618

$$$$
CHEMBL4114591 PubChem-118322776


 32 35  0  0  0  0  0  0  0  0999 V2000
   16.0241   -9.9794    9.8856 C   0  0  0  0  0  0  0  0  0  0  0  0
   14.9187  -10.4661    9.5261 O   0  0  0  0  0  0  0  0  0  0  0  0
   16.9086   -9.3951    8.8591 C   0  0  0  0  0  0  0  0  0  0  0  0
   16.7949   -9.7025    7.5417 N   0  0  0  0  0  0  0  0  0  0  0  0
   17.7170   -9.0394    6.7991 C   0  0  0  0  0  0  0  0  0  0  0  0
   18.5628   -8.2079    7.5111 C   0  0  0  0  0  0  0  0  0  0  0  0
   18.1648   -8.2848    9.1365 S   0  0  0  0  0  0  0  0  0  0  0  0
   19.5608   -7.4600    6.8951 C   0  0  0  0  0  0  0  0  0  0  0  0
   19.7082   -7.5592    5.4958 C   0  0  0  0  0  0  0  0  0  0  0  0
   18.8417   -8.4107    4.7689 C   0  0  0  0  0  0  0  0  0  0  0  0
   17.8420   -9.1550    5.4164 C   0  0  0  0  0  0  0  0  0  0  0  0
   20.7577   -6.7813    4.7950 C   0  0  0  0  0  0  0  0  0  0  0  0
   21.8727   -7.4271    4.2346 C   0  0  0  0  0  0  0  0  0  0  0  0
   22.8623   -6.6939    3.5737 C   0  0  0  0  0  0  0  0  0  0  0  0
   22.7484   -5.3059    3.4657 C   0  0  0  0  0  0  0  0  0  0  0  0
   21.6453   -4.6511    4.0182 C   0  0  0  0  0  0  0  0  0  0  0  0
   20.6557   -5.3845    4.6789 C   0  0  0  0  0  0  0  0  0  0  0  0
   17.3689  -10.3918   13.1062 C   0  0  0  0  0  0  0  0  0  0  0  0
   16.2707   -9.6839   13.4260 N   0  0  0  0  0  0  0  0  0  0  0  0
   15.6413   -9.4453   12.2859 N   0  0  0  0  0  0  0  0  0  0  0  0
   16.3806  -10.0168   11.3148 C   0  0  0  0  0  0  0  0  0  0  0  0
   17.4439  -10.6000   11.8139 O   0  0  0  0  0  0  0  0  0  0  0  0
   19.2223  -11.9648   13.4937 C   0  0  0  0  0  0  0  0  0  0  0  0
   18.3718  -10.8678   14.1028 C   0  0  0  0  0  0  0  0  0  0  0  0
   19.2255   -9.7641   14.5146 N   0  0  0  0  0  0  0  0  0  0  0  0
   19.2376   -9.0469   13.7894 H   0  0  0  0  0  0  0  0  0  0  0  0
   18.5806   -9.1058   15.9816 S   0  0  0  0  0  0  0  0  0  0  0  0
   17.4827   -8.1298   15.6641 O   0  0  0  0  0  0  0  0  0  0  0  0
   19.6745   -8.3946   16.7259 O   0  0  0  0  0  0  0  0  0  0  0  0
   17.9538  -10.3771   16.9703 N   0  0  0  0  0  0  0  0  0  0  0  0
   17.2104  -10.8629   16.4685 H   0  0  0  0  0  0  0  0  0  0  0  0
   17.5802   -9.9834   17.8339 H   0  0  0  0  0  0  0  0  0  0  0  0
 24 23  1  0  0  0
 24 18  1  0  0  0
 18 19  2  0  0  0
 19 20  1  0  0  0
 20 21  2  0  0  0
 21 22  1  0  0  0
 21  1  1  0  0  0
  1  2  2  0  0  0
  1  3  1  0  0  0
  3  4  2  0  0  0
  4  5  1  0  0  0
  5  6  2  0  0  0
  6  7  1  0  0  0
  6  8  1  0  0  0
  8  9  2  0  0  0
  9 10  1  0  0  0
 10 11  2  0  0  0
  9 12  1  0  0  0
 12 13  2  0  0  0
 13 14  1  0  0  0
 14 15  2  0  0  0
 15 16  1  0  0  0
 16 17  2  0  0  0
 24 25  1  0  0  0
 25 27  1  0  0  0
 27 28  2  0  0  0
 27 29  2  0  0  0
 27 30  1  0  0  0
 22 18  1  0  0  0
  7  3  1  0  0  0
 11  5  1  0  0  0
 17 12  1  0  0  0
 25 26  1  0  0  0
 30 31  1  0  0  0
 30 32  1  0  0  0
M  END
>  <minimizedAffinity>
-7.69299

>  <minimizedRMSD>
2.47631

$$$$
CHEMBL4114591 PubChem-118322776


 32 35  0  0  0  0  0  0  0  0999 V2000
   16.0240   -9.9792    9.8855 C   0  0  0  0  0  0  0  0  0  0  0  0
   14.9186  -10.4656    9.5261 O   0  0  0  0  0  0  0  0  0  0  0  0
   16.9087   -9.3950    8.8591 C   0  0  0  0  0  0  0  0  0  0  0  0
   16.7952   -9.7026    7.5418 N   0  0  0  0  0  0  0  0  0  0  0  0
   17.7173   -9.0397    6.7991 C   0  0  0  0  0  0  0  0  0  0  0  0
   18.5630   -8.2080    7.5111 C   0  0  0  0  0  0  0  0  0  0  0  0
   18.1650   -8.2848    9.1364 S   0  0  0  0  0  0  0  0  0  0  0  0
   19.5608   -7.4598    6.8951 C   0  0  0  0  0  0  0  0  0  0  0  0
   19.7081   -7.5590    5.4958 C   0  0  0  0  0  0  0  0  0  0  0  0
   18.8419   -8.4109    4.7689 C   0  0  0  0  0  0  0  0  0  0  0  0
   17.8425   -9.1554    5.4164 C   0  0  0  0  0  0  0  0  0  0  0  0
   20.7573   -6.7807    4.7948 C   0  0  0  0  0  0  0  0  0  0  0  0
   20.6549   -5.3840    4.6789 C   0  0  0  0  0  0  0  0  0  0  0  0
   21.6444   -4.6502    4.0185 C   0  0  0  0  0  0  0  0  0  0  0  0
   22.7479   -5.3047    3.4660 C   0  0  0  0  0  0  0  0  0  0  0  0
   22.8621   -6.6927    3.5738 C   0  0  0  0  0  0  0  0  0  0  0  0
   21.8726   -7.4263    4.2344 C   0  0  0  0  0  0  0  0  0  0  0  0
   17.3688  -10.3917   13.1061 C   0  0  0  0  0  0  0  0  0  0  0  0
   16.2705   -9.6840   13.4260 N   0  0  0  0  0  0  0  0  0  0  0  0
   15.6410   -9.4454   12.2859 N   0  0  0  0  0  0  0  0  0  0  0  0
   16.3805  -10.0167   11.3148 C   0  0  0  0  0  0  0  0  0  0  0  0
   17.4440  -10.5999   11.8138 O   0  0  0  0  0  0  0  0  0  0  0  0
   19.2222  -11.9648   13.4935 C   0  0  0  0  0  0  0  0  0  0  0  0
   18.3718  -10.8679   14.1027 C   0  0  0  0  0  0  0  0  0  0  0  0
   19.2255   -9.7641   14.5145 N   0  0  0  0  0  0  0  0  0  0  0  0
   19.2376   -9.0469   13.7893 H   0  0  0  0  0  0  0  0  0  0  0  0
   18.5807   -9.1058   15.9815 S   0  0  0  0  0  0  0  0  0  0  0  0
   17.4826   -8.1298   15.6640 O   0  0  0  0  0  0  0  0  0  0  0  0
   19.6746   -8.3946   16.7257 O   0  0  0  0  0  0  0  0  0  0  0  0
   17.9539  -10.3771   16.9703 N   0  0  0  0  0  0  0  0  0  0  0  0
   17.2104  -10.8629   16.4686 H   0  0  0  0  0  0  0  0  0  0  0  0
   17.5803   -9.9834   17.8339 H   0  0  0  0  0  0  0  0  0  0  0  0
 24 23  1  0  0  0
 24 18  1  0  0  0
 18 19  2  0  0  0
 19 20  1  0  0  0
 20 21  2  0  0  0
 21 22  1  0  0  0
 21  1  1  0  0  0
  1  2  2  0  0  0
  1  3  1  0  0  0
  3  4  2  0  0  0
  4  5  1  0  0  0
  5  6  2  0  0  0
  6  7  1  0  0  0
  6  8  1  0  0  0
  8  9  2  0  0  0
  9 10  1  0  0  0
 10 11  2  0  0  0
  9 12  1  0  0  0
 12 13  2  0  0  0
 13 14  1  0  0  0
 14 15  2  0  0  0
 15 16  1  0  0  0
 16 17  2  0  0  0
 24 25  1  0  0  0
 25 27  1  0  0  0
 27 28  2  0  0  0
 27 29  2  0  0  0
 27 30  1  0  0  0
 22 18  1  0  0  0
  7  3  1  0  0  0
 11  5  1  0  0  0
 17 12  1  0  0  0
 25 26  1  0  0  0
 30 31  1  0  0  0
 30 32  1  0  0  0
M  END
>  <minimizedAffinity>
-7.69284

>  <minimizedRMSD>
2.47632

$$$$
CHEMBL1397403 8761904 CSC026364662 MCULE-4966999585 MolPort-004-582-848 PubChem-16323484 Z29903555 ZINC000008761904


 28 30  0  0  0  0  0  0  0  0999 V2000
   17.0856   -9.2167   15.8436 C   0  0  0  0  0  0  0  0  0  0  0  0
   17.0492   -8.8840   14.3924 C   0  0  0  0  0  0  0  0  0  0  0  0
   17.7087   -9.7449   13.4594 N   0  0  0  0  0  0  0  0  0  0  0  0
   16.4833   -7.8269   14.0038 O   0  0  0  0  0  0  0  0  0  0  0  0
   18.3152  -10.4302   13.8225 H   0  0  0  0  0  0  0  0  0  0  0  0
   17.5530   -9.6851   12.0348 C   0  0  0  0  0  0  0  0  0  0  0  0
   16.3045   -9.8691   11.3963 C   0  0  0  0  0  0  0  0  0  0  0  0
   16.2252   -9.8067    9.9842 C   0  0  0  0  0  0  0  0  0  0  0  0
   15.0310   -9.9857    9.3583 N   0  0  0  0  0  0  0  0  0  0  0  0
   13.8915  -10.2417   10.0543 C   0  0  0  0  0  0  0  0  0  0  0  0
   13.9248  -10.3340   11.4465 C   0  0  0  0  0  0  0  0  0  0  0  0
   15.1357  -10.1516   12.1146 C   0  0  0  0  0  0  0  0  0  0  0  0
   17.3774   -9.5848    9.2277 C   0  0  0  0  0  0  0  0  0  0  0  0
   18.6118   -9.4338    9.8610 C   0  0  0  0  0  0  0  0  0  0  0  0
   18.6979   -9.4917   11.2539 C   0  0  0  0  0  0  0  0  0  0  0  0
   15.4292   -9.6946   16.4276 S   0  0  0  0  0  0  0  0  0  0  0  0
   14.9486   -7.9842   16.8202 C   0  0  0  0  0  0  0  0  0  0  0  0
   14.0622   -7.1774   19.0393 N   0  0  0  0  0  0  0  0  0  0  0  0
   15.1468   -7.7137   18.2704 C   0  0  0  0  0  0  0  0  0  0  0  0
   16.2560   -7.9827   18.8027 O   0  0  0  0  0  0  0  0  0  0  0  0
   13.2252   -6.9946   18.5543 H   0  0  0  0  0  0  0  0  0  0  0  0
   13.2879   -4.0415   22.8283 C   0  0  0  0  0  0  0  0  0  0  0  0
   13.7028   -5.3718   22.3123 C   0  0  0  0  0  0  0  0  0  0  0  0
   13.6806   -5.6262   20.9380 C   0  0  0  0  0  0  0  0  0  0  0  0
   14.0707   -6.8798   20.4420 C   0  0  0  0  0  0  0  0  0  0  0  0
   14.4826   -7.8723   21.3386 C   0  0  0  0  0  0  0  0  0  0  0  0
   14.5052   -7.6192   22.7135 C   0  0  0  0  0  0  0  0  0  0  0  0
   14.1152   -6.3687   23.2004 C   0  0  0  0  0  0  0  0  0  0  0  0
 22 23  1  0  0  0
 23 24  2  0  0  0
 24 25  1  0  0  0
 25 18  1  0  0  0
 18 19  1  0  0  0
 19 17  1  0  0  0
 17 16  1  0  0  0
 16  1  1  0  0  0
  1  2  1  0  0  0
  2  3  1  0  0  0
  3  6  1  0  0  0
  6  7  1  0  0  0
  7  8  1  0  0  0
  8  9  2  0  0  0
  9 10  1  0  0  0
 10 11  2  0  0  0
 11 12  1  0  0  0
  8 13  1  0  0  0
 13 14  2  0  0  0
 14 15  1  0  0  0
  2  4  2  0  0  0
 19 20  2  0  0  0
 25 26  2  0  0  0
 26 27  1  0  0  0
 27 28  2  0  0  0
 28 23  1  0  0  0
 15  6  2  0  0  0
 12  7  2  0  0  0
 18 21  1  0  0  0
  3  5  1  0  0  0
M  END
>  <minimizedAffinity>
-3.50590

>  <minimizedRMSD>
2.47766

$$$$
CHEMBL2235543 PubChem-25108446


 29 32  0  0  0  0  0  0  0  0999 V2000
   16.8400   -9.9770   14.4584 C   0  0  0  0  0  0  0  0  0  0  0  0
   15.9357   -9.2778   13.7480 N   0  0  0  0  0  0  0  0  0  0  0  0
   16.4161   -9.1984   12.5168 N   0  0  0  0  0  0  0  0  0  0  0  0
   17.5901   -9.8567   12.5297 C   0  0  0  0  0  0  0  0  0  0  0  0
   17.8605  -10.3353   13.7191 O   0  0  0  0  0  0  0  0  0  0  0  0
   16.6681  -10.3625   16.1938 S   0  0  0  0  0  0  0  0  0  0  0  0
   15.6820   -8.8659   16.5004 C   0  0  0  0  0  0  0  0  0  0  0  0
   16.1171   -8.1972   17.7935 C   0  0  0  0  0  0  0  0  0  0  0  0
   13.9439   -7.2335   17.7968 O   0  0  0  0  0  0  0  0  0  0  0  0
   14.9539   -7.5616   18.4744 C   0  0  0  0  0  0  0  0  0  0  0  0
   14.9954   -7.3611   19.8933 N   0  0  0  0  0  0  0  0  0  0  0  0
   15.8205   -7.6375   20.3539 H   0  0  0  0  0  0  0  0  0  0  0  0
   13.9601   -6.7998   20.7114 C   0  0  0  0  0  0  0  0  0  0  0  0
   12.7807   -6.2741   20.1609 C   0  0  0  0  0  0  0  0  0  0  0  0
   11.7926   -5.7355   20.9900 C   0  0  0  0  0  0  0  0  0  0  0  0
   11.9769   -5.7187   22.3750 C   0  0  0  0  0  0  0  0  0  0  0  0
   10.7408   -5.0443   23.4141 Cl  0  0  0  0  0  0  0  0  0  0  0  0
   13.1482   -6.2411   22.9302 C   0  0  0  0  0  0  0  0  0  0  0  0
   14.1355   -6.7797   22.0997 C   0  0  0  0  0  0  0  0  0  0  0  0
   18.4889   -9.9848   11.3492 C   0  0  0  0  0  0  0  0  0  0  0  0
   17.7457   -9.7068   10.1299 N   0  0  0  0  0  0  0  0  0  0  0  0
   16.5515  -10.2114    9.8373 N   0  0  0  0  0  0  0  0  0  0  0  0
   16.0997   -9.7240    8.6815 N   0  0  0  0  0  0  0  0  0  0  0  0
   17.0509   -8.8767    8.2464 C   0  0  0  0  0  0  0  0  0  0  0  0
   17.0633   -8.0956    7.0953 C   0  0  0  0  0  0  0  0  0  0  0  0
   18.1904   -7.2744    6.8920 C   0  0  0  0  0  0  0  0  0  0  0  0
   19.2508   -7.2569    7.8301 C   0  0  0  0  0  0  0  0  0  0  0  0
   19.2014   -8.0612    8.9854 C   0  0  0  0  0  0  0  0  0  0  0  0
   18.0718   -8.8600    9.1450 C   0  0  0  0  0  0  0  0  0  0  0  0
  9 10  2  0  0  0
 10  8  1  0  0  0
 10 11  1  0  0  0
  8  7  1  0  0  0
  7  6  1  0  0  0
  6  1  1  0  0  0
  1  2  2  0  0  0
  2  3  1  0  0  0
  3  4  2  0  0  0
  4 20  1  0  0  0
  4  5  1  0  0  0
 20 21  1  0  0  0
 21 22  1  0  0  0
 22 23  2  0  0  0
 23 24  1  0  0  0
 24 25  2  0  0  0
 25 26  1  0  0  0
 26 27  2  0  0  0
 27 28  1  0  0  0
 28 29  2  0  0  0
 29 21  1  0  0  0
 29 24  1  0  0  0
  5  1  1  0  0  0
 11 13  1  0  0  0
 13 14  2  0  0  0
 14 15  1  0  0  0
 15 16  2  0  0  0
 16 17  1  0  0  0
 16 18  1  0  0  0
 18 19  2  0  0  0
 19 13  1  0  0  0
 11 12  1  0  0  0
M  END
>  <minimizedAffinity>
-8.23605

>  <minimizedRMSD>
2.47852

$$$$
CHEMBL152845 PubChem-10862650


 31 33  0  0  0  0  0  0  0  0999 V2000
   15.8239   -8.3665   13.0393 C   0  0  0  0  0  0  0  0  0  0  0  0
   16.0296   -8.8097   14.4085 N   0  0  0  0  0  0  0  0  0  0  0  0
   15.1798   -7.9729   15.2581 C   0  0  0  0  0  0  0  0  0  0  0  0
   15.4791   -8.1991   16.7490 C   0  0  0  0  0  0  0  0  0  0  0  0
   16.4975   -9.2341   16.9312 N   0  0  0  0  0  0  0  0  0  0  0  0
   17.7142   -8.8306   16.2245 C   0  0  0  0  0  0  0  0  0  0  0  0
   17.4324   -8.5505   14.7402 C   0  0  0  0  0  0  0  0  0  0  0  0
   16.8225   -9.2790   18.3472 C   0  0  0  0  0  0  0  0  0  0  0  0
   16.8166  -10.7167   18.8497 C   0  0  0  0  0  0  0  0  0  0  0  0
   17.8329  -11.5638   18.1004 C   0  0  0  0  0  0  0  0  0  0  0  0
   17.4715  -11.6514   16.6940 N   0  0  0  0  0  0  0  0  0  0  0  0
   18.2351  -12.4131   15.7598 C   0  0  0  0  0  0  0  0  0  0  0  0
   19.2599  -13.0449   16.1319 O   0  0  0  0  0  0  0  0  0  0  0  0
   16.6740  -11.1693   16.3764 H   0  0  0  0  0  0  0  0  0  0  0  0
   17.8394  -12.4280   14.3267 C   0  0  0  0  0  0  0  0  0  0  0  0
   19.0269  -12.0598   13.4599 C   0  0  0  0  0  0  0  0  0  0  0  0
   16.1199   -9.5006   12.0680 C   0  0  0  0  0  0  0  0  0  0  0  0
   17.6172   -9.7533   11.9524 C   0  0  0  0  0  0  0  0  0  0  0  0
   18.1669   -9.0551   10.7967 N   0  0  0  0  0  0  0  0  0  0  0  0
   18.8807   -8.3946   10.9498 H   0  0  0  0  0  0  0  0  0  0  0  0
   18.3839   -8.6464    8.3792 C   0  0  0  0  0  0  0  0  0  0  0  0
   17.9389   -8.8919    7.0593 C   0  0  0  0  0  0  0  0  0  0  0  0
   18.5817   -8.2790    5.9804 C   0  0  0  0  0  0  0  0  0  0  0  0
   19.6637   -7.4226    6.2040 C   0  0  0  0  0  0  0  0  0  0  0  0
   20.1064   -7.1755    7.5068 C   0  0  0  0  0  0  0  0  0  0  0  0
   19.4692   -7.7842    8.5915 C   0  0  0  0  0  0  0  0  0  0  0  0
   20.4688   -6.6611    4.8505 Cl  0  0  0  0  0  0  0  0  0  0  0  0
   16.8885   -9.7254    6.8385 N   0  0  0  0  0  0  0  0  0  0  0  0
   16.2417  -10.3420    7.8627 C   0  0  0  0  0  0  0  0  0  0  0  0
   16.6493  -10.1298    9.1810 C   0  0  0  0  0  0  0  0  0  0  0  0
   17.7273   -9.2755    9.4495 C   0  0  0  0  0  0  0  0  0  0  0  0
 21 22  1  0  0  0
 22 23  2  0  0  0
 23 24  1  0  0  0
 24 25  2  0  0  0
 25 26  1  0  0  0
 24 27  1  0  0  0
 22 28  1  0  0  0
 28 29  2  0  0  0
 29 30  1  0  0  0
 30 31  2  0  0  0
 31 19  1  0  0  0
 19 18  1  0  0  0
 18 17  1  0  0  0
 17  1  1  0  0  0
  1  2  1  0  0  0
  2  3  1  0  0  0
  3  4  1  0  0  0
  4  5  1  0  0  0
  5  6  1  0  0  0
  6  7  1  0  0  0
  5  8  1  0  0  0
  8  9  1  0  0  0
  9 10  1  0  0  0
 10 11  1  0  0  0
 11 12  1  0  0  0
 12 13  2  0  0  0
 12 15  1  0  0  0
 15 16  1  0  0  0
 26 21  2  0  0  0
  7  2  1  0  0  0
 31 21  1  0  0  0
 19 20  1  0  0  0
 11 14  1  0  0  0
M  END
>  <minimizedAffinity>
0.77813

>  <minimizedRMSD>
2.48074

$$$$
CHEMBL4964828 77337338 MCULE-6271181415 MolPort-023-252-401 PubChem-70718994 ZINC000077337338


 27 29  0  0  0  0  0  0  0  0999 V2000
   16.7839  -10.2347   12.9254 C   0  0  0  0  0  0  0  0  0  0  0  0
   15.5384  -10.0518   12.8548 O   0  0  0  0  0  0  0  0  0  0  0  0
   17.5970  -10.1286   11.7443 N   0  0  0  0  0  0  0  0  0  0  0  0
   19.0376  -10.3166   11.8121 C   0  0  0  0  0  0  0  0  0  0  0  0
   17.3945  -10.5866   14.2486 C   0  0  0  0  0  0  0  0  0  0  0  0
   16.8209   -9.7437   15.3541 C   0  0  0  0  0  0  0  0  0  0  0  0
   16.8882  -10.1676   16.6931 C   0  0  0  0  0  0  0  0  0  0  0  0
   17.5509  -11.4498   17.0707 C   0  0  0  0  0  0  0  0  0  0  0  0
   16.3464   -9.3992   17.6731 N   0  0  0  0  0  0  0  0  0  0  0  0
   15.7356   -8.2219   17.3860 C   0  0  0  0  0  0  0  0  0  0  0  0
   15.6587   -7.7912   16.1014 N   0  0  0  0  0  0  0  0  0  0  0  0
   16.1833   -8.5200   15.0824 C   0  0  0  0  0  0  0  0  0  0  0  0
   16.0724   -7.9907   13.6927 C   0  0  0  0  0  0  0  0  0  0  0  0
   15.1770   -7.4378   18.4327 N   0  0  0  0  0  0  0  0  0  0  0  0
   15.2324   -7.7497   19.3648 H   0  0  0  0  0  0  0  0  0  0  0  0
   14.7348   -6.5830   18.2251 H   0  0  0  0  0  0  0  0  0  0  0  0
   17.0231   -9.7452   10.4592 C   0  0  0  0  0  0  0  0  0  0  0  0
   18.0061   -8.9548    9.6470 C   0  0  0  0  0  0  0  0  0  0  0  0
   19.0151   -8.2429   10.3090 C   0  0  0  0  0  0  0  0  0  0  0  0
   19.9490   -7.4952    9.5869 C   0  0  0  0  0  0  0  0  0  0  0  0
   19.8831   -7.4481    8.1929 C   0  0  0  0  0  0  0  0  0  0  0  0
   18.8801   -8.1467    7.5182 C   0  0  0  0  0  0  0  0  0  0  0  0
   18.8059   -8.0997    6.1251 C   0  0  0  0  0  0  0  0  0  0  0  0
   17.8242   -8.7770    5.4714 N   0  0  0  0  0  0  0  0  0  0  0  0
   16.8950   -9.5110    6.1408 C   0  0  0  0  0  0  0  0  0  0  0  0
   16.9300   -9.5875    7.5348 C   0  0  0  0  0  0  0  0  0  0  0  0
   17.9296   -8.9044    8.2403 C   0  0  0  0  0  0  0  0  0  0  0  0
  6  7  2  0  0  0
  7  8  1  0  0  0
  7  9  1  0  0  0
  9 10  2  0  0  0
 10 11  1  0  0  0
 11 12  2  0  0  0
 12 13  1  0  0  0
 10 14  1  0  0  0
  6  5  1  0  0  0
  5  1  1  0  0  0
  1  2  2  0  0  0
  1  3  1  0  0  0
  3  4  1  0  0  0
  3 17  1  0  0  0
 17 18  1  0  0  0
 18 19  2  0  0  0
 19 20  1  0  0  0
 20 21  2  0  0  0
 21 22  1  0  0  0
 22 23  2  0  0  0
 23 24  1  0  0  0
 24 25  2  0  0  0
 25 26  1  0  0  0
 26 27  2  0  0  0
 12  6  1  0  0  0
 27 18  1  0  0  0
 27 22  1  0  0  0
 14 15  1  0  0  0
 14 16  1  0  0  0
M  END
>  <minimizedAffinity>
-3.91059

>  <minimizedRMSD>
2.48105

$$$$
CHEMBL1783006 PubChem-136000556


 41 43  0  0  0  0  0  0  0  0999 V2000
   17.6101  -11.5938   14.6989 C   0  0  0  0  0  0  0  0  0  0  0  0
   16.7816  -10.7222   13.8755 N   0  0  0  0  0  0  0  0  0  0  0  0
   16.9214  -10.6608   12.4562 C   0  0  0  0  0  0  0  0  0  0  0  0
   17.7425  -11.4068   11.8589 O   0  0  0  0  0  0  0  0  0  0  0  0
   16.1037  -10.1576   14.3123 H   0  0  0  0  0  0  0  0  0  0  0  0
   16.1051   -9.6846   11.6802 C   0  0  0  0  0  0  0  0  0  0  0  0
   16.0130  -10.0824   10.2131 C   0  0  0  0  0  0  0  0  0  0  0  0
   17.0392   -9.3834    9.3845 C   0  0  0  0  0  0  0  0  0  0  0  0
   16.9473   -9.4213    8.0288 N   0  0  0  0  0  0  0  0  0  0  0  0
   17.8823   -8.8195    7.2489 C   0  0  0  0  0  0  0  0  0  0  0  0
   17.7733   -8.8715    5.8561 C   0  0  0  0  0  0  0  0  0  0  0  0
   18.7405   -8.2543    5.0552 C   0  0  0  0  0  0  0  0  0  0  0  0
   19.8173   -7.5829    5.6438 C   0  0  0  0  0  0  0  0  0  0  0  0
   19.9323   -7.5268    7.0366 C   0  0  0  0  0  0  0  0  0  0  0  0
   18.9676   -8.1448    7.8456 C   0  0  0  0  0  0  0  0  0  0  0  0
   19.0428   -8.1226    9.2451 C   0  0  0  0  0  0  0  0  0  0  0  0
   19.9916   -7.5362    9.8319 O   0  0  0  0  0  0  0  0  0  0  0  0
   18.0833   -8.7446    9.9792 N   0  0  0  0  0  0  0  0  0  0  0  0
   18.1448   -8.7329   10.9618 H   0  0  0  0  0  0  0  0  0  0  0  0
   17.3191  -11.4248   16.1592 C   0  0  0  0  0  0  0  0  0  0  0  0
   16.2466  -10.8904   16.5475 O   0  0  0  0  0  0  0  0  0  0  0  0
   18.2501  -11.8509   17.0962 O   0  0  0  0  0  0  0  0  0  0  0  0
   19.0499  -12.2493   16.8143 H   0  0  0  0  0  0  0  0  0  0  0  0
   19.0935  -11.4163   14.3703 C   0  0  0  0  0  0  0  0  0  0  0  0
   19.5701   -9.9681   14.4785 C   0  0  0  0  0  0  0  0  0  0  0  0
   18.5013   -9.0630   15.0698 C   0  0  0  0  0  0  0  0  0  0  0  0
   19.0163   -8.3763   16.3232 C   0  0  0  0  0  0  0  0  0  0  0  0
   15.8903   -8.2331   18.5220 N   0  0  0  0  0  0  0  0  0  0  0  0
   16.7660   -7.9735   17.4171 C   0  0  0  0  0  0  0  0  0  0  0  0
   16.4021   -7.2362   16.4608 O   0  0  0  0  0  0  0  0  0  0  0  0
   18.0702   -8.5587   17.4154 N   0  0  0  0  0  0  0  0  0  0  0  0
   16.2466   -8.8017   19.2424 H   0  0  0  0  0  0  0  0  0  0  0  0
   18.3406   -9.1087   18.1859 H   0  0  0  0  0  0  0  0  0  0  0  0
   11.9265   -6.8221   19.0971 C   0  0  0  0  0  0  0  0  0  0  0  0
   12.7480   -7.1231   20.1889 C   0  0  0  0  0  0  0  0  0  0  0  0
   14.0513   -7.5856   19.9851 C   0  0  0  0  0  0  0  0  0  0  0  0
   14.5503   -7.7516   18.6880 C   0  0  0  0  0  0  0  0  0  0  0  0
   13.7267   -7.4515   17.5920 C   0  0  0  0  0  0  0  0  0  0  0  0
   12.4235   -6.9897   17.7940 C   0  0  0  0  0  0  0  0  0  0  0  0
   10.3566   -5.1787   20.0788 C   0  0  0  0  0  0  0  0  0  0  0  0
   10.6282   -6.3601   19.3343 O   0  0  0  0  0  0  0  0  0  0  0  0
 40 41  1  0  0  0
 41 34  1  0  0  0
 34 35  2  0  0  0
 35 36  1  0  0  0
 36 37  2  0  0  0
 37 28  1  0  0  0
 37 38  1  0  0  0
 28 29  1  0  0  0
 29 30  2  0  0  0
 29 31  1  0  0  0
 31 27  1  0  0  0
 27 26  1  0  0  0
 26 25  1  0  0  0
 25 24  1  0  0  0
  1 24  1  0  0  0
  1  2  1  0  0  0
  1 20  1  0  0  0
  2  3  1  0  0  0
  3  4  2  0  0  0
  3  6  1  0  0  0
  6  7  1  0  0  0
  7  8  1  0  0  0
  8  9  2  0  0  0
  9 10  1  0  0  0
 10 11  2  0  0  0
 11 12  1  0  0  0
 12 13  2  0  0  0
 13 14  1  0  0  0
 14 15  2  0  0  0
 15 16  1  0  0  0
 15 10  1  0  0  0
 16 17  2  0  0  0
 16 18  1  0  0  0
 18  8  1  0  0  0
 20 21  2  0  0  0
 20 22  1  0  0  0
 38 39  2  0  0  0
 39 34  1  0  0  0
 28 32  1  0  0  0
 31 33  1  0  0  0
  2  5  1  0  0  0
 18 19  1  0  0  0
 22 23  1  0  0  0
M  END
>  <minimizedAffinity>
-5.41657

>  <minimizedRMSD>
2.48244

$$$$
CHEMBL4174004 PubChem-134812637


 31 33  0  0  0  0  0  0  0  0999 V2000
   16.7445  -10.0517   11.7955 N   0  0  0  0  0  0  0  0  0  0  0  0
   17.5748   -9.7903   10.6619 C   0  0  0  0  0  0  0  0  0  0  0  0
   18.7677  -10.1942   10.6320 O   0  0  0  0  0  0  0  0  0  0  0  0
   15.8038   -9.7627   11.7658 H   0  0  0  0  0  0  0  0  0  0  0  0
   17.2275  -10.7268   12.9934 C   0  0  0  0  0  0  0  0  0  0  0  0
   18.0617   -9.7823   13.8509 C   0  0  0  0  0  0  0  0  0  0  0  0
   17.4532   -9.8115   16.2817 C   0  0  0  0  0  0  0  0  0  0  0  0
   16.6979   -9.3390   17.3589 C   0  0  0  0  0  0  0  0  0  0  0  0
   15.7542   -8.3242   17.1632 C   0  0  0  0  0  0  0  0  0  0  0  0
   15.5725   -7.7800   15.8869 C   0  0  0  0  0  0  0  0  0  0  0  0
   16.3275   -8.2519   14.8093 C   0  0  0  0  0  0  0  0  0  0  0  0
   17.2708   -9.2666   15.0057 C   0  0  0  0  0  0  0  0  0  0  0  0
   14.8146   -7.7235   18.5172 S   0  0  0  0  0  0  0  0  0  0  0  0
   13.9892   -6.5468   18.0783 O   0  0  0  0  0  0  0  0  0  0  0  0
   13.8957   -8.8034   19.0151 O   0  0  0  0  0  0  0  0  0  0  0  0
   15.8784   -7.2398   19.7889 N   0  0  0  0  0  0  0  0  0  0  0  0
   16.5018   -6.5069   19.4504 H   0  0  0  0  0  0  0  0  0  0  0  0
   16.4303   -8.0416   20.0939 H   0  0  0  0  0  0  0  0  0  0  0  0
   17.0118   -9.0671    9.4876 C   0  0  0  0  0  0  0  0  0  0  0  0
   18.0734   -8.3836    8.7650 N   0  0  0  0  0  0  0  0  0  0  0  0
   19.1071   -7.6817    9.2944 C   0  0  0  0  0  0  0  0  0  0  0  0
   19.9617   -7.2140    8.3397 N   0  0  0  0  0  0  0  0  0  0  0  0
   19.4176   -7.6640    7.1930 C   0  0  0  0  0  0  0  0  0  0  0  0
   18.2929   -8.3656    7.4477 C   0  0  0  0  0  0  0  0  0  0  0  0
   17.5531   -8.9471    6.4724 N   0  0  0  0  0  0  0  0  0  0  0  0
   17.9767   -8.8027    5.1797 C   0  0  0  0  0  0  0  0  0  0  0  0
   19.1161   -8.0921    4.8942 N   0  0  0  0  0  0  0  0  0  0  0  0
   19.8562   -7.5124    5.8855 C   0  0  0  0  0  0  0  0  0  0  0  0
   21.0385   -6.7824    5.5781 N   0  0  0  0  0  0  0  0  0  0  0  0
   21.3297   -6.6885    4.6423 H   0  0  0  0  0  0  0  0  0  0  0  0
   21.5653   -6.3714    6.3011 H   0  0  0  0  0  0  0  0  0  0  0  0
  7  8  2  0  0  0
  8  9  1  0  0  0
  9 10  2  0  0  0
 10 11  1  0  0  0
 11 12  2  0  0  0
 12  6  1  0  0  0
  6  5  1  0  0  0
  5  1  1  0  0  0
  1  2  1  0  0  0
  2  3  2  0  0  0
  2 19  1  0  0  0
 19 20  1  0  0  0
 20 21  1  0  0  0
 21 22  2  0  0  0
 22 23  1  0  0  0
 23 24  2  0  0  0
 24 25  1  0  0  0
 25 26  2  0  0  0
 26 27  1  0  0  0
 27 28  2  0  0  0
 28 29  1  0  0  0
  9 13  1  0  0  0
 13 14  2  0  0  0
 13 15  2  0  0  0
 13 16  1  0  0  0
 12  7  1  0  0  0
 24 20  1  0  0  0
 28 23  1  0  0  0
  1  4  1  0  0  0
 29 30  1  0  0  0
 29 31  1  0  0  0
 16 17  1  0  0  0
 16 18  1  0  0  0
M  END
>  <minimizedAffinity>
-3.98508

>  <minimizedRMSD>
2.48393

$$$$
CHEMBL1340869


 32 34  0  0  0  0  0  0  0  0999 V2000
   17.8095  -11.0246   14.5802 C   0  0  0  0  0  0  0  0  0  0  0  0
   17.8561   -9.6924   13.8502 C   0  0  0  0  0  0  0  0  0  0  0  0
   18.2990   -9.8906   12.4783 N   0  0  0  0  0  0  0  0  0  0  0  0
   19.2346  -10.1523   12.3187 H   0  0  0  0  0  0  0  0  0  0  0  0
   13.6136  -10.5789   10.4724 S   0  0  0  0  0  0  0  0  0  0  0  0
   15.2984  -10.0005   10.3526 C   0  0  0  0  0  0  0  0  0  0  0  0
   15.7331   -9.4130    9.2076 N   0  0  0  0  0  0  0  0  0  0  0  0
   17.0100   -8.9667    9.0965 C   0  0  0  0  0  0  0  0  0  0  0  0
   17.9026   -9.1114   10.1791 C   0  0  0  0  0  0  0  0  0  0  0  0
   17.4329   -9.7214   11.3500 C   0  0  0  0  0  0  0  0  0  0  0  0
   16.1419  -10.1496   11.4077 N   0  0  0  0  0  0  0  0  0  0  0  0
   19.2202   -8.6490   10.0596 C   0  0  0  0  0  0  0  0  0  0  0  0
   19.6452   -8.0470    8.8713 C   0  0  0  0  0  0  0  0  0  0  0  0
   18.7577   -7.9049    7.7997 C   0  0  0  0  0  0  0  0  0  0  0  0
   17.4417   -8.3639    7.9115 C   0  0  0  0  0  0  0  0  0  0  0  0
   12.9631  -10.3249    9.3054 H   0  0  0  0  0  0  0  0  0  0  0  0
   17.4891  -10.8112   16.0481 C   0  0  0  0  0  0  0  0  0  0  0  0
   17.6288   -9.3423   16.4129 C   0  0  0  0  0  0  0  0  0  0  0  0
   16.6547   -8.9791   17.5262 C   0  0  0  0  0  0  0  0  0  0  0  0
   15.4896   -8.1623   17.0519 C   0  0  0  0  0  0  0  0  0  0  0  0
   15.4745   -7.6623   15.8932 O   0  0  0  0  0  0  0  0  0  0  0  0
   14.3883   -7.9565   17.9386 N   0  0  0  0  0  0  0  0  0  0  0  0
   14.4112   -8.3849   18.8247 H   0  0  0  0  0  0  0  0  0  0  0  0
   13.2328   -7.1405   17.5894 C   0  0  0  0  0  0  0  0  0  0  0  0
   12.7630   -6.3673   18.7749 C   0  0  0  0  0  0  0  0  0  0  0  0
   13.2139   -6.7027   20.0559 C   0  0  0  0  0  0  0  0  0  0  0  0
   12.7821   -5.9684   21.1640 C   0  0  0  0  0  0  0  0  0  0  0  0
   11.8968   -4.8904   20.9978 C   0  0  0  0  0  0  0  0  0  0  0  0
   11.4519   -4.5588   19.7135 C   0  0  0  0  0  0  0  0  0  0  0  0
   11.8836   -5.2934   18.6050 C   0  0  0  0  0  0  0  0  0  0  0  0
   11.4466   -4.1368   22.0852 O   0  0  0  0  0  0  0  0  0  0  0  0
   11.6959   -4.5100   23.4336 C   0  0  0  0  0  0  0  0  0  0  0  0
  5  6  1  0  0  0
  6  7  2  0  0  0
  7  8  1  0  0  0
  8  9  2  0  0  0
  9 10  1  0  0  0
 10 11  2  0  0  0
 10  3  1  0  0  0
  3  2  1  0  0  0
  2  1  1  0  0  0
  1 17  1  0  0  0
 17 18  1  0  0  0
 18 19  1  0  0  0
 19 20  1  0  0  0
 20 21  2  0  0  0
 20 22  1  0  0  0
 22 24  1  0  0  0
 24 25  1  0  0  0
 25 26  2  0  0  0
 26 27  1  0  0  0
 27 28  2  0  0  0
 28 31  1  0  0  0
 31 32  1  0  0  0
 28 29  1  0  0  0
 29 30  2  0  0  0
  9 12  1  0  0  0
 12 13  2  0  0  0
 13 14  1  0  0  0
 14 15  2  0  0  0
 11  6  1  0  0  0
 30 25  1  0  0  0
 15  8  1  0  0  0
  5 16  1  0  0  0
  3  4  1  0  0  0
 22 23  1  0  0  0
M  END
>  <minimizedAffinity>
-6.65700

>  <minimizedRMSD>
2.49218

$$$$
CHEMBL3959627 PubChem-132961628


 36 38  0  0  0  0  0  0  0  0999 V2000
   16.9200   -8.8414   14.5295 C   0  0  0  0  0  0  0  0  0  0  0  0
   16.0043   -7.7936   14.6739 C   0  0  0  0  0  0  0  0  0  0  0  0
   15.4178   -7.5325   15.9156 C   0  0  0  0  0  0  0  0  0  0  0  0
   15.7429   -8.3203   17.0241 C   0  0  0  0  0  0  0  0  0  0  0  0
   16.6595   -9.3678   16.8874 C   0  0  0  0  0  0  0  0  0  0  0  0
   17.2454   -9.6273   15.6455 C   0  0  0  0  0  0  0  0  0  0  0  0
   18.3792  -10.1493   12.8774 C   0  0  0  0  0  0  0  0  0  0  0  0
   18.7075  -11.0352   13.7100 O   0  0  0  0  0  0  0  0  0  0  0  0
   17.5032   -9.0745   13.2407 N   0  0  0  0  0  0  0  0  0  0  0  0
   17.2788   -8.4294   12.5316 H   0  0  0  0  0  0  0  0  0  0  0  0
   18.9342  -10.2053   11.4939 C   0  0  0  0  0  0  0  0  0  0  0  0
   19.8211   -7.6669    8.1962 C   0  0  0  0  0  0  0  0  0  0  0  0
   18.8143   -7.3061    7.2969 C   0  0  0  0  0  0  0  0  0  0  0  0
   17.5135   -7.7846    7.4726 C   0  0  0  0  0  0  0  0  0  0  0  0
   17.2162   -8.6250    8.5490 C   0  0  0  0  0  0  0  0  0  0  0  0
   18.2251   -8.9955    9.4662 C   0  0  0  0  0  0  0  0  0  0  0  0
   19.5300   -8.5070    9.2745 C   0  0  0  0  0  0  0  0  0  0  0  0
   17.9110   -9.8214   10.5163 N   0  0  0  0  0  0  0  0  0  0  0  0
   16.6300  -10.2852   10.6688 C   0  0  0  0  0  0  0  0  0  0  0  0
   16.3375  -11.0507   11.6300 O   0  0  0  0  0  0  0  0  0  0  0  0
   15.6368   -9.9089    9.7506 C   0  0  0  0  0  0  0  0  0  0  0  0
   15.9543   -9.0901    8.7168 N   0  0  0  0  0  0  0  0  0  0  0  0
   14.2333  -10.3932    9.8890 C   0  0  0  0  0  0  0  0  0  0  0  0
   15.0138   -7.9780   18.5827 S   0  0  0  0  0  0  0  0  0  0  0  0
   15.7508   -6.8637   19.2723 O   0  0  0  0  0  0  0  0  0  0  0  0
   15.0855   -9.2092   19.4409 O   0  0  0  0  0  0  0  0  0  0  0  0
   13.3572   -7.5236   18.3675 N   0  0  0  0  0  0  0  0  0  0  0  0
   12.6259   -6.8009   19.3580 C   0  0  0  0  0  0  0  0  0  0  0  0
   13.1782   -6.4675   20.4419 O   0  0  0  0  0  0  0  0  0  0  0  0
   11.2621   -6.4567   19.1076 N   0  0  0  0  0  0  0  0  0  0  0  0
   12.9023   -7.7730   17.5307 H   0  0  0  0  0  0  0  0  0  0  0  0
   10.8600   -6.7164   18.2473 H   0  0  0  0  0  0  0  0  0  0  0  0
   10.4425   -5.7380   20.0721 C   0  0  0  0  0  0  0  0  0  0  0  0
   10.6870   -4.2424   19.9543 C   0  0  0  0  0  0  0  0  0  0  0  0
   11.1950   -3.6833   21.2710 C   0  0  0  0  0  0  0  0  0  0  0  0
   12.7108   -3.6219   21.2709 C   0  0  0  0  0  0  0  0  0  0  0  0
 12 13  2  0  0  0
 13 14  1  0  0  0
 14 15  2  0  0  0
 15 16  1  0  0  0
 16 17  2  0  0  0
 16 18  1  0  0  0
 18 19  1  0  0  0
 19 20  2  0  0  0
 19 21  1  0  0  0
 21 22  2  0  0  0
 21 23  1  0  0  0
 18 11  1  0  0  0
 11  7  1  0  0  0
  7  8  2  0  0  0
  7  9  1  0  0  0
  9  1  1  0  0  0
  1  2  2  0  0  0
  2  3  1  0  0  0
  3  4  2  0  0  0
  4  5  1  0  0  0
  5  6  2  0  0  0
  4 24  1  0  0  0
 24 25  2  0  0  0
 24 26  2  0  0  0
 24 27  1  0  0  0
 27 28  1  0  0  0
 28 29  2  0  0  0
 28 30  1  0  0  0
 30 33  1  0  0  0
 33 34  1  0  0  0
 34 35  1  0  0  0
 35 36  1  0  0  0
 17 12  1  0  0  0
  6  1  1  0  0  0
 22 15  1  0  0  0
  9 10  1  0  0  0
 27 31  1  0  0  0
 30 32  1  0  0  0
M  END
>  <minimizedAffinity>
-3.10443

>  <minimizedRMSD>
2.49304

$$$$
CHEMBL1978746 NSC697191 PubChem-394073


 28 31  0  0  0  0  0  0  0  0999 V2000
   17.3016   -9.7977   15.6313 C   0  0  0  0  0  0  0  0  0  0  0  0
   17.0566   -9.5017   17.1014 C   0  0  0  0  0  0  0  0  0  0  0  0
   16.0068   -8.4138   17.2530 C   0  0  0  0  0  0  0  0  0  0  0  0
   15.6900   -8.1845   18.7201 C   0  0  0  0  0  0  0  0  0  0  0  0
   13.8490   -4.7131   22.6989 C   0  0  0  0  0  0  0  0  0  0  0  0
   13.6223   -5.5422   21.4859 C   0  0  0  0  0  0  0  0  0  0  0  0
   12.6532   -5.2608   20.5649 N   0  0  0  0  0  0  0  0  0  0  0  0
   12.8835   -6.2426   19.6776 C   0  0  0  0  0  0  0  0  0  0  0  0
   12.7164   -6.1786   18.3437 N   0  0  0  0  0  0  0  0  0  0  0  0
   13.6707   -6.9588   17.8291 N   0  0  0  0  0  0  0  0  0  0  0  0
   14.4154   -7.4219   18.8631 C   0  0  0  0  0  0  0  0  0  0  0  0
   13.8879   -7.0066   20.0190 N   0  0  0  0  0  0  0  0  0  0  0  0
   14.4482   -6.5597   21.1215 N   0  0  0  0  0  0  0  0  0  0  0  0
   15.2627   -6.8815   21.5712 H   0  0  0  0  0  0  0  0  0  0  0  0
   16.0004   -9.7543   14.8387 C   0  0  0  0  0  0  0  0  0  0  0  0
   15.9904   -8.6342   13.8050 C   0  0  0  0  0  0  0  0  0  0  0  0
   15.8496   -9.1843   12.3948 C   0  0  0  0  0  0  0  0  0  0  0  0
   17.2154   -9.4456   11.7851 C   0  0  0  0  0  0  0  0  0  0  0  0
   17.0745   -9.8130   10.3476 C   0  0  0  0  0  0  0  0  0  0  0  0
   16.0094  -10.4588    9.8102 N   0  0  0  0  0  0  0  0  0  0  0  0
   16.1484  -10.4209    8.4823 N   0  0  0  0  0  0  0  0  0  0  0  0
   17.3217   -9.7989    8.2639 C   0  0  0  0  0  0  0  0  0  0  0  0
   17.9126   -9.4424    9.3747 N   0  0  0  0  0  0  0  0  0  0  0  0
   18.5984   -8.3352    9.1921 N   0  0  0  0  0  0  0  0  0  0  0  0
   18.4781   -8.1248    7.8538 C   0  0  0  0  0  0  0  0  0  0  0  0
   17.6225   -8.9907    7.2337 N   0  0  0  0  0  0  0  0  0  0  0  0
   19.0976   -6.9654    7.1595 C   0  0  0  0  0  0  0  0  0  0  0  0
   19.0795   -7.7933    9.8586 H   0  0  0  0  0  0  0  0  0  0  0  0
  5  6  1  0  0  0
  6  7  2  0  0  0
  7  8  1  0  0  0
  8  9  2  0  0  0
  9 10  1  0  0  0
 10 11  2  0  0  0
 11 12  1  0  0  0
 11  4  1  0  0  0
 12 13  1  0  0  0
 12  8  1  0  0  0
 13  6  1  0  0  0
  4  3  1  0  0  0
  3  2  1  0  0  0
  2  1  1  0  0  0
  1 15  1  0  0  0
 15 16  1  0  0  0
 16 17  1  0  0  0
 17 18  1  0  0  0
 18 19  1  0  0  0
 19 20  2  0  0  0
 20 21  1  0  0  0
 21 22  2  0  0  0
 22 23  1  0  0  0
 23 24  1  0  0  0
 23 19  1  0  0  0
 24 25  1  0  0  0
 25 26  2  0  0  0
 25 27  1  0  0  0
 26 22  1  0  0  0
 13 14  1  0  0  0
 24 28  1  0  0  0
M  END
>  <minimizedAffinity>
-7.35820

>  <minimizedRMSD>
2.49309

$$$$
CHEMBL102227 CHEMBL1160815 CHEMBL553356 PubChem-10620872 PubChem-11743669 PubChem-46905380 PubChem-75249470


 29 32  0  0  0  0  0  0  0  0999 V2000
   16.2539  -10.2488   11.9570 C   0  0  0  0  0  0  0  0  0  0  0  0
   15.3330   -9.4220   12.6089 C   0  0  0  0  0  0  0  0  0  0  0  0
   15.7292   -8.6502   13.7051 C   0  0  0  0  0  0  0  0  0  0  0  0
   17.0524   -8.6988   14.1553 C   0  0  0  0  0  0  0  0  0  0  0  0
   17.9789   -9.5224   13.5070 C   0  0  0  0  0  0  0  0  0  0  0  0
   17.5822  -10.2934   12.4114 C   0  0  0  0  0  0  0  0  0  0  0  0
   15.8247  -11.0103   10.8642 O   0  0  0  0  0  0  0  0  0  0  0  0
   15.4440  -10.4424    9.6145 C   0  0  0  0  0  0  0  0  0  0  0  0
   19.6605   -7.5644    6.6644 C   0  0  0  0  0  0  0  0  0  0  0  0
   20.0333   -7.0951    7.9537 C   0  0  0  0  0  0  0  0  0  0  0  0
   19.3141   -7.5015    9.0927 C   0  0  0  0  0  0  0  0  0  0  0  0
   18.2465   -8.3659    8.8865 C   0  0  0  0  0  0  0  0  0  0  0  0
   17.4098   -8.8939    9.8003 N   0  0  0  0  0  0  0  0  0  0  0  0
   16.5729   -9.6511    9.0372 C   0  0  0  0  0  0  0  0  0  0  0  0
   16.8629   -9.6093    7.7122 N   0  0  0  0  0  0  0  0  0  0  0  0
   16.1889  -10.2917    6.6191 C   0  0  0  0  0  0  0  0  0  0  0  0
   17.9185   -8.7940    7.6404 C   0  0  0  0  0  0  0  0  0  0  0  0
   18.5974   -8.4153    6.5293 N   0  0  0  0  0  0  0  0  0  0  0  0
   21.7636   -6.9431    5.5205 C   0  0  0  0  0  0  0  0  0  0  0  0
   20.3614   -7.1728    5.5205 O   0  0  0  0  0  0  0  0  0  0  0  0
   17.4691   -7.8854   15.3340 C   0  0  0  0  0  0  0  0  0  0  0  0
   17.9702   -8.7765   16.4633 C   0  0  0  0  0  0  0  0  0  0  0  0
   19.1126  -10.0549   15.8028 S   0  0  0  0  0  0  0  0  0  0  0  0
   17.9986  -11.3365   16.3538 C   0  0  0  0  0  0  0  0  0  0  0  0
   18.2281  -12.5570   16.1535 O   0  0  0  0  0  0  0  0  0  0  0  0
   16.8356  -10.9031   17.0290 N   0  0  0  0  0  0  0  0  0  0  0  0
   16.8206   -9.4896   17.0975 C   0  0  0  0  0  0  0  0  0  0  0  0
   15.8898   -8.8746   17.6809 O   0  0  0  0  0  0  0  0  0  0  0  0
   16.1402  -11.4953   17.3965 H   0  0  0  0  0  0  0  0  0  0  0  0
 19 20  1  0  0  0
 20  9  1  0  0  0
  9 10  2  0  0  0
 10 11  1  0  0  0
 11 12  2  0  0  0
 12 13  1  0  0  0
 13 14  2  0  0  0
 14  8  1  0  0  0
 14 15  1  0  0  0
  8  7  1  0  0  0
  7  1  1  0  0  0
  1  2  2  0  0  0
  2  3  1  0  0  0
  3  4  2  0  0  0
  4 21  1  0  0  0
  4  5  1  0  0  0
 22 21  1  0  0  0
 22 23  1  0  0  0
 23 24  1  0  0  0
 24 25  2  0  0  0
 24 26  1  0  0  0
 26 27  1  0  0  0
 27 28  2  0  0  0
 27 22  1  0  0  0
  5  6  2  0  0  0
  6  1  1  0  0  0
 15 16  1  0  0  0
 15 17  1  0  0  0
 17 18  2  0  0  0
 17 12  1  0  0  0
 18  9  1  0  0  0
 26 29  1  0  0  0
M  END
>  <minimizedAffinity>
-2.26854

>  <minimizedRMSD>
2.49317

$$$$
CHEMBL3582388 PubChem-122179523


 31 34  0  0  0  0  0  0  0  0999 V2000
   16.9350  -10.2249   16.0780 C   0  0  0  0  0  0  0  0  0  0  0  0
   17.6481  -11.3609   16.4739 C   0  0  0  0  0  0  0  0  0  0  0  0
   18.3821  -12.1037   15.5494 C   0  0  0  0  0  0  0  0  0  0  0  0
   18.4143  -11.7183   14.2097 C   0  0  0  0  0  0  0  0  0  0  0  0
   19.1322  -12.4543   13.3243 F   0  0  0  0  0  0  0  0  0  0  0  0
   17.7138  -10.5779   13.7922 C   0  0  0  0  0  0  0  0  0  0  0  0
   16.9771   -9.8246   14.7226 C   0  0  0  0  0  0  0  0  0  0  0  0
   16.3383   -8.7077   14.2956 F   0  0  0  0  0  0  0  0  0  0  0  0
   16.1977   -9.5239   17.0909 N   0  0  0  0  0  0  0  0  0  0  0  0
   16.2042   -9.9232   17.9908 H   0  0  0  0  0  0  0  0  0  0  0  0
   14.3274   -8.1984   15.7684 O   0  0  0  0  0  0  0  0  0  0  0  0
   15.2965   -8.0526   16.9085 S   0  0  0  0  0  0  0  0  0  0  0  0
   16.2499   -6.9342   16.5976 O   0  0  0  0  0  0  0  0  0  0  0  0
   14.4504   -7.6677   18.3973 C   0  0  0  0  0  0  0  0  0  0  0  0
   13.0873   -7.3624   18.3795 C   0  0  0  0  0  0  0  0  0  0  0  0
   12.4263   -7.0625   19.5718 C   0  0  0  0  0  0  0  0  0  0  0  0
   13.1442   -7.0714   20.7701 C   0  0  0  0  0  0  0  0  0  0  0  0
   14.4719   -7.3687   20.7682 N   0  0  0  0  0  0  0  0  0  0  0  0
   15.1335   -7.6636   19.6167 C   0  0  0  0  0  0  0  0  0  0  0  0
   17.7535  -10.1769   12.4086 C   0  0  0  0  0  0  0  0  0  0  0  0
   17.7848   -9.8401   11.2513 C   0  0  0  0  0  0  0  0  0  0  0  0
   17.8209   -9.4382    9.8744 C   0  0  0  0  0  0  0  0  0  0  0  0
   16.8917   -9.9749    8.9558 C   0  0  0  0  0  0  0  0  0  0  0  0
   16.9179   -9.5974    7.6421 N   0  0  0  0  0  0  0  0  0  0  0  0
   17.8499   -8.6995    7.2349 C   0  0  0  0  0  0  0  0  0  0  0  0
   17.9992   -8.2358    5.9877 N   0  0  0  0  0  0  0  0  0  0  0  0
   19.0453   -7.3751    6.0749 C   0  0  0  0  0  0  0  0  0  0  0  0
   19.5539   -7.2974    7.3759 C   0  0  0  0  0  0  0  0  0  0  0  0
   18.7604   -8.1615    8.0904 C   0  0  0  0  0  0  0  0  0  0  0  0
   18.7806   -8.5086    9.4366 C   0  0  0  0  0  0  0  0  0  0  0  0
   17.4709   -8.4664    5.1896 H   0  0  0  0  0  0  0  0  0  0  0  0
 11 12  2  0  0  0
 12 13  2  0  0  0
 12  9  1  0  0  0
  9  1  1  0  0  0
  1  2  2  0  0  0
  2  3  1  0  0  0
  3  4  2  0  0  0
  4  5  1  0  0  0
  4  6  1  0  0  0
  6 20  1  0  0  0
 20 21  3  0  0  0
 21 22  1  0  0  0
 22 23  2  0  0  0
 23 24  1  0  0  0
 24 25  2  0  0  0
 25 26  1  0  0  0
 26 27  1  0  0  0
 27 28  2  0  0  0
 28 29  1  0  0  0
 29 30  2  0  0  0
  6  7  2  0  0  0
  7  8  1  0  0  0
 12 14  1  0  0  0
 14 15  2  0  0  0
 15 16  1  0  0  0
 16 17  2  0  0  0
 17 18  1  0  0  0
 18 19  2  0  0  0
  7  1  1  0  0  0
 19 14  1  0  0  0
 30 22  1  0  0  0
 29 25  1  0  0  0
  9 10  1  0  0  0
 26 31  1  0  0  0
M  END
>  <minimizedAffinity>
-8.54191

>  <minimizedRMSD>
2.49367

$$$$
CHEMBL2037394 PubChem-60166633


 28 31  0  0  0  0  0  0  0  0999 V2000
   17.1683   -9.0609   14.4617 C   0  0  0  0  0  0  0  0  0  0  0  0
   16.0328   -8.5306   13.9710 N   0  0  0  0  0  0  0  0  0  0  0  0
   15.9715   -8.9017   12.7015 N   0  0  0  0  0  0  0  0  0  0  0  0
   17.0724   -9.6416   12.4734 C   0  0  0  0  0  0  0  0  0  0  0  0
   17.8128   -9.7459   13.5500 O   0  0  0  0  0  0  0  0  0  0  0  0
   17.7286   -8.8470   16.1460 S   0  0  0  0  0  0  0  0  0  0  0  0
   16.1505   -9.4139   16.8509 C   0  0  0  0  0  0  0  0  0  0  0  0
   14.9743   -7.3574   17.0145 O   0  0  0  0  0  0  0  0  0  0  0  0
   15.5058   -8.3200   17.6284 C   0  0  0  0  0  0  0  0  0  0  0  0
   15.5144   -8.3765   19.0610 N   0  0  0  0  0  0  0  0  0  0  0  0
   15.9604   -9.1535   19.4692 H   0  0  0  0  0  0  0  0  0  0  0  0
   14.9409   -7.4189   19.9607 C   0  0  0  0  0  0  0  0  0  0  0  0
   13.6665   -6.8692   19.7489 C   0  0  0  0  0  0  0  0  0  0  0  0
   13.1385   -5.9416   20.6512 C   0  0  0  0  0  0  0  0  0  0  0  0
   13.8800   -5.5584   21.7718 C   0  0  0  0  0  0  0  0  0  0  0  0
   13.0884   -4.1614   23.1295 I   0  0  0  0  0  0  0  0  0  0  0  0
   15.1482   -6.1032   21.9898 C   0  0  0  0  0  0  0  0  0  0  0  0
   15.6755   -7.0301   21.0861 C   0  0  0  0  0  0  0  0  0  0  0  0
   17.3993  -10.2682   11.1607 C   0  0  0  0  0  0  0  0  0  0  0  0
   18.2565   -9.3855   10.3837 N   0  0  0  0  0  0  0  0  0  0  0  0
   19.4117   -8.8116   10.7975 C   0  0  0  0  0  0  0  0  0  0  0  0
   19.9419   -7.9818    9.8579 N   0  0  0  0  0  0  0  0  0  0  0  0
   19.0623   -8.0532    8.8414 C   0  0  0  0  0  0  0  0  0  0  0  0
   19.1147   -7.3810    7.6226 C   0  0  0  0  0  0  0  0  0  0  0  0
   18.0627   -7.6062    6.7144 C   0  0  0  0  0  0  0  0  0  0  0  0
   17.0012   -8.4797    7.0449 C   0  0  0  0  0  0  0  0  0  0  0  0
   16.9786   -9.1418    8.2869 C   0  0  0  0  0  0  0  0  0  0  0  0
   18.0407   -8.8970    9.1563 C   0  0  0  0  0  0  0  0  0  0  0  0
  8  9  2  0  0  0
  9  7  1  0  0  0
  9 10  1  0  0  0
  7  6  1  0  0  0
  6  1  1  0  0  0
  1  2  2  0  0  0
  2  3  1  0  0  0
  3  4  2  0  0  0
  4 19  1  0  0  0
  4  5  1  0  0  0
 19 20  1  0  0  0
 20 21  1  0  0  0
 21 22  2  0  0  0
 22 23  1  0  0  0
 23 24  2  0  0  0
 24 25  1  0  0  0
 25 26  2  0  0  0
 26 27  1  0  0  0
 27 28  2  0  0  0
 28 20  1  0  0  0
 28 23  1  0  0  0
  5  1  1  0  0  0
 10 12  1  0  0  0
 12 13  2  0  0  0
 13 14  1  0  0  0
 14 15  2  0  0  0
 15 16  1  0  0  0
 15 17  1  0  0  0
 17 18  2  0  0  0
 18 12  1  0  0  0
 10 11  1  0  0  0
M  END
>  <minimizedAffinity>
-7.14909

>  <minimizedRMSD>
2.49503

$$$$
CHEMBL3818983 PubChem-71735484


 31 33  0  0  0  0  0  0  0  0999 V2000
   15.0314  -10.1365   12.1982 C   0  0  0  0  0  0  0  0  0  0  0  0
   15.6653   -9.1570   13.0658 N   0  0  0  0  0  0  0  0  0  0  0  0
   15.7361   -8.2263   12.7527 H   0  0  0  0  0  0  0  0  0  0  0  0
   16.3573   -8.9844   16.6637 C   0  0  0  0  0  0  0  0  0  0  0  0
   15.8784   -8.7049   15.4202 N   0  0  0  0  0  0  0  0  0  0  0  0
   16.1900   -9.4870   14.3537 C   0  0  0  0  0  0  0  0  0  0  0  0
   17.0192  -10.5993   14.5336 C   0  0  0  0  0  0  0  0  0  0  0  0
   17.5017  -10.8697   15.8124 C   0  0  0  0  0  0  0  0  0  0  0  0
   17.1645  -10.0615   16.8505 N   0  0  0  0  0  0  0  0  0  0  0  0
   18.3855  -12.0424   16.0401 C   0  0  0  0  0  0  0  0  0  0  0  0
   16.0232   -8.1525   17.7768 N   0  0  0  0  0  0  0  0  0  0  0  0
   16.7316   -7.9191   18.4194 H   0  0  0  0  0  0  0  0  0  0  0  0
   14.6815   -7.6352   18.0016 C   0  0  0  0  0  0  0  0  0  0  0  0
   14.4016   -7.5429   19.4895 C   0  0  0  0  0  0  0  0  0  0  0  0
   13.0767   -7.8982   19.7357 O   0  0  0  0  0  0  0  0  0  0  0  0
   12.4861   -7.2954   19.2575 H   0  0  0  0  0  0  0  0  0  0  0  0
   14.9356   -9.5806   10.7906 C   0  0  0  0  0  0  0  0  0  0  0  0
   15.4673  -10.5920    9.7917 C   0  0  0  0  0  0  0  0  0  0  0  0
   16.2436   -9.9147    8.7625 N   0  0  0  0  0  0  0  0  0  0  0  0
   15.8962   -9.9067    7.8414 H   0  0  0  0  0  0  0  0  0  0  0  0
   17.4900   -9.2593    9.0288 C   0  0  0  0  0  0  0  0  0  0  0  0
   18.0033   -9.2052   10.3318 C   0  0  0  0  0  0  0  0  0  0  0  0
   19.2160   -8.5580   10.5752 C   0  0  0  0  0  0  0  0  0  0  0  0
   19.9007   -7.9794    9.5533 N   0  0  0  0  0  0  0  0  0  0  0  0
   19.4346   -8.0104    8.2770 C   0  0  0  0  0  0  0  0  0  0  0  0
   18.2102   -8.6556    7.9849 C   0  0  0  0  0  0  0  0  0  0  0  0
   17.7410   -8.6780    6.6638 C   0  0  0  0  0  0  0  0  0  0  0  0
   18.4788   -8.0679    5.6454 C   0  0  0  0  0  0  0  0  0  0  0  0
   19.6886   -7.4319    5.9392 C   0  0  0  0  0  0  0  0  0  0  0  0
   20.1659   -7.4030    7.2526 C   0  0  0  0  0  0  0  0  0  0  0  0
   20.6077   -6.6698    4.6597 Cl  0  0  0  0  0  0  0  0  0  0  0  0
  4  5  2  0  0  0
  5  6  1  0  0  0
  6  7  2  0  0  0
  7  8  1  0  0  0
  8  9  2  0  0  0
  8 10  1  0  0  0
  6  2  1  0  0  0
  2  1  1  0  0  0
  1 17  1  0  0  0
 17 18  1  0  0  0
 18 19  1  0  0  0
 19 21  1  0  0  0
 21 22  2  0  0  0
 22 23  1  0  0  0
 23 24  2  0  0  0
 24 25  1  0  0  0
 25 26  2  0  0  0
 26 27  1  0  0  0
 27 28  2  0  0  0
 28 29  1  0  0  0
 29 30  2  0  0  0
 29 31  1  0  0  0
  4 11  1  0  0  0
 11 13  1  0  0  0
 13 14  1  0  0  0
 14 15  1  0  0  0
  9  4  1  0  0  0
 26 21  1  0  0  0
 30 25  1  0  0  0
  2  3  1  0  0  0
 19 20  1  0  0  0
 11 12  1  0  0  0
 15 16  1  0  0  0
M  END
>  <minimizedAffinity>
-5.91402

>  <minimizedRMSD>
2.49555

$$$$
CHEMBL1570189 2635266 CSC025843084 MCULE-4594849367 MolPort-004-036-569 PubChem-2097875 Z15438758 ZINC000002635266


 29 32  0  0  0  0  0  0  0  0999 V2000
   18.0011   -9.6785   11.8224 C   0  0  0  0  0  0  0  0  0  0  0  0
   18.7912   -9.0484   10.8326 C   0  0  0  0  0  0  0  0  0  0  0  0
   18.2211   -8.7985    9.5602 C   0  0  0  0  0  0  0  0  0  0  0  0
   18.9753   -8.1774    8.5605 C   0  0  0  0  0  0  0  0  0  0  0  0
   20.2963   -7.7993    8.8101 C   0  0  0  0  0  0  0  0  0  0  0  0
   20.8683   -8.0407   10.0608 C   0  0  0  0  0  0  0  0  0  0  0  0
   20.1207   -8.6611   11.0649 C   0  0  0  0  0  0  0  0  0  0  0  0
   16.9380   -9.1604    9.3028 N   0  0  0  0  0  0  0  0  0  0  0  0
   16.1563   -9.7676   10.2367 C   0  0  0  0  0  0  0  0  0  0  0  0
   16.6847  -10.0313   11.5063 C   0  0  0  0  0  0  0  0  0  0  0  0
   14.7645  -10.1413    9.9047 C   0  0  0  0  0  0  0  0  0  0  0  0
   14.4344  -10.5400    8.6000 C   0  0  0  0  0  0  0  0  0  0  0  0
   13.1217  -10.8948    8.2770 C   0  0  0  0  0  0  0  0  0  0  0  0
   12.1260  -10.8544    9.2561 C   0  0  0  0  0  0  0  0  0  0  0  0
   10.4823  -11.2988    8.8515 Cl  0  0  0  0  0  0  0  0  0  0  0  0
   12.4423  -10.4593   10.5581 C   0  0  0  0  0  0  0  0  0  0  0  0
   13.7550  -10.1044   10.8811 C   0  0  0  0  0  0  0  0  0  0  0  0
   18.7248   -9.9334   15.2537 C   0  0  0  0  0  0  0  0  0  0  0  0
   18.0657   -9.3750   14.2691 O   0  0  0  0  0  0  0  0  0  0  0  0
   18.4838   -9.9917   13.1879 C   0  0  0  0  0  0  0  0  0  0  0  0
   19.3993  -10.9331   13.4958 N   0  0  0  0  0  0  0  0  0  0  0  0
   19.5518  -10.8962   14.8101 N   0  0  0  0  0  0  0  0  0  0  0  0
   18.5476   -9.4774   16.9737 S   0  0  0  0  0  0  0  0  0  0  0  0
   16.7498   -9.7530   16.9630 C   0  0  0  0  0  0  0  0  0  0  0  0
   15.7234   -7.9531   18.4021 N   0  0  0  0  0  0  0  0  0  0  0  0
   16.0265   -8.4593   17.1076 C   0  0  0  0  0  0  0  0  0  0  0  0
   15.7029   -7.8018   16.0849 O   0  0  0  0  0  0  0  0  0  0  0  0
   15.9761   -8.4668   19.2031 H   0  0  0  0  0  0  0  0  0  0  0  0
   15.2610   -7.0892   18.4970 H   0  0  0  0  0  0  0  0  0  0  0  0
 25 26  1  0  0  0
 26 24  1  0  0  0
 24 23  1  0  0  0
 23 18  1  0  0  0
 18 19  1  0  0  0
 19 20  1  0  0  0
 20  1  1  0  0  0
  1  2  1  0  0  0
  2  3  1  0  0  0
  3  4  2  0  0  0
  4  5  1  0  0  0
  5  6  2  0  0  0
  6  7  1  0  0  0
  3  8  1  0  0  0
  8  9  2  0  0  0
  9 11  1  0  0  0
 11 12  2  0  0  0
 12 13  1  0  0  0
 13 14  2  0  0  0
 14 15  1  0  0  0
 14 16  1  0  0  0
 16 17  2  0  0  0
  9 10  1  0  0  0
 20 21  2  0  0  0
 21 22  1  0  0  0
 26 27  2  0  0  0
 22 18  2  0  0  0
 10  1  2  0  0  0
  7  2  2  0  0  0
 17 11  1  0  0  0
 25 28  1  0  0  0
 25 29  1  0  0  0
M  END
>  <minimizedAffinity>
12.50176

>  <minimizedRMSD>
2.49659

$$$$
CHEMBL5269112


 33 36  0  0  0  0  0  0  0  0999 V2000
   18.5244   -8.8512   10.0953 C   0  0  0  0  0  0  0  0  0  0  0  0
   17.2957   -9.0667    9.4287 C   0  0  0  0  0  0  0  0  0  0  0  0
   17.2101   -8.7781    8.1006 N   0  0  0  0  0  0  0  0  0  0  0  0
   18.2689   -8.2912    7.4061 C   0  0  0  0  0  0  0  0  0  0  0  0
   18.1542   -8.0023    6.0437 C   0  0  0  0  0  0  0  0  0  0  0  0
   19.2570   -7.4999    5.3445 C   0  0  0  0  0  0  0  0  0  0  0  0
   20.4720   -7.2868    6.0064 C   0  0  0  0  0  0  0  0  0  0  0  0
   20.5896   -7.5753    7.3703 C   0  0  0  0  0  0  0  0  0  0  0  0
   19.4898   -8.0771    8.0710 C   0  0  0  0  0  0  0  0  0  0  0  0
   19.5850   -8.3625    9.3932 N   0  0  0  0  0  0  0  0  0  0  0  0
   16.0903   -9.5863   10.1072 C   0  0  0  0  0  0  0  0  0  0  0  0
   14.9307   -9.7338    9.4843 O   0  0  0  0  0  0  0  0  0  0  0  0
   14.1036  -10.2057   10.3763 C   0  0  0  0  0  0  0  0  0  0  0  0
   14.7679  -10.3470   11.5560 C   0  0  0  0  0  0  0  0  0  0  0  0
   16.0453   -9.9578   11.4162 N   0  0  0  0  0  0  0  0  0  0  0  0
   14.1434  -10.8325   12.7019 C   0  0  0  0  0  0  0  0  0  0  0  0
   12.7822  -11.1775   12.5978 C   0  0  0  0  0  0  0  0  0  0  0  0
   12.0946  -11.0299   11.3711 C   0  0  0  0  0  0  0  0  0  0  0  0
   12.7590  -10.5353   10.2327 C   0  0  0  0  0  0  0  0  0  0  0  0
   18.6691   -9.1373   11.4908 N   0  0  0  0  0  0  0  0  0  0  0  0
   18.4564   -8.4278   12.1393 H   0  0  0  0  0  0  0  0  0  0  0  0
   19.1163  -10.4286   11.9968 C   0  0  0  0  0  0  0  0  0  0  0  0
   18.6365  -10.6371   13.4243 C   0  0  0  0  0  0  0  0  0  0  0  0
   18.5075  -12.1207   13.7273 C   0  0  0  0  0  0  0  0  0  0  0  0
   18.1705  -12.3327   15.1916 C   0  0  0  0  0  0  0  0  0  0  0  0
   18.3731  -11.0433   15.9714 C   0  0  0  0  0  0  0  0  0  0  0  0
   17.1951  -10.7893   16.8975 C   0  0  0  0  0  0  0  0  0  0  0  0
   16.4478   -9.5676   16.4825 C   0  0  0  0  0  0  0  0  0  0  0  0
   16.0303   -9.4602   15.2991 O   0  0  0  0  0  0  0  0  0  0  0  0
   16.1866   -8.5392   17.4347 N   0  0  0  0  0  0  0  0  0  0  0  0
   15.4975   -7.4281   17.0850 O   0  0  0  0  0  0  0  0  0  0  0  0
   16.5118   -8.6385   18.3586 H   0  0  0  0  0  0  0  0  0  0  0  0
   15.2498   -7.4826   16.1487 H   0  0  0  0  0  0  0  0  0  0  0  0
 22 23  1  0  0  0
 23 24  1  0  0  0
 24 25  1  0  0  0
 25 26  1  0  0  0
 26 27  1  0  0  0
 27 28  1  0  0  0
 28 29  2  0  0  0
 28 30  1  0  0  0
 30 31  1  0  0  0
 22 20  1  0  0  0
 20  1  1  0  0  0
  1  2  2  0  0  0
  2  3  1  0  0  0
  3  4  2  0  0  0
  4  5  1  0  0  0
  5  6  2  0  0  0
  6  7  1  0  0  0
  7  8  2  0  0  0
  8  9  1  0  0  0
  9 10  2  0  0  0
  2 11  1  0  0  0
 11 12  1  0  0  0
 12 13  1  0  0  0
 13 14  2  0  0  0
 14 15  1  0  0  0
 14 16  1  0  0  0
 16 17  2  0  0  0
 17 18  1  0  0  0
 18 19  2  0  0  0
 10  1  1  0  0  0
 15 11  2  0  0  0
  9  4  1  0  0  0
 19 13  1  0  0  0
 30 32  1  0  0  0
 31 33  1  0  0  0
 20 21  1  0  0  0
M  END
>  <minimizedAffinity>
0.76260

>  <minimizedRMSD>
2.49911

$$$$
CHEMBL2063455 PubChem-66721774 ZINC000084653477


 37 40  0  0  0  0  0  0  0  0999 V2000
   18.9506   -9.5384   13.1702 C   0  0  0  0  0  0  0  0  0  0  0  0
   20.0436   -8.9112   13.7878 C   0  0  0  0  0  0  0  0  0  0  0  0
   20.2867   -9.0964   15.1518 C   0  0  0  0  0  0  0  0  0  0  0  0
   19.4398   -9.9112   15.9074 C   0  0  0  0  0  0  0  0  0  0  0  0
   18.3513  -10.5440   15.2982 C   0  0  0  0  0  0  0  0  0  0  0  0
   18.1092  -10.3546   13.9336 C   0  0  0  0  0  0  0  0  0  0  0  0
   19.4302   -8.6156   10.8246 C   0  0  0  0  0  0  0  0  0  0  0  0
   20.4217   -7.9328   11.1996 O   0  0  0  0  0  0  0  0  0  0  0  0
   18.6696   -9.3749   11.7737 N   0  0  0  0  0  0  0  0  0  0  0  0
   17.8688   -9.8330   11.4298 H   0  0  0  0  0  0  0  0  0  0  0  0
   16.7653  -10.4557   10.7649 N   0  0  0  0  0  0  0  0  0  0  0  0
   16.8117   -9.9051    9.4540 C   0  0  0  0  0  0  0  0  0  0  0  0
   15.9086  -10.2044    8.4957 N   0  0  0  0  0  0  0  0  0  0  0  0
   16.2953   -9.6373    7.3583 N   0  0  0  0  0  0  0  0  0  0  0  0
   17.4477   -8.9886    7.6027 C   0  0  0  0  0  0  0  0  0  0  0  0
   18.2352   -8.3129    6.6761 C   0  0  0  0  0  0  0  0  0  0  0  0
   19.4406   -7.7547    7.1308 C   0  0  0  0  0  0  0  0  0  0  0  0
   19.8238   -7.8785    8.4821 C   0  0  0  0  0  0  0  0  0  0  0  0
   19.0102   -8.5594    9.4119 C   0  0  0  0  0  0  0  0  0  0  0  0
   17.8152   -9.1186    8.9195 C   0  0  0  0  0  0  0  0  0  0  0  0
   15.9964  -11.0050   11.0412 H   0  0  0  0  0  0  0  0  0  0  0  0
   17.5020  -10.2874   11.3959 H   0  0  0  0  0  0  0  0  0  0  0  0
   15.8247   -9.6836    6.4948 H   0  0  0  0  0  0  0  0  0  0  0  0
   17.4359  -11.4007   16.1056 C   0  0  0  0  0  0  0  0  0  0  0  0
   17.0446  -10.7139   17.3295 N   0  0  0  0  0  0  0  0  0  0  0  0
   16.0966   -9.6451   17.3506 C   0  0  0  0  0  0  0  0  0  0  0  0
   15.5174   -9.2922   16.2877 O   0  0  0  0  0  0  0  0  0  0  0  0
   15.8139   -8.9922   18.5947 N   0  0  0  0  0  0  0  0  0  0  0  0
   17.4514  -10.9989   18.1795 H   0  0  0  0  0  0  0  0  0  0  0  0
   16.2887   -9.3307   19.3879 H   0  0  0  0  0  0  0  0  0  0  0  0
   14.9119   -7.8973   18.8050 C   0  0  0  0  0  0  0  0  0  0  0  0
   14.0302   -7.4572   17.8052 C   0  0  0  0  0  0  0  0  0  0  0  0
   13.1668   -6.3845   18.0460 C   0  0  0  0  0  0  0  0  0  0  0  0
   13.1790   -5.7438   19.2876 C   0  0  0  0  0  0  0  0  0  0  0  0
   14.0544   -6.1761   20.2874 C   0  0  0  0  0  0  0  0  0  0  0  0
   14.0672   -5.5553   21.4911 F   0  0  0  0  0  0  0  0  0  0  0  0
   14.9176   -7.2492   20.0453 C   0  0  0  0  0  0  0  0  0  0  0  0
 11 12  1  0  0  0
 12 13  2  0  0  0
 13 14  1  0  0  0
 14 15  1  0  0  0
 15 16  2  0  0  0
 16 17  1  0  0  0
 17 18  2  0  0  0
 18 19  1  0  0  0
 19  7  1  0  0  0
 19 20  2  0  0  0
  7  8  2  0  0  0
  7  9  1  0  0  0
  9  1  1  0  0  0
  1  2  2  0  0  0
  2  3  1  0  0  0
  3  4  2  0  0  0
  4  5  1  0  0  0
  5 24  1  0  0  0
  5  6  2  0  0  0
 24 25  1  0  0  0
 25 26  1  0  0  0
 26 27  2  0  0  0
 26 28  1  0  0  0
 28 31  1  0  0  0
 31 32  2  0  0  0
 32 33  1  0  0  0
 33 34  2  0  0  0
 34 35  1  0  0  0
 35 36  1  0  0  0
 35 37  2  0  0  0
 37 31  1  0  0  0
  6  1  1  0  0  0
 20 12  1  0  0  0
 20 15  1  0  0  0
 11 21  1  0  0  0
 11 22  1  0  0  0
 14 23  1  0  0  0
  9 10  1  0  0  0
 25 29  1  0  0  0
 28 30  1  0  0  0
M  END
>  <minimizedAffinity>
0.72605

>  <minimizedRMSD>
2.50130

$$$$
CHEMBL1502197 3347749 CSC026149415 MCULE-9722409337 MolPort-004-267-815 PubChem-2464556 Z20241451 ZINC000003347749


 29 31  0  0  0  0  0  0  0  0999 V2000
   17.7918  -10.5765   12.7588 N   0  0  0  0  0  0  0  0  0  0  0  0
   16.5938  -10.1264   12.1260 C   0  0  0  0  0  0  0  0  0  0  0  0
   15.5230  -10.0200   12.7815 O   0  0  0  0  0  0  0  0  0  0  0  0
   18.6152  -10.6532   12.2246 H   0  0  0  0  0  0  0  0  0  0  0  0
   17.8300  -10.9250   14.1707 C   0  0  0  0  0  0  0  0  0  0  0  0
   18.3553   -9.7527   14.9855 C   0  0  0  0  0  0  0  0  0  0  0  0
   15.1896   -8.0678   17.3443 C   0  0  0  0  0  0  0  0  0  0  0  0
   16.0456   -9.0244   17.9011 C   0  0  0  0  0  0  0  0  0  0  0  0
   17.0819   -9.5681   17.1364 C   0  0  0  0  0  0  0  0  0  0  0  0
   17.2691   -9.1519   15.8133 C   0  0  0  0  0  0  0  0  0  0  0  0
   16.4129   -8.1959   15.2558 C   0  0  0  0  0  0  0  0  0  0  0  0
   15.3766   -7.6529   16.0209 C   0  0  0  0  0  0  0  0  0  0  0  0
   14.5678   -6.4262   19.5810 N   0  0  0  0  0  0  0  0  0  0  0  0
   13.8955   -7.3829   18.3102 S   0  0  0  0  0  0  0  0  0  0  0  0
   13.0181   -6.5199   17.4472 O   0  0  0  0  0  0  0  0  0  0  0  0
   13.0644   -8.4889   18.8969 O   0  0  0  0  0  0  0  0  0  0  0  0
   15.1313   -5.6763   19.1804 H   0  0  0  0  0  0  0  0  0  0  0  0
   15.1548   -7.0128   20.1741 H   0  0  0  0  0  0  0  0  0  0  0  0
   16.6058   -9.7932   10.6752 C   0  0  0  0  0  0  0  0  0  0  0  0
   18.0915   -8.8296   10.2596 S   0  0  0  0  0  0  0  0  0  0  0  0
   17.8365   -9.0119    8.4952 C   0  0  0  0  0  0  0  0  0  0  0  0
   18.6003   -8.4545    7.5454 N   0  0  0  0  0  0  0  0  0  0  0  0
   18.0381   -8.8617    6.4014 C   0  0  0  0  0  0  0  0  0  0  0  0
   18.5558   -8.4786    5.1677 C   0  0  0  0  0  0  0  0  0  0  0  0
   19.6905   -7.6483    5.1818 C   0  0  0  0  0  0  0  0  0  0  0  0
   20.2634   -7.2330    6.4018 C   0  0  0  0  0  0  0  0  0  0  0  0
   19.6926   -7.6546    7.6124 C   0  0  0  0  0  0  0  0  0  0  0  0
   16.9661   -9.6452    6.6205 N   0  0  0  0  0  0  0  0  0  0  0  0
   16.8404   -9.7398    7.9422 N   0  0  0  0  0  0  0  0  0  0  0  0
 13 14  1  0  0  0
 14  7  1  0  0  0
  7  8  2  0  0  0
  8  9  1  0  0  0
  9 10  2  0  0  0
 10  6  1  0  0  0
  6  5  1  0  0  0
  5  1  1  0  0  0
  1  2  1  0  0  0
  2 19  1  0  0  0
 19 20  1  0  0  0
 20 21  1  0  0  0
 21 22  1  0  0  0
 22 23  1  0  0  0
 23 24  1  0  0  0
 24 25  2  0  0  0
 25 26  1  0  0  0
 26 27  2  0  0  0
 23 28  2  0  0  0
 28 29  1  0  0  0
  2  3  2  0  0  0
 10 11  1  0  0  0
 11 12  2  0  0  0
 14 15  2  0  0  0
 14 16  2  0  0  0
 12  7  1  0  0  0
 29 21  2  0  0  0
 27 22  1  0  0  0
 13 17  1  0  0  0
 13 18  1  0  0  0
  1  4  1  0  0  0
M  END
>  <minimizedAffinity>
-4.89328

>  <minimizedRMSD>
2.50408

$$$$
CHEMBL3928129 PubChem-89743543


 34 38  0  0  0  0  0  0  0  0999 V2000
   18.0856  -12.8655   15.5019 C   0  0  0  0  0  0  0  0  0  0  0  0
   17.9486  -11.5215   14.9592 N   0  0  0  0  0  0  0  0  0  0  0  0
   17.0652  -10.5657   15.5859 C   0  0  0  0  0  0  0  0  0  0  0  0
   17.2546  -10.1882   16.9243 C   0  0  0  0  0  0  0  0  0  0  0  0
   16.3893   -9.2645   17.5112 C   0  0  0  0  0  0  0  0  0  0  0  0
   15.3408   -8.7236   16.7663 C   0  0  0  0  0  0  0  0  0  0  0  0
   15.1794   -9.1151   15.4360 C   0  0  0  0  0  0  0  0  0  0  0  0
   16.0331  -10.0167   14.8827 N   0  0  0  0  0  0  0  0  0  0  0  0
   14.2621   -7.5418   17.4881 S   0  0  0  0  0  0  0  0  0  0  0  0
   12.9419   -7.5773   16.7715 O   0  0  0  0  0  0  0  0  0  0  0  0
   14.8488   -6.1639   17.3508 O   0  0  0  0  0  0  0  0  0  0  0  0
   14.0164   -7.9064   19.1642 N   0  0  0  0  0  0  0  0  0  0  0  0
   14.6303   -8.6709   19.4453 H   0  0  0  0  0  0  0  0  0  0  0  0
   14.3289   -6.7128   19.9373 C   0  0  0  0  0  0  0  0  0  0  0  0
   13.1128   -6.3175   20.7845 C   0  0  0  0  0  0  0  0  0  0  0  0
   13.0754   -7.0477   22.1368 C   0  0  0  0  0  0  0  0  0  0  0  0
   13.9473   -8.1498   22.1474 O   0  0  0  0  0  0  0  0  0  0  0  0
   15.2445   -7.6095   22.1474 C   0  0  0  0  0  0  0  0  0  0  0  0
   15.5785   -6.9609   20.7950 C   0  0  0  0  0  0  0  0  0  0  0  0
   18.7388  -11.2126   13.7671 C   0  0  0  0  0  0  0  0  0  0  0  0
   19.3691   -9.8275   13.8545 C   0  0  0  0  0  0  0  0  0  0  0  0
   19.1086   -9.1547   12.5194 C   0  0  0  0  0  0  0  0  0  0  0  0
   18.1873  -10.0174   11.8022 N   0  0  0  0  0  0  0  0  0  0  0  0
   17.8897  -11.2471   12.5088 C   0  0  0  0  0  0  0  0  0  0  0  0
   17.6055   -9.7104   10.5228 C   0  0  0  0  0  0  0  0  0  0  0  0
   16.3988  -10.2519   10.1748 N   0  0  0  0  0  0  0  0  0  0  0  0
   15.8088   -9.9835    8.9691 C   0  0  0  0  0  0  0  0  0  0  0  0
   16.4175   -9.1567    8.0701 N   0  0  0  0  0  0  0  0  0  0  0  0
   17.6128   -8.6127    8.4005 C   0  0  0  0  0  0  0  0  0  0  0  0
   18.3314   -7.7848    7.6312 N   0  0  0  0  0  0  0  0  0  0  0  0
   19.4317   -7.5080    8.3737 C   0  0  0  0  0  0  0  0  0  0  0  0
   19.4035   -8.1616    9.6081 C   0  0  0  0  0  0  0  0  0  0  0  0
   18.2187   -8.8635    9.5913 C   0  0  0  0  0  0  0  0  0  0  0  0
   18.1108   -7.4527    6.7310 H   0  0  0  0  0  0  0  0  0  0  0  0
  1  2  1  0  0  0
 20  2  1  0  0  0
 20 21  1  0  0  0
 21 22  1  0  0  0
 22 23  1  0  0  0
 23 24  1  0  0  0
 23 25  1  0  0  0
 25 26  2  0  0  0
 26 27  1  0  0  0
 27 28  2  0  0  0
 28 29  1  0  0  0
 29 30  1  0  0  0
 30 31  1  0  0  0
 31 32  2  0  0  0
 32 33  1  0  0  0
  2  3  1  0  0  0
  3  4  2  0  0  0
  4  5  1  0  0  0
  5  6  2  0  0  0
  6  7  1  0  0  0
  7  8  2  0  0  0
  6  9  1  0  0  0
  9 10  2  0  0  0
  9 11  2  0  0  0
  9 12  1  0  0  0
 12 14  1  0  0  0
 14 15  1  0  0  0
 15 16  1  0  0  0
 16 17  1  0  0  0
 17 18  1  0  0  0
 18 19  1  0  0  0
 24 20  1  0  0  0
 33 25  1  0  0  0
  8  3  1  0  0  0
 19 14  1  0  0  0
 33 29  2  0  0  0
 30 34  1  0  0  0
 12 13  1  0  0  0
M  END
>  <minimizedAffinity>
-1.42674

>  <minimizedRMSD>
2.50691

$$$$
CHEMBL5195834


 33 36  0  0  0  0  0  0  0  0999 V2000
   17.5344  -10.8103   12.7953 N   0  0  0  0  0  0  0  0  0  0  0  0
   17.3731  -11.8296   13.8236 C   0  0  0  0  0  0  0  0  0  0  0  0
   17.8742  -11.2443   15.1215 C   0  0  0  0  0  0  0  0  0  0  0  0
   18.9016  -10.2282   14.6918 C   0  0  0  0  0  0  0  0  0  0  0  0
   18.6696   -9.9948   13.2101 C   0  0  0  0  0  0  0  0  0  0  0  0
   18.7802   -8.9879   15.4572 N   0  0  0  0  0  0  0  0  0  0  0  0
   19.5449   -8.3687   15.4233 H   0  0  0  0  0  0  0  0  0  0  0  0
   17.6561   -8.5847   16.2528 C   0  0  0  0  0  0  0  0  0  0  0  0
   16.3660   -8.4855   15.7178 C   0  0  0  0  0  0  0  0  0  0  0  0
   15.3015   -8.0886   16.5270 C   0  0  0  0  0  0  0  0  0  0  0  0
   15.5357   -7.7918   17.8752 C   0  0  0  0  0  0  0  0  0  0  0  0
   16.7984   -7.8952   18.3757 N   0  0  0  0  0  0  0  0  0  0  0  0
   17.8488   -8.2805   17.6020 C   0  0  0  0  0  0  0  0  0  0  0  0
   14.4314   -7.3706   18.7512 C   0  0  0  0  0  0  0  0  0  0  0  0
   13.5433   -6.5855   18.3192 O   0  0  0  0  0  0  0  0  0  0  0  0
   14.3680   -7.8540   20.0947 N   0  0  0  0  0  0  0  0  0  0  0  0
   13.2998   -7.4702   21.0021 C   0  0  0  0  0  0  0  0  0  0  0  0
   15.0695   -8.4657   20.4152 H   0  0  0  0  0  0  0  0  0  0  0  0
   17.9212  -11.4884   11.5688 C   0  0  0  0  0  0  0  0  0  0  0  0
   18.5698   -7.3532    6.6388 C   0  0  0  0  0  0  0  0  0  0  0  0
   17.4234   -7.8800    7.2415 C   0  0  0  0  0  0  0  0  0  0  0  0
   17.5465   -8.7738    8.3040 C   0  0  0  0  0  0  0  0  0  0  0  0
   16.4428   -9.2918    8.9058 N   0  0  0  0  0  0  0  0  0  0  0  0
   16.5472  -10.1652    9.9444 C   0  0  0  0  0  0  0  0  0  0  0  0
   17.8063  -10.5545   10.4138 C   0  0  0  0  0  0  0  0  0  0  0  0
   18.9553  -10.0297    9.8160 C   0  0  0  0  0  0  0  0  0  0  0  0
   18.8317   -9.1358    8.7525 C   0  0  0  0  0  0  0  0  0  0  0  0
   19.9348   -8.6165    8.1519 N   0  0  0  0  0  0  0  0  0  0  0  0
   19.8361   -7.7425    7.1132 C   0  0  0  0  0  0  0  0  0  0  0  0
   20.8853   -7.2874    6.5846 O   0  0  0  0  0  0  0  0  0  0  0  0
   20.8267   -8.8789    8.4760 H   0  0  0  0  0  0  0  0  0  0  0  0
   18.6206   -7.1474    4.1791 C   0  0  0  0  0  0  0  0  0  0  0  0
   18.4246   -6.4097    5.4899 C   0  0  0  0  0  0  0  0  0  0  0  0
 32 33  1  0  0  0
 33 20  1  0  0  0
 20 21  2  0  0  0
 21 22  1  0  0  0
 22 23  2  0  0  0
 23 24  1  0  0  0
 24 25  2  0  0  0
 25 26  1  0  0  0
 26 27  2  0  0  0
 27 28  1  0  0  0
 28 29  1  0  0  0
 29 30  2  0  0  0
 25 19  1  0  0  0
 19  1  1  0  0  0
  1  2  1  0  0  0
  2  3  1  0  0  0
  3  4  1  0  0  0
  4  5  1  0  0  0
  4  6  1  0  0  0
  6  8  1  0  0  0
  8  9  2  0  0  0
  9 10  1  0  0  0
 10 11  2  0  0  0
 11 12  1  0  0  0
 12 13  2  0  0  0
 11 14  1  0  0  0
 14 15  2  0  0  0
 14 16  1  0  0  0
 16 17  1  0  0  0
 29 20  1  0  0  0
  5  1  1  0  0  0
 13  8  1  0  0  0
 27 22  1  0  0  0
 28 31  1  0  0  0
  6  7  1  0  0  0
 16 18  1  0  0  0
M  END
>  <minimizedAffinity>
3.68658

>  <minimizedRMSD>
2.50820

$$$$
CHEMBL1198720 CHEMBL612110


 33 35  0  0  0  0  0  0  0  0999 V2000
   17.6901   -8.7392    8.8477 C   0  0  0  0  0  0  0  0  0  0  0  0
   16.3830   -9.0600    8.6636 N   0  0  0  0  0  0  0  0  0  0  0  0
   15.6048   -9.5509    9.6583 C   0  0  0  0  0  0  0  0  0  0  0  0
   16.1405   -9.7509   10.9532 C   0  0  0  0  0  0  0  0  0  0  0  0
   17.5015   -9.4307   11.1911 C   0  0  0  0  0  0  0  0  0  0  0  0
   18.2737   -8.9235   10.1265 C   0  0  0  0  0  0  0  0  0  0  0  0
   19.6229   -8.5988   10.3213 C   0  0  0  0  0  0  0  0  0  0  0  0
   20.3905   -8.0996    9.2728 C   0  0  0  0  0  0  0  0  0  0  0  0
   19.8184   -7.9178    8.0155 C   0  0  0  0  0  0  0  0  0  0  0  0
   18.4709   -8.2289    7.7785 C   0  0  0  0  0  0  0  0  0  0  0  0
   15.2977  -10.2613   11.9531 C   0  0  0  0  0  0  0  0  0  0  0  0
   13.9618  -10.5658   11.6809 C   0  0  0  0  0  0  0  0  0  0  0  0
   13.4468  -10.3637   10.3999 C   0  0  0  0  0  0  0  0  0  0  0  0
   14.2672   -9.8572    9.3908 C   0  0  0  0  0  0  0  0  0  0  0  0
   17.9361   -8.0047    6.4092 C   0  0  0  0  0  0  0  0  0  0  0  0
   16.8777   -7.3340    6.2570 O   0  0  0  0  0  0  0  0  0  0  0  0
   18.5968   -8.5396    5.2598 N   0  0  0  0  0  0  0  0  0  0  0  0
   19.4158   -9.0709    5.3872 H   0  0  0  0  0  0  0  0  0  0  0  0
   18.1022   -8.3266    3.9093 C   0  0  0  0  0  0  0  0  0  0  0  0
   19.1555   -7.6143    3.0827 C   0  0  0  0  0  0  0  0  0  0  0  0
   18.5503   -6.9323    2.0268 O   0  0  0  0  0  0  0  0  0  0  0  0
   18.0781   -7.5640    1.4622 H   0  0  0  0  0  0  0  0  0  0  0  0
   18.1419   -9.5984   12.4729 N   0  0  0  0  0  0  0  0  0  0  0  0
   18.0343   -8.8611   13.1164 H   0  0  0  0  0  0  0  0  0  0  0  0
   18.9286  -10.7369   12.9186 C   0  0  0  0  0  0  0  0  0  0  0  0
   19.2144  -10.6039   14.4024 C   0  0  0  0  0  0  0  0  0  0  0  0
   18.2152  -11.3308   15.1759 N   0  0  0  0  0  0  0  0  0  0  0  0
   18.0338  -12.7517   14.9144 C   0  0  0  0  0  0  0  0  0  0  0  0
   17.4812  -10.6742   16.2240 C   0  0  0  0  0  0  0  0  0  0  0  0
   16.7874   -9.6088   15.9503 N   0  0  0  0  0  0  0  0  0  0  0  0
   16.0090   -8.8748   16.9362 C   0  0  0  0  0  0  0  0  0  0  0  0
   17.5220  -11.3382   17.9027 S   0  0  0  0  0  0  0  0  0  0  0  0
   18.3098  -12.4463   17.9328 H   0  0  0  0  0  0  0  0  0  0  0  0
  1  2  2  0  0  0
  2  3  1  0  0  0
  3  4  2  0  0  0
  4  5  1  0  0  0
  5  6  2  0  0  0
  6  7  1  0  0  0
  7  8  2  0  0  0
  8  9  1  0  0  0
  9 10  2  0  0  0
 10 15  1  0  0  0
 15 16  2  0  0  0
 15 17  1  0  0  0
 17 19  1  0  0  0
 19 20  1  0  0  0
 20 21  1  0  0  0
  5 23  1  0  0  0
 23 25  1  0  0  0
 25 26  1  0  0  0
 26 27  1  0  0  0
 27 29  1  0  0  0
 29 30  2  0  0  0
 30 31  1  0  0  0
 29 32  1  0  0  0
 27 28  1  0  0  0
  4 11  1  0  0  0
 11 12  2  0  0  0
 12 13  1  0  0  0
 13 14  2  0  0  0
 10  1  1  0  0  0
  6  1  1  0  0  0
 14  3  1  0  0  0
 17 18  1  0  0  0
 21 22  1  0  0  0
 23 24  1  0  0  0
 32 33  1  0  0  0
M  END
>  <minimizedAffinity>
-2.20534

>  <minimizedRMSD>
2.50915

$$$$
CHEMBL2237737 PubChem-136263907


 33 37  0  0  0  0  0  0  0  0999 V2000
   17.2059  -10.6646   11.6253 C   0  0  0  0  0  0  0  0  0  0  0  0
   18.2947  -10.2963   10.6120 C   0  0  0  0  0  0  0  0  0  0  0  0
   17.5229   -9.5456    9.5754 C   0  0  0  0  0  0  0  0  0  0  0  0
   16.2677   -9.4568    9.8440 N   0  0  0  0  0  0  0  0  0  0  0  0
   15.9942  -10.0900   11.0550 N   0  0  0  0  0  0  0  0  0  0  0  0
   14.6682  -10.3163   11.5636 C   0  0  0  0  0  0  0  0  0  0  0  0
   14.4977  -11.1914   12.4561 O   0  0  0  0  0  0  0  0  0  0  0  0
   18.1145   -8.9644    8.3665 C   0  0  0  0  0  0  0  0  0  0  0  0
   17.7246   -9.3198    7.1131 N   0  0  0  0  0  0  0  0  0  0  0  0
   18.5090   -8.5572    6.3393 C   0  0  0  0  0  0  0  0  0  0  0  0
   18.5401   -8.5069    4.9481 C   0  0  0  0  0  0  0  0  0  0  0  0
   19.4569   -7.6197    4.3537 C   0  0  0  0  0  0  0  0  0  0  0  0
   20.3038   -6.8201    5.1537 C   0  0  0  0  0  0  0  0  0  0  0  0
   20.2439   -6.8980    6.5579 C   0  0  0  0  0  0  0  0  0  0  0  0
   19.3249   -7.7867    7.1103 C   0  0  0  0  0  0  0  0  0  0  0  0
   19.0961   -8.0245    8.4092 N   0  0  0  0  0  0  0  0  0  0  0  0
   19.5292   -7.6207    9.1956 H   0  0  0  0  0  0  0  0  0  0  0  0
   16.9183   -8.6019   14.8259 C   0  0  0  0  0  0  0  0  0  0  0  0
   16.6219   -9.1579   13.5711 C   0  0  0  0  0  0  0  0  0  0  0  0
   17.5066  -10.0621   12.9648 C   0  0  0  0  0  0  0  0  0  0  0  0
   18.6940  -10.4069   13.6160 C   0  0  0  0  0  0  0  0  0  0  0  0
   18.9957   -9.8572   14.8644 C   0  0  0  0  0  0  0  0  0  0  0  0
   18.1122   -8.9582   15.4694 C   0  0  0  0  0  0  0  0  0  0  0  0
   18.4259   -8.4206   16.7113 O   0  0  0  0  0  0  0  0  0  0  0  0
   19.2248   -8.6613   17.1378 H   0  0  0  0  0  0  0  0  0  0  0  0
   15.2676   -8.0447   16.5839 C   0  0  0  0  0  0  0  0  0  0  0  0
   16.0464   -7.7007   15.4460 O   0  0  0  0  0  0  0  0  0  0  0  0
   13.4983   -9.5470   11.0801 C   0  0  0  0  0  0  0  0  0  0  0  0
   12.3214  -10.2194   10.7239 C   0  0  0  0  0  0  0  0  0  0  0  0
   11.2123   -9.4925   10.2862 C   0  0  0  0  0  0  0  0  0  0  0  0
   11.2728   -8.1363   10.2107 N   0  0  0  0  0  0  0  0  0  0  0  0
   12.3979   -7.4559   10.5564 C   0  0  0  0  0  0  0  0  0  0  0  0
   13.5267   -8.1487   10.9988 C   0  0  0  0  0  0  0  0  0  0  0  0
 26 27  1  0  0  0
 27 18  1  0  0  0
 18 19  2  0  0  0
 19 20  1  0  0  0
 20 21  2  0  0  0
  1 20  1  0  0  0
  1  2  1  0  0  0
  2  3  1  0  0  0
  3  8  1  0  0  0
  3  4  2  0  0  0
  8  9  2  0  0  0
  9 10  1  0  0  0
 10 11  2  0  0  0
 11 12  1  0  0  0
 12 13  2  0  0  0
 13 14  1  0  0  0
 14 15  2  0  0  0
 15 16  1  0  0  0
 15 10  1  0  0  0
 16  8  1  0  0  0
  4  5  1  0  0  0
  5  6  1  0  0  0
  5  1  1  0  0  0
  6  7  2  0  0  0
  6 28  1  0  0  0
 28 29  2  0  0  0
 29 30  1  0  0  0
 30 31  2  0  0  0
 31 32  1  0  0  0
 32 33  2  0  0  0
 33 28  1  0  0  0
 21 22  1  0  0  0
 22 23  2  0  0  0
 23 24  1  0  0  0
 23 18  1  0  0  0
 16 17  1  0  0  0
 24 25  1  0  0  0
M  END
>  <minimizedAffinity>
5.84325

>  <minimizedRMSD>
2.51231

$$$$
CHEMBL1969796 NSC700444 PubChem-3005440


 28 31  0  0  0  0  0  0  0  0999 V2000
   17.5943   -9.4905   16.0209 C   0  0  0  0  0  0  0  0  0  0  0  0
   17.9640  -10.8799   15.5377 C   0  0  0  0  0  0  0  0  0  0  0  0
   18.9171  -10.7905   14.3602 C   0  0  0  0  0  0  0  0  0  0  0  0
   18.1616  -10.9621   13.0520 C   0  0  0  0  0  0  0  0  0  0  0  0
   17.9741   -9.6176   12.3697 C   0  0  0  0  0  0  0  0  0  0  0  0
   17.2308   -9.7761   11.0848 C   0  0  0  0  0  0  0  0  0  0  0  0
   16.0585  -10.4484   10.9278 N   0  0  0  0  0  0  0  0  0  0  0  0
   15.6970  -10.3508    9.6415 N   0  0  0  0  0  0  0  0  0  0  0  0
   16.6708   -9.6246    9.0665 C   0  0  0  0  0  0  0  0  0  0  0  0
   17.6012   -9.2698    9.9096 N   0  0  0  0  0  0  0  0  0  0  0  0
   18.5866   -8.5139    9.4551 N   0  0  0  0  0  0  0  0  0  0  0  0
   18.3771   -8.2888    8.1276 C   0  0  0  0  0  0  0  0  0  0  0  0
   19.3867   -7.3903    7.2126 S   0  0  0  0  0  0  0  0  0  0  0  0
   16.9388   -9.0285    7.5235 S   0  0  0  0  0  0  0  0  0  0  0  0
   19.3425   -8.1722    9.9853 H   0  0  0  0  0  0  0  0  0  0  0  0
   16.3921   -8.9885   15.2445 C   0  0  0  0  0  0  0  0  0  0  0  0
   15.5842   -8.0131   16.0879 C   0  0  0  0  0  0  0  0  0  0  0  0
   15.6838   -8.3423   17.5724 C   0  0  0  0  0  0  0  0  0  0  0  0
   14.6729   -7.5774   18.3612 C   0  0  0  0  0  0  0  0  0  0  0  0
   13.4891   -7.1155   17.8769 N   0  0  0  0  0  0  0  0  0  0  0  0
   12.8522   -6.4883   18.8747 N   0  0  0  0  0  0  0  0  0  0  0  0
   13.6777   -6.5962   19.9296 C   0  0  0  0  0  0  0  0  0  0  0  0
   14.7741   -7.2454   19.6484 N   0  0  0  0  0  0  0  0  0  0  0  0
   15.6556   -7.4121   20.6202 N   0  0  0  0  0  0  0  0  0  0  0  0
   15.1671   -6.8241   21.7481 C   0  0  0  0  0  0  0  0  0  0  0  0
   15.9763   -6.8204   23.1653 S   0  0  0  0  0  0  0  0  0  0  0  0
   13.6194   -6.0917   21.5264 S   0  0  0  0  0  0  0  0  0  0  0  0
   16.5177   -7.8810   20.5419 H   0  0  0  0  0  0  0  0  0  0  0  0
  1  2  1  0  0  0
  1 16  1  0  0  0
  2  3  1  0  0  0
  3  4  1  0  0  0
  4  5  1  0  0  0
  5  6  1  0  0  0
  6  7  2  0  0  0
  7  8  1  0  0  0
  8  9  2  0  0  0
  9 10  1  0  0  0
 10 11  1  0  0  0
 10  6  1  0  0  0
 11 12  1  0  0  0
 12 13  2  0  0  0
 12 14  1  0  0  0
 14  9  1  0  0  0
 16 17  1  0  0  0
 17 18  1  0  0  0
 18 19  1  0  0  0
 19 20  2  0  0  0
 20 21  1  0  0  0
 21 22  2  0  0  0
 22 23  1  0  0  0
 23 24  1  0  0  0
 23 19  1  0  0  0
 24 25  1  0  0  0
 25 26  2  0  0  0
 25 27  1  0  0  0
 27 22  1  0  0  0
 11 15  1  0  0  0
 24 28  1  0  0  0
M  END
>  <minimizedAffinity>
-7.80172

>  <minimizedRMSD>
2.51408

$$$$
CHEMBL129969 PubChem-144226477 PubChem-160786199 PubChem-9979846


 31 34  0  0  0  0  0  0  0  0999 V2000
   19.4405  -11.7000   13.9836 O   0  0  0  0  0  0  0  0  0  0  0  0
   18.8068  -11.0930   15.0709 C   0  0  0  0  0  0  0  0  0  0  0  0
   18.8673   -9.7047   15.2766 C   0  0  0  0  0  0  0  0  0  0  0  0
   18.2176   -9.1257   16.3696 C   0  0  0  0  0  0  0  0  0  0  0  0
   17.5006   -9.9269   17.2644 C   0  0  0  0  0  0  0  0  0  0  0  0
   17.4424  -11.3108   17.0647 C   0  0  0  0  0  0  0  0  0  0  0  0
   18.0930  -11.8904   15.9717 C   0  0  0  0  0  0  0  0  0  0  0  0
   16.7922   -9.3039   18.4284 C   0  0  0  0  0  0  0  0  0  0  0  0
   16.1387   -7.9530   18.1075 C   0  0  0  0  0  0  0  0  0  0  0  0
   15.5010   -7.3238   19.3053 C   0  0  0  0  0  0  0  0  0  0  0  0
   16.1570   -7.0185   20.3352 O   0  0  0  0  0  0  0  0  0  0  0  0
   14.1107   -7.0744   19.2165 N   0  0  0  0  0  0  0  0  0  0  0  0
   13.6334   -7.4716   17.9456 C   0  0  0  0  0  0  0  0  0  0  0  0
   12.4146   -7.3891   17.6455 O   0  0  0  0  0  0  0  0  0  0  0  0
   14.8535   -8.1064   16.8039 S   0  0  0  0  0  0  0  0  0  0  0  0
   13.5588   -6.6833   19.9318 H   0  0  0  0  0  0  0  0  0  0  0  0
   18.9173  -11.6353   12.6649 C   0  0  0  0  0  0  0  0  0  0  0  0
   17.4024  -11.6672   12.7118 C   0  0  0  0  0  0  0  0  0  0  0  0
   16.8394  -11.5783   11.3026 C   0  0  0  0  0  0  0  0  0  0  0  0
   15.9438  -10.3537   11.1309 C   0  0  0  0  0  0  0  0  0  0  0  0
   16.7277   -9.1398   10.9325 N   0  0  0  0  0  0  0  0  0  0  0  0
   16.8138   -8.1860   12.0251 C   0  0  0  0  0  0  0  0  0  0  0  0
   17.3510   -8.8443    9.6762 C   0  0  0  0  0  0  0  0  0  0  0  0
   16.9274   -9.3668    8.4934 N   0  0  0  0  0  0  0  0  0  0  0  0
   17.8015   -8.8267    7.6281 C   0  0  0  0  0  0  0  0  0  0  0  0
   18.6874   -8.0285    8.2885 C   0  0  0  0  0  0  0  0  0  0  0  0
   18.3995   -8.0445    9.5610 O   0  0  0  0  0  0  0  0  0  0  0  0
   19.7065   -7.3435    7.6335 C   0  0  0  0  0  0  0  0  0  0  0  0
   19.7947   -7.5050    6.2379 C   0  0  0  0  0  0  0  0  0  0  0  0
   18.8773   -8.3324    5.5501 C   0  0  0  0  0  0  0  0  0  0  0  0
   17.8596   -9.0094    6.2489 C   0  0  0  0  0  0  0  0  0  0  0  0
 23 24  2  0  0  0
 24 25  1  0  0  0
 25 26  2  0  0  0
 26 27  1  0  0  0
 26 28  1  0  0  0
 28 29  2  0  0  0
 29 30  1  0  0  0
 30 31  2  0  0  0
 23 21  1  0  0  0
 21 20  1  0  0  0
 20 19  1  0  0  0
 19 18  1  0  0  0
 18 17  1  0  0  0
 17  1  1  0  0  0
  1  2  1  0  0  0
  2  3  2  0  0  0
  3  4  1  0  0  0
  4  5  2  0  0  0
  5  8  1  0  0  0
  8  9  1  0  0  0
  9 10  1  0  0  0
 10 11  2  0  0  0
 10 12  1  0  0  0
 12 13  1  0  0  0
 13 14  2  0  0  0
 13 15  1  0  0  0
  5  6  1  0  0  0
  6  7  2  0  0  0
 21 22  1  0  0  0
 27 23  1  0  0  0
  7  2  1  0  0  0
 31 25  1  0  0  0
 15  9  1  0  0  0
 12 16  1  0  0  0
M  END
>  <minimizedAffinity>
-0.43009

>  <minimizedRMSD>
2.51834

$$$$
CHEMBL4080597 PubChem-137646175


 37 39  0  0  0  0  0  0  0  0999 V2000
   16.3331   -8.9559   17.1775 C   0  0  0  0  0  0  0  0  0  0  0  0
   15.8692   -8.3516   16.0045 C   0  0  0  0  0  0  0  0  0  0  0  0
   16.0849   -8.9655   14.7674 C   0  0  0  0  0  0  0  0  0  0  0  0
   16.7640  -10.1863   14.6914 C   0  0  0  0  0  0  0  0  0  0  0  0
   17.2267  -10.7889   15.8713 C   0  0  0  0  0  0  0  0  0  0  0  0
   17.0117  -10.1763   17.1087 C   0  0  0  0  0  0  0  0  0  0  0  0
   16.9691  -10.7822   13.4037 N   0  0  0  0  0  0  0  0  0  0  0  0
   17.8519  -10.3181   12.3743 C   0  0  0  0  0  0  0  0  0  0  0  0
   18.5665   -9.2942   12.5384 O   0  0  0  0  0  0  0  0  0  0  0  0
   16.4495  -11.5947   13.2059 H   0  0  0  0  0  0  0  0  0  0  0  0
   17.8996  -11.0422   11.0712 C   0  0  0  0  0  0  0  0  0  0  0  0
   17.6913  -10.1095    9.9608 N   0  0  0  0  0  0  0  0  0  0  0  0
   16.4338   -9.9231    9.4430 C   0  0  0  0  0  0  0  0  0  0  0  0
   16.2381   -9.0506    8.4198 N   0  0  0  0  0  0  0  0  0  0  0  0
   17.2641   -8.3398    7.8938 C   0  0  0  0  0  0  0  0  0  0  0  0
   18.5643   -8.5060    8.4038 C   0  0  0  0  0  0  0  0  0  0  0  0
   18.7573   -9.4134    9.4540 C   0  0  0  0  0  0  0  0  0  0  0  0
   19.9152   -9.5875    9.9290 O   0  0  0  0  0  0  0  0  0  0  0  0
   19.6243   -7.7694    7.8544 C   0  0  0  0  0  0  0  0  0  0  0  0
   19.3867   -6.8756    6.8059 C   0  0  0  0  0  0  0  0  0  0  0  0
   18.0925   -6.7141    6.3018 C   0  0  0  0  0  0  0  0  0  0  0  0
   17.0318   -7.4455    6.8448 C   0  0  0  0  0  0  0  0  0  0  0  0
   15.2566  -10.6935    9.9526 C   0  0  0  0  0  0  0  0  0  0  0  0
   14.4702   -9.8474   10.9342 C   0  0  0  0  0  0  0  0  0  0  0  0
   17.2027   -7.2417   19.0128 O   0  0  0  0  0  0  0  0  0  0  0  0
   16.0705   -8.1887   18.7331 S   0  0  0  0  0  0  0  0  0  0  0  0
   16.0154   -9.2224   19.8233 O   0  0  0  0  0  0  0  0  0  0  0  0
   14.5791   -7.3091   18.7092 N   0  0  0  0  0  0  0  0  0  0  0  0
   13.9901   -6.7675   19.8914 C   0  0  0  0  0  0  0  0  0  0  0  0
   14.5555   -6.9116   21.0095 O   0  0  0  0  0  0  0  0  0  0  0  0
   12.7541   -6.0614   19.7952 N   0  0  0  0  0  0  0  0  0  0  0  0
   14.1203   -7.1777   17.8481 H   0  0  0  0  0  0  0  0  0  0  0  0
   12.3299   -5.9598   18.9126 H   0  0  0  0  0  0  0  0  0  0  0  0
   12.1020   -5.4872   20.9615 C   0  0  0  0  0  0  0  0  0  0  0  0
   12.1020   -3.9693   20.8705 C   0  0  0  0  0  0  0  0  0  0  0  0
   12.6998   -3.3425   22.1203 C   0  0  0  0  0  0  0  0  0  0  0  0
   14.2006   -3.5582   22.1621 C   0  0  0  0  0  0  0  0  0  0  0  0
 25 26  2  0  0  0
 26 27  2  0  0  0
 26  1  1  0  0  0
  1  2  2  0  0  0
  2  3  1  0  0  0
  3  4  2  0  0  0
  4  7  1  0  0  0
  7  8  1  0  0  0
  8  9  2  0  0  0
  8 11  1  0  0  0
 11 12  1  0  0  0
 12 13  1  0  0  0
 13 14  2  0  0  0
 14 15  1  0  0  0
 15 16  2  0  0  0
 16 17  1  0  0  0
 17 18  2  0  0  0
 16 19  1  0  0  0
 19 20  2  0  0  0
 20 21  1  0  0  0
 21 22  2  0  0  0
 13 23  1  0  0  0
 23 24  1  0  0  0
  4  5  1  0  0  0
  5  6  2  0  0  0
 26 28  1  0  0  0
 28 29  1  0  0  0
 29 30  2  0  0  0
 29 31  1  0  0  0
 31 34  1  0  0  0
 34 35  1  0  0  0
 35 36  1  0  0  0
 36 37  1  0  0  0
  6  1  1  0  0  0
 17 12  1  0  0  0
 22 15  1  0  0  0
  7 10  1  0  0  0
 28 32  1  0  0  0
 31 33  1  0  0  0
M  END
>  <minimizedAffinity>
1.41839

>  <minimizedRMSD>
2.52188

$$$$
CHEMBL2204448 PubChem-71462951


 32 34  0  0  0  0  0  0  0  0999 V2000
   18.0645  -10.7215   13.3145 C   0  0  0  0  0  0  0  0  0  0  0  0
   18.0956   -9.6109   12.3745 N   0  0  0  0  0  0  0  0  0  0  0  0
   18.6900   -8.8604   12.6040 H   0  0  0  0  0  0  0  0  0  0  0  0
   17.3533   -9.4872   11.1448 C   0  0  0  0  0  0  0  0  0  0  0  0
   18.0251   -8.9693   10.0221 C   0  0  0  0  0  0  0  0  0  0  0  0
   17.3404   -8.8400    8.7956 C   0  0  0  0  0  0  0  0  0  0  0  0
   16.0402   -9.2071    8.7015 N   0  0  0  0  0  0  0  0  0  0  0  0
   15.3487   -9.6942    9.7626 C   0  0  0  0  0  0  0  0  0  0  0  0
   13.9212  -10.1066    9.5412 C   0  0  0  0  0  0  0  0  0  0  0  0
   13.1235  -10.1074   10.8359 C   0  0  0  0  0  0  0  0  0  0  0  0
   13.8481  -10.9691   11.8524 C   0  0  0  0  0  0  0  0  0  0  0  0
   15.1900  -10.3364   12.2107 C   0  0  0  0  0  0  0  0  0  0  0  0
   15.9883   -9.8612   11.0166 C   0  0  0  0  0  0  0  0  0  0  0  0
   18.0008   -8.3346    7.6717 C   0  0  0  0  0  0  0  0  0  0  0  0
   19.3421   -7.9532    7.7588 C   0  0  0  0  0  0  0  0  0  0  0  0
   20.0275   -8.0769    8.9699 C   0  0  0  0  0  0  0  0  0  0  0  0
   19.3731   -8.5830   10.0962 C   0  0  0  0  0  0  0  0  0  0  0  0
   19.2896  -10.6774   14.2140 C   0  0  0  0  0  0  0  0  0  0  0  0
   19.1976   -9.5503   15.2356 C   0  0  0  0  0  0  0  0  0  0  0  0
   17.8199   -9.4934   15.8764 C   0  0  0  0  0  0  0  0  0  0  0  0
   17.1430   -8.1684   15.5703 C   0  0  0  0  0  0  0  0  0  0  0  0
   15.7281   -8.1567   16.1271 C   0  0  0  0  0  0  0  0  0  0  0  0
   15.7396   -8.3583   17.5705 N   0  0  0  0  0  0  0  0  0  0  0  0
   14.8283   -7.7005   18.4538 C   0  0  0  0  0  0  0  0  0  0  0  0
   13.9382   -6.9310   18.0029 O   0  0  0  0  0  0  0  0  0  0  0  0
   16.4044   -8.9748   17.9541 H   0  0  0  0  0  0  0  0  0  0  0  0
   14.9510   -7.9037   19.9220 C   0  0  0  0  0  0  0  0  0  0  0  0
   15.9311   -6.8963   20.5009 C   0  0  0  0  0  0  0  0  0  0  0  0
   15.7295   -6.6973   21.9691 C   0  0  0  0  0  0  0  0  0  0  0  0
   16.2739   -5.7156   22.5369 O   0  0  0  0  0  0  0  0  0  0  0  0
   14.9526   -7.5754   22.7173 O   0  0  0  0  0  0  0  0  0  0  0  0
   14.5435   -8.3092   22.3022 H   0  0  0  0  0  0  0  0  0  0  0  0
  1 18  1  0  0  0
 18 19  1  0  0  0
 19 20  1  0  0  0
 20 21  1  0  0  0
 21 22  1  0  0  0
 22 23  1  0  0  0
 23 24  1  0  0  0
 24 25  2  0  0  0
 24 27  1  0  0  0
 27 28  1  0  0  0
 28 29  1  0  0  0
 29 30  2  0  0  0
 29 31  1  0  0  0
  1  2  1  0  0  0
  2  4  1  0  0  0
  4  5  2  0  0  0
  5  6  1  0  0  0
  6  7  2  0  0  0
  7  8  1  0  0  0
  8  9  1  0  0  0
  9 10  1  0  0  0
 10 11  1  0  0  0
 11 12  1  0  0  0
 12 13  1  0  0  0
  6 14  1  0  0  0
 14 15  2  0  0  0
 15 16  1  0  0  0
 16 17  2  0  0  0
 13  4  1  0  0  0
 17  5  1  0  0  0
 13  8  2  0  0  0
 23 26  1  0  0  0
 31 32  1  0  0  0
  2  3  1  0  0  0
M  END
>  <minimizedAffinity>
-4.81298

>  <minimizedRMSD>
2.53356

$$$$
CHEMBL2235544 PubChem-25108335


 29 32  0  0  0  0  0  0  0  0999 V2000
   16.7841   -9.9064   14.5298 C   0  0  0  0  0  0  0  0  0  0  0  0
   15.9066   -9.1800   13.8131 N   0  0  0  0  0  0  0  0  0  0  0  0
   16.3953   -9.1209   12.5839 N   0  0  0  0  0  0  0  0  0  0  0  0
   17.5467   -9.8177   12.6041 C   0  0  0  0  0  0  0  0  0  0  0  0
   17.7951  -10.3017   13.7961 O   0  0  0  0  0  0  0  0  0  0  0  0
   16.5932  -10.2781   16.2661 S   0  0  0  0  0  0  0  0  0  0  0  0
   15.6832   -8.7331   16.5673 C   0  0  0  0  0  0  0  0  0  0  0  0
   16.0542   -8.1518   17.9210 C   0  0  0  0  0  0  0  0  0  0  0  0
   14.8690   -7.2880   19.9741 N   0  0  0  0  0  0  0  0  0  0  0  0
   14.8724   -7.5043   18.5570 C   0  0  0  0  0  0  0  0  0  0  0  0
   13.8868   -7.1787   17.8432 O   0  0  0  0  0  0  0  0  0  0  0  0
   15.6782   -7.5609   20.4640 H   0  0  0  0  0  0  0  0  0  0  0  0
   10.6956   -5.0352   23.1811 C   0  0  0  0  0  0  0  0  0  0  0  0
   11.7732   -5.6169   22.3393 C   0  0  0  0  0  0  0  0  0  0  0  0
   11.6549   -5.6063   20.9471 C   0  0  0  0  0  0  0  0  0  0  0  0
   12.6692   -6.1539   20.1560 C   0  0  0  0  0  0  0  0  0  0  0  0
   13.8092   -6.7154   20.7520 C   0  0  0  0  0  0  0  0  0  0  0  0
   13.9189   -6.7224   22.1471 C   0  0  0  0  0  0  0  0  0  0  0  0
   12.9051   -6.1750   22.9395 C   0  0  0  0  0  0  0  0  0  0  0  0
   18.4472   -9.9774   11.4288 C   0  0  0  0  0  0  0  0  0  0  0  0
   17.7098   -9.7129   10.2029 N   0  0  0  0  0  0  0  0  0  0  0  0
   16.5127  -10.2134    9.9150 N   0  0  0  0  0  0  0  0  0  0  0  0
   16.0642   -9.7350    8.7541 N   0  0  0  0  0  0  0  0  0  0  0  0
   17.0203   -8.8972    8.3114 C   0  0  0  0  0  0  0  0  0  0  0  0
   17.0360   -8.1253    7.1543 C   0  0  0  0  0  0  0  0  0  0  0  0
   18.1668   -7.3104    6.9448 C   0  0  0  0  0  0  0  0  0  0  0  0
   19.2267   -7.2892    7.8835 C   0  0  0  0  0  0  0  0  0  0  0  0
   19.1735   -8.0839    9.0454 C   0  0  0  0  0  0  0  0  0  0  0  0
   18.0411   -8.8776    9.2101 C   0  0  0  0  0  0  0  0  0  0  0  0
 13 14  1  0  0  0
 14 15  2  0  0  0
 15 16  1  0  0  0
 16 17  2  0  0  0
 17  9  1  0  0  0
 17 18  1  0  0  0
  9 10  1  0  0  0
 10 11  2  0  0  0
 10  8  1  0  0  0
  8  7  1  0  0  0
  7  6  1  0  0  0
  6  1  1  0  0  0
  1  2  2  0  0  0
  2  3  1  0  0  0
  3  4  2  0  0  0
  4 20  1  0  0  0
  4  5  1  0  0  0
 20 21  1  0  0  0
 21 22  1  0  0  0
 22 23  2  0  0  0
 23 24  1  0  0  0
 24 25  2  0  0  0
 25 26  1  0  0  0
 26 27  2  0  0  0
 27 28  1  0  0  0
 28 29  2  0  0  0
 29 21  1  0  0  0
 29 24  1  0  0  0
  5  1  1  0  0  0
 18 19  2  0  0  0
 19 14  1  0  0  0
  9 12  1  0  0  0
M  END
>  <minimizedAffinity>
-8.38108

>  <minimizedRMSD>
2.53434

$$$$
CHEMBL5069445


 38 42  0  0  0  0  0  0  0  0999 V2000
   16.2171   -8.3546   14.3724 C   0  0  0  0  0  0  0  0  0  0  0  0
   15.5769   -8.3017   13.1859 C   0  0  0  0  0  0  0  0  0  0  0  0
   16.1665   -8.8966   12.0289 N   0  0  0  0  0  0  0  0  0  0  0  0
   17.4038   -9.6008   12.1086 C   0  0  0  0  0  0  0  0  0  0  0  0
   18.0424   -9.6594   13.2368 N   0  0  0  0  0  0  0  0  0  0  0  0
   17.5985   -8.9882   14.4622 C   0  0  0  0  0  0  0  0  0  0  0  0
   14.2670   -7.6054   13.0146 C   0  0  0  0  0  0  0  0  0  0  0  0
   15.7099   -8.8190   11.1601 H   0  0  0  0  0  0  0  0  0  0  0  0
   17.7490   -9.9073   15.6441 C   0  0  0  0  0  0  0  0  0  0  0  0
   16.8050  -10.9091   15.9663 C   0  0  0  0  0  0  0  0  0  0  0  0
   15.3697  -11.1973   14.9939 Cl  0  0  0  0  0  0  0  0  0  0  0  0
   17.0004  -11.7078   17.0974 C   0  0  0  0  0  0  0  0  0  0  0  0
   18.1230  -11.5242   17.9074 C   0  0  0  0  0  0  0  0  0  0  0  0
   19.0591  -10.5388   17.5892 C   0  0  0  0  0  0  0  0  0  0  0  0
   18.8715   -9.7350   16.4627 C   0  0  0  0  0  0  0  0  0  0  0  0
   14.2661   -7.9357   15.9229 N   0  0  0  0  0  0  0  0  0  0  0  0
   15.6489   -7.7565   15.6023 C   0  0  0  0  0  0  0  0  0  0  0  0
   16.4084   -7.1539   16.4087 O   0  0  0  0  0  0  0  0  0  0  0  0
   13.6542   -8.2557   15.2212 H   0  0  0  0  0  0  0  0  0  0  0  0
   13.7309   -7.6621   17.2485 C   0  0  0  0  0  0  0  0  0  0  0  0
   15.7775   -8.6921   18.2662 N   0  0  0  0  0  0  0  0  0  0  0  0
   16.5776   -8.3500   19.2628 N   0  0  0  0  0  0  0  0  0  0  0  0
   16.1365   -7.2385   19.8307 N   0  0  0  0  0  0  0  0  0  0  0  0
   15.0379   -6.8282   19.2182 N   0  0  0  0  0  0  0  0  0  0  0  0
   14.8237   -7.7454   18.2598 C   0  0  0  0  0  0  0  0  0  0  0  0
   16.5620   -6.7853   20.5941 H   0  0  0  0  0  0  0  0  0  0  0  0
   17.9067  -10.2647   10.9445 N   0  0  0  0  0  0  0  0  0  0  0  0
   18.0842  -11.2307   11.0120 H   0  0  0  0  0  0  0  0  0  0  0  0
   18.1706   -9.6291    9.6899 C   0  0  0  0  0  0  0  0  0  0  0  0
   18.9969   -8.6055    9.5421 O   0  0  0  0  0  0  0  0  0  0  0  0
   18.9698   -8.3181    8.2699 C   0  0  0  0  0  0  0  0  0  0  0  0
   18.1175   -9.1783    7.6444 C   0  0  0  0  0  0  0  0  0  0  0  0
   17.5868  -10.0355    8.5326 N   0  0  0  0  0  0  0  0  0  0  0  0
   17.8813   -9.1153    6.2738 C   0  0  0  0  0  0  0  0  0  0  0  0
   18.5619   -8.1200    5.5464 C   0  0  0  0  0  0  0  0  0  0  0  0
   19.4459   -7.2290    6.1975 C   0  0  0  0  0  0  0  0  0  0  0  0
   19.6602   -7.3222    7.5857 C   0  0  0  0  0  0  0  0  0  0  0  0
   20.0910   -6.2784    5.4801 F   0  0  0  0  0  0  0  0  0  0  0  0
 21 22  2  0  0  0
 22 23  1  0  0  0
 23 24  1  0  0  0
 24 25  2  0  0  0
 25 20  1  0  0  0
 20 16  1  0  0  0
 16 17  1  0  0  0
 17 18  2  0  0  0
 17  1  1  0  0  0
  1  2  2  0  0  0
  2  3  1  0  0  0
  3  4  1  0  0  0
  4  5  2  0  0  0
  5  6  1  0  0  0
  6  9  1  0  0  0
  9 10  2  0  0  0
 10 11  1  0  0  0
 10 12  1  0  0  0
 12 13  2  0  0  0
 13 14  1  0  0  0
 14 15  2  0  0  0
  4 27  1  0  0  0
 27 29  1  0  0  0
 29 30  1  0  0  0
 30 31  1  0  0  0
 31 32  2  0  0  0
 32 33  1  0  0  0
 32 34  1  0  0  0
 34 35  2  0  0  0
 35 36  1  0  0  0
 36 37  2  0  0  0
 36 38  1  0  0  0
  2  7  1  0  0  0
 25 21  1  0  0  0
  6  1  1  0  0  0
 15  9  1  0  0  0
 33 29  2  0  0  0
 37 31  1  0  0  0
 23 26  1  0  0  0
 16 19  1  0  0  0
  3  8  1  0  0  0
 27 28  1  0  0  0
M  END
>  <minimizedAffinity>
5.44359

>  <minimizedRMSD>
2.53571

$$$$
CHEMBL1987948 PubChem-49830301


 31 34  0  0  0  0  0  0  0  0999 V2000
   18.8328  -11.5234   14.1518 C   0  0  0  0  0  0  0  0  0  0  0  0
   19.4538  -10.6866   15.0232 N   0  0  0  0  0  0  0  0  0  0  0  0
   19.7905   -9.4231   14.6563 C   0  0  0  0  0  0  0  0  0  0  0  0
   20.5902   -8.3645   15.7974 Cl  0  0  0  0  0  0  0  0  0  0  0  0
   19.4994   -8.9689   13.3714 C   0  0  0  0  0  0  0  0  0  0  0  0
   18.8603   -9.8385   12.4832 C   0  0  0  0  0  0  0  0  0  0  0  0
   18.5415  -11.0955   12.8936 N   0  0  0  0  0  0  0  0  0  0  0  0
   18.5336   -9.4001   11.1141 C   0  0  0  0  0  0  0  0  0  0  0  0
   19.3669   -8.6905   10.2475 C   0  0  0  0  0  0  0  0  0  0  0  0
   18.7406   -8.4560    9.0659 N   0  0  0  0  0  0  0  0  0  0  0  0
   17.5273   -9.0175    9.2020 C   0  0  0  0  0  0  0  0  0  0  0  0
   16.5519   -9.0296    8.2592 N   0  0  0  0  0  0  0  0  0  0  0  0
   15.3632   -9.6433    8.5409 C   0  0  0  0  0  0  0  0  0  0  0  0
   15.1515  -10.2568    9.7951 C   0  0  0  0  0  0  0  0  0  0  0  0
   16.1694  -10.2379   10.7637 C   0  0  0  0  0  0  0  0  0  0  0  0
   17.3595   -9.5993   10.4240 C   0  0  0  0  0  0  0  0  0  0  0  0
   19.0970   -7.9794    8.2816 H   0  0  0  0  0  0  0  0  0  0  0  0
   18.4890  -12.8451   14.5660 N   0  0  0  0  0  0  0  0  0  0  0  0
   19.0239  -13.6028   14.2358 H   0  0  0  0  0  0  0  0  0  0  0  0
   16.6824  -10.6896   15.6780 C   0  0  0  0  0  0  0  0  0  0  0  0
   17.0860  -10.7088   17.1483 C   0  0  0  0  0  0  0  0  0  0  0  0
   18.2429  -11.6804   17.3571 C   0  0  0  0  0  0  0  0  0  0  0  0
   17.8376  -13.0882   16.9202 C   0  0  0  0  0  0  0  0  0  0  0  0
   17.3711  -13.1078   15.4622 C   0  0  0  0  0  0  0  0  0  0  0  0
   16.2534  -12.0885   15.2333 C   0  0  0  0  0  0  0  0  0  0  0  0
   15.5853   -9.7557   15.4862 N   0  0  0  0  0  0  0  0  0  0  0  0
   15.3788   -9.6629   14.4916 H   0  0  0  0  0  0  0  0  0  0  0  0
   14.8522   -7.6693   17.2979 C   0  0  0  0  0  0  0  0  0  0  0  0
   16.0726   -8.2238   16.1319 S   0  0  0  0  0  0  0  0  0  0  0  0
   16.1909   -7.2150   15.0241 O   0  0  0  0  0  0  0  0  0  0  0  0
   17.3965   -8.3611   16.8304 O   0  0  0  0  0  0  0  0  0  0  0  0
 28 29  1  0  0  0
 29 30  2  0  0  0
 29 31  2  0  0  0
 29 26  1  0  0  0
 20 26  1  0  0  0
 20 21  1  0  0  0
 21 22  1  0  0  0
 22 23  1  0  0  0
 23 24  1  0  0  0
 24 18  1  0  0  0
 24 25  1  0  0  0
 18  1  1  0  0  0
  1  2  2  0  0  0
  2  3  1  0  0  0
  3  4  1  0  0  0
  3  5  2  0  0  0
  5  6  1  0  0  0
  6  8  1  0  0  0
  6  7  2  0  0  0
  8  9  2  0  0  0
  9 10  1  0  0  0
 10 11  1  0  0  0
 11 12  2  0  0  0
 12 13  1  0  0  0
 13 14  2  0  0  0
 14 15  1  0  0  0
 15 16  2  0  0  0
 16  8  1  0  0  0
 16 11  1  0  0  0
  7  1  1  0  0  0
 25 20  1  0  0  0
 26 27  1  0  0  0
 18 19  1  0  0  0
 10 17  1  0  0  0
M  END
>  <minimizedAffinity>
4.41250

>  <minimizedRMSD>
2.53590

$$$$
CHEMBL5274214 PubChem-69676479


 32 35  0  0  0  0  0  0  0  0999 V2000
   18.9850  -10.6560   15.7443 C   0  0  0  0  0  0  0  0  0  0  0  0
   17.7607  -11.3813   16.3066 C   0  0  0  0  0  0  0  0  0  0  0  0
   16.4129  -10.7951   15.8630 C   0  0  0  0  0  0  0  0  0  0  0  0
   16.5037   -9.3731   15.5102 N   0  0  0  0  0  0  0  0  0  0  0  0
   17.1812   -8.9395   14.2795 C   0  0  0  0  0  0  0  0  0  0  0  0
   17.8139  -10.1084   13.5198 C   0  0  0  0  0  0  0  0  0  0  0  0
   19.0580  -10.6712   14.2154 C   0  0  0  0  0  0  0  0  0  0  0  0
   15.8312   -8.3925   16.3161 C   0  0  0  0  0  0  0  0  0  0  0  0
   15.8203   -7.1822   15.9616 O   0  0  0  0  0  0  0  0  0  0  0  0
   18.1617   -9.6862   12.1740 N   0  0  0  0  0  0  0  0  0  0  0  0
   19.0628   -9.3281   12.0033 H   0  0  0  0  0  0  0  0  0  0  0  0
   17.2345   -9.7753   11.0911 C   0  0  0  0  0  0  0  0  0  0  0  0
   16.0270  -10.4011   11.2379 N   0  0  0  0  0  0  0  0  0  0  0  0
   15.1371  -10.4854   10.1970 C   0  0  0  0  0  0  0  0  0  0  0  0
   15.4392   -9.9414    8.9790 N   0  0  0  0  0  0  0  0  0  0  0  0
   16.6358   -9.3226    8.8379 C   0  0  0  0  0  0  0  0  0  0  0  0
   17.5279   -9.2280    9.8506 C   0  0  0  0  0  0  0  0  0  0  0  0
   18.6096   -8.5442    9.3446 C   0  0  0  0  0  0  0  0  0  0  0  0
   18.3138   -8.2604    8.0484 N   0  0  0  0  0  0  0  0  0  0  0  0
   17.1099   -8.7334    7.7336 N   0  0  0  0  0  0  0  0  0  0  0  0
   16.6580   -8.6635    6.8617 H   0  0  0  0  0  0  0  0  0  0  0  0
   15.1077   -8.7882   17.5668 C   0  0  0  0  0  0  0  0  0  0  0  0
   14.4527   -7.6327   18.1676 N   0  0  0  0  0  0  0  0  0  0  0  0
   13.7983   -7.1367   17.6246 H   0  0  0  0  0  0  0  0  0  0  0  0
   14.7053   -7.1772   19.5002 C   0  0  0  0  0  0  0  0  0  0  0  0
   13.6262   -6.8069   20.3095 C   0  0  0  0  0  0  0  0  0  0  0  0
   13.8455   -6.3635   21.6171 C   0  0  0  0  0  0  0  0  0  0  0  0
   15.1465   -6.2914   22.1222 C   0  0  0  0  0  0  0  0  0  0  0  0
   16.2287   -6.6624   21.3197 C   0  0  0  0  0  0  0  0  0  0  0  0
   16.0097   -7.1049   20.0118 C   0  0  0  0  0  0  0  0  0  0  0  0
   17.8566   -6.5777   21.9557 Cl  0  0  0  0  0  0  0  0  0  0  0  0
   12.4902   -5.9001   22.6224 Cl  0  0  0  0  0  0  0  0  0  0  0  0
  1  2  1  0  0  0
  2  3  1  0  0  0
  3  4  1  0  0  0
  4  5  1  0  0  0
  5  6  1  0  0  0
  6  7  1  0  0  0
  6 10  1  0  0  0
 10 12  1  0  0  0
 12 13  2  0  0  0
 13 14  1  0  0  0
 14 15  2  0  0  0
 15 16  1  0  0  0
 16 17  2  0  0  0
 17 18  1  0  0  0
 18 19  2  0  0  0
 19 20  1  0  0  0
  4  8  1  0  0  0
  8  9  2  0  0  0
  8 22  1  0  0  0
 22 23  1  0  0  0
 23 25  1  0  0  0
 25 26  2  0  0  0
 26 27  1  0  0  0
 27 28  2  0  0  0
 28 29  1  0  0  0
 29 30  2  0  0  0
 29 31  1  0  0  0
 27 32  1  0  0  0
  7  1  1  0  0  0
 17 12  1  0  0  0
 20 16  1  0  0  0
 30 25  1  0  0  0
 10 11  1  0  0  0
 20 21  1  0  0  0
 23 24  1  0  0  0
M  END
>  <minimizedAffinity>
-7.42761

>  <minimizedRMSD>
2.53693

$$$$
CHEMBL365109 PubChem-10409591


 32 34  0  0  0  0  0  0  0  0999 V2000
   18.2695   -8.3309    7.6204 C   0  0  0  0  0  0  0  0  0  0  0  0
   17.1815   -9.1168    7.2484 C   0  0  0  0  0  0  0  0  0  0  0  0
   16.6324   -9.6081    8.3693 N   0  0  0  0  0  0  0  0  0  0  0  0
   15.5445  -10.3689    8.4549 N   0  0  0  0  0  0  0  0  0  0  0  0
   15.0947  -10.7386    9.6858 C   0  0  0  0  0  0  0  0  0  0  0  0
   15.7640  -10.3309   10.8034 N   0  0  0  0  0  0  0  0  0  0  0  0
   16.8848   -9.5612   10.7156 C   0  0  0  0  0  0  0  0  0  0  0  0
   17.3145   -9.1779    9.4382 C   0  0  0  0  0  0  0  0  0  0  0  0
   18.3529   -8.3579    9.0243 C   0  0  0  0  0  0  0  0  0  0  0  0
   19.2959   -7.6099    9.9225 C   0  0  0  0  0  0  0  0  0  0  0  0
   19.1544   -6.1093    9.7571 C   0  0  0  0  0  0  0  0  0  0  0  0
   20.7355   -8.0508    9.7338 C   0  0  0  0  0  0  0  0  0  0  0  0
   19.1173   -7.5588    6.6771 C   0  0  0  0  0  0  0  0  0  0  0  0
   18.9720   -6.3118    6.5950 O   0  0  0  0  0  0  0  0  0  0  0  0
   20.0695   -8.1626    5.8455 O   0  0  0  0  0  0  0  0  0  0  0  0
   18.5422   -8.3568    4.0074 C   0  0  0  0  0  0  0  0  0  0  0  0
   19.9865   -8.1811    4.4278 C   0  0  0  0  0  0  0  0  0  0  0  0
   17.5739   -9.1792   11.9098 N   0  0  0  0  0  0  0  0  0  0  0  0
   17.8587   -8.2411   12.0007 H   0  0  0  0  0  0  0  0  0  0  0  0
   17.8735  -10.0814   12.9803 C   0  0  0  0  0  0  0  0  0  0  0  0
   18.6404  -11.2341   12.7677 C   0  0  0  0  0  0  0  0  0  0  0  0
   18.9191  -12.0962   13.8285 C   0  0  0  0  0  0  0  0  0  0  0  0
   18.4342  -11.8194   15.1100 C   0  0  0  0  0  0  0  0  0  0  0  0
   18.7301  -12.6842   16.1115 F   0  0  0  0  0  0  0  0  0  0  0  0
   17.6542  -10.6649   15.3376 C   0  0  0  0  0  0  0  0  0  0  0  0
   17.3821   -9.8086   14.2591 C   0  0  0  0  0  0  0  0  0  0  0  0
   17.1136  -10.3254   16.6740 C   0  0  0  0  0  0  0  0  0  0  0  0
   16.4518   -9.2631   16.8311 O   0  0  0  0  0  0  0  0  0  0  0  0
   17.3319  -11.1853   17.7960 N   0  0  0  0  0  0  0  0  0  0  0  0
   17.8591  -12.0081   17.6764 H   0  0  0  0  0  0  0  0  0  0  0  0
   16.8291  -10.8924   19.0198 O   0  0  0  0  0  0  0  0  0  0  0  0
   16.8058  -12.1114   19.7002 C   0  0  0  0  0  0  0  0  0  0  0  0
 16 17  1  0  0  0
 17 15  1  0  0  0
 15 13  1  0  0  0
 13 14  2  0  0  0
 13  1  1  0  0  0
  1  2  2  0  0  0
  2  3  1  0  0  0
  3  4  1  0  0  0
  4  5  2  0  0  0
  5  6  1  0  0  0
  6  7  2  0  0  0
  7 18  1  0  0  0
  7  8  1  0  0  0
 18 20  1  0  0  0
 20 21  2  0  0  0
 21 22  1  0  0  0
 22 23  2  0  0  0
 23 24  1  0  0  0
 23 25  1  0  0  0
 25 27  1  0  0  0
 25 26  2  0  0  0
 27 28  2  0  0  0
 27 29  1  0  0  0
 29 31  1  0  0  0
 31 32  1  0  0  0
 26 20  1  0  0  0
  8  9  2  0  0  0
  8  3  1  0  0  0
  9 10  1  0  0  0
  9  1  1  0  0  0
 10 11  1  0  0  0
 10 12  1  0  0  0
 18 19  1  0  0  0
 29 30  1  0  0  0
M  END
>  <minimizedAffinity>
0.04025

>  <minimizedRMSD>
2.54580

$$$$
CHEMBL1597440 MCULE-4529163817 MolPort-001-990-957


 34 38  0  0  0  0  0  0  0  0999 V2000
   16.6651   -9.7620   13.3257 C   0  0  0  0  0  0  0  0  0  0  0  0
   15.4129   -9.1327   13.3665 C   0  0  0  0  0  0  0  0  0  0  0  0
   14.5553   -9.2068   12.2668 C   0  0  0  0  0  0  0  0  0  0  0  0
   14.9410   -9.9022   11.1087 C   0  0  0  0  0  0  0  0  0  0  0  0
   16.1987  -10.5287   11.0708 C   0  0  0  0  0  0  0  0  0  0  0  0
   17.0537  -10.4496   12.1741 C   0  0  0  0  0  0  0  0  0  0  0  0
   17.7417  -11.4203   16.2549 C   0  0  0  0  0  0  0  0  0  0  0  0
   18.1450  -12.6866   16.4556 N   0  0  0  0  0  0  0  0  0  0  0  0
   18.6725  -13.1130   15.3121 N   0  0  0  0  0  0  0  0  0  0  0  0
   18.5978  -12.1145   14.4036 C   0  0  0  0  0  0  0  0  0  0  0  0
   19.0799  -12.2201   13.0000 C   0  0  0  0  0  0  0  0  0  0  0  0
   18.0035  -11.0204   14.9874 C   0  0  0  0  0  0  0  0  0  0  0  0
   17.6288   -9.6631   14.4725 C   0  0  0  0  0  0  0  0  0  0  0  0
   17.0686   -8.7794   15.5865 C   0  0  0  0  0  0  0  0  0  0  0  0
   16.8341   -9.2541   16.8401 C   0  0  0  0  0  0  0  0  0  0  0  0
   16.2786   -8.4038   17.8414 N   0  0  0  0  0  0  0  0  0  0  0  0
   17.1431  -10.5827   17.1888 O   0  0  0  0  0  0  0  0  0  0  0  0
   18.0650  -13.2010   17.2912 H   0  0  0  0  0  0  0  0  0  0  0  0
   16.0531   -7.4703   17.6248 H   0  0  0  0  0  0  0  0  0  0  0  0
   16.1205   -8.7504   18.7493 H   0  0  0  0  0  0  0  0  0  0  0  0
   16.8009   -7.3948   15.2718 C   0  0  0  0  0  0  0  0  0  0  0  0
   16.5865   -6.2866   15.0164 N   0  0  0  0  0  0  0  0  0  0  0  0
   14.0969   -9.9765    9.9945 O   0  0  0  0  0  0  0  0  0  0  0  0
   12.6874  -10.1198   10.1047 C   0  0  0  0  0  0  0  0  0  0  0  0
   16.6771  -11.2193    9.8359 C   0  0  0  0  0  0  0  0  0  0  0  0
   17.0440  -10.2355    8.8272 N   0  0  0  0  0  0  0  0  0  0  0  0
   17.9768   -9.2781    8.9139 C   0  0  0  0  0  0  0  0  0  0  0  0
   18.8753   -8.9897    9.9384 C   0  0  0  0  0  0  0  0  0  0  0  0
   19.7318   -7.8892    9.7399 C   0  0  0  0  0  0  0  0  0  0  0  0
   19.6620   -7.1254    8.5500 C   0  0  0  0  0  0  0  0  0  0  0  0
   18.7334   -7.4493    7.5404 C   0  0  0  0  0  0  0  0  0  0  0  0
   17.9064   -8.5438    7.7712 C   0  0  0  0  0  0  0  0  0  0  0  0
   16.9311   -9.0441    6.9898 N   0  0  0  0  0  0  0  0  0  0  0  0
   16.4193  -10.0732    7.6655 N   0  0  0  0  0  0  0  0  0  0  0  0
  7  8  1  0  0  0
  8  9  1  0  0  0
  9 10  2  0  0  0
 10 11  1  0  0  0
 10 12  1  0  0  0
 12 13  1  0  0  0
 13 14  1  0  0  0
 14 21  1  0  0  0
 21 22  3  0  0  0
 14 15  2  0  0  0
 15 16  1  0  0  0
 15 17  1  0  0  0
 13  1  1  0  0  0
  1  2  2  0  0  0
  2  3  1  0  0  0
  3  4  2  0  0  0
  4  5  1  0  0  0
  5 25  1  0  0  0
 25 26  1  0  0  0
 26 27  1  0  0  0
 27 28  2  0  0  0
 28 29  1  0  0  0
 29 30  2  0  0  0
 30 31  1  0  0  0
 31 32  2  0  0  0
 32 33  1  0  0  0
 33 34  2  0  0  0
  5  6  2  0  0  0
  4 23  1  0  0  0
 23 24  1  0  0  0
 12  7  2  0  0  0
  6  1  1  0  0  0
 17  7  1  0  0  0
 34 26  1  0  0  0
 32 27  1  0  0  0
  8 18  1  0  0  0
 16 19  1  0  0  0
 16 20  1  0  0  0
M  END
>  <minimizedAffinity>
-1.64953

>  <minimizedRMSD>
2.54930

$$$$
CHEMBL1783007 PubChem-136033427


 40 42  0  0  0  0  0  0  0  0999 V2000
   17.7851  -10.9476   13.6133 C   0  0  0  0  0  0  0  0  0  0  0  0
   18.7043  -12.0707   13.9708 C   0  0  0  0  0  0  0  0  0  0  0  0
   18.4616  -12.8072   14.9640 O   0  0  0  0  0  0  0  0  0  0  0  0
   19.8458  -12.2915   13.2115 O   0  0  0  0  0  0  0  0  0  0  0  0
   20.0295  -11.7459   12.4722 H   0  0  0  0  0  0  0  0  0  0  0  0
   17.1038  -11.2262   12.3553 N   0  0  0  0  0  0  0  0  0  0  0  0
   16.8210  -10.2097   11.3918 C   0  0  0  0  0  0  0  0  0  0  0  0
   17.2011   -9.0232   11.5799 O   0  0  0  0  0  0  0  0  0  0  0  0
   16.8277  -12.1511   12.1618 H   0  0  0  0  0  0  0  0  0  0  0  0
   16.0348  -10.5458   10.1693 C   0  0  0  0  0  0  0  0  0  0  0  0
   15.7234   -9.2924    9.3597 C   0  0  0  0  0  0  0  0  0  0  0  0
   16.9276   -8.8098    8.6212 C   0  0  0  0  0  0  0  0  0  0  0  0
   16.9634   -8.8620    7.2624 N   0  0  0  0  0  0  0  0  0  0  0  0
   18.0564   -8.4378    6.5774 C   0  0  0  0  0  0  0  0  0  0  0  0
   19.1727   -7.9342    7.2776 C   0  0  0  0  0  0  0  0  0  0  0  0
   19.1105   -7.8881    8.6773 C   0  0  0  0  0  0  0  0  0  0  0  0
   20.0789   -7.4477    9.3533 O   0  0  0  0  0  0  0  0  0  0  0  0
   17.9924   -8.3248    9.3148 N   0  0  0  0  0  0  0  0  0  0  0  0
   20.2994   -7.4963    6.5673 C   0  0  0  0  0  0  0  0  0  0  0  0
   20.3134   -7.5606    5.1700 C   0  0  0  0  0  0  0  0  0  0  0  0
   19.2050   -8.0609    4.4784 C   0  0  0  0  0  0  0  0  0  0  0  0
   18.0775   -8.4992    5.1806 C   0  0  0  0  0  0  0  0  0  0  0  0
   17.9524   -8.2893   10.2979 H   0  0  0  0  0  0  0  0  0  0  0  0
   16.7648  -10.7344   14.7241 C   0  0  0  0  0  0  0  0  0  0  0  0
   15.8879   -9.5188   14.4417 C   0  0  0  0  0  0  0  0  0  0  0  0
   16.4941   -8.2474   15.0246 C   0  0  0  0  0  0  0  0  0  0  0  0
   17.4483   -8.5684   16.1682 C   0  0  0  0  0  0  0  0  0  0  0  0
   16.7306   -8.6345   17.4351 N   0  0  0  0  0  0  0  0  0  0  0  0
   15.5060   -7.9366   17.6724 C   0  0  0  0  0  0  0  0  0  0  0  0
   15.0247   -7.1828   16.7832 O   0  0  0  0  0  0  0  0  0  0  0  0
   14.8426   -8.1082   18.9311 N   0  0  0  0  0  0  0  0  0  0  0  0
   17.1062   -9.1846   18.1601 H   0  0  0  0  0  0  0  0  0  0  0  0
   15.2751   -8.7108   19.5785 H   0  0  0  0  0  0  0  0  0  0  0  0
   13.6148   -7.4941   19.3467 C   0  0  0  0  0  0  0  0  0  0  0  0
   12.4308   -7.6192   18.6029 C   0  0  0  0  0  0  0  0  0  0  0  0
   11.2532   -7.0060   19.0405 C   0  0  0  0  0  0  0  0  0  0  0  0
   11.2511   -6.2637   20.2243 C   0  0  0  0  0  0  0  0  0  0  0  0
   12.4264   -6.1347   20.9698 C   0  0  0  0  0  0  0  0  0  0  0  0
   13.6034   -6.7482   20.5308 C   0  0  0  0  0  0  0  0  0  0  0  0
   10.1151   -7.1309   18.3162 F   0  0  0  0  0  0  0  0  0  0  0  0
  2  3  2  0  0  0
  2  1  1  0  0  0
  1 24  1  0  0  0
 24 25  1  0  0  0
 25 26  1  0  0  0
 26 27  1  0  0  0
 27 28  1  0  0  0
 28 29  1  0  0  0
 29 30  2  0  0  0
 29 31  1  0  0  0
 31 34  1  0  0  0
 34 35  2  0  0  0
 35 36  1  0  0  0
 36 37  2  0  0  0
 37 38  1  0  0  0
 38 39  2  0  0  0
 36 40  1  0  0  0
  1  6  1  0  0  0
  6  7  1  0  0  0
  7  8  2  0  0  0
  7 10  1  0  0  0
 10 11  1  0  0  0
 11 12  1  0  0  0
 12 13  2  0  0  0
 13 14  1  0  0  0
 14 15  2  0  0  0
 15 16  1  0  0  0
 16 17  2  0  0  0
 16 18  1  0  0  0
 15 19  1  0  0  0
 19 20  2  0  0  0
 20 21  1  0  0  0
 21 22  2  0  0  0
  2  4  1  0  0  0
 39 34  1  0  0  0
 18 12  1  0  0  0
 22 14  1  0  0  0
 28 32  1  0  0  0
 31 33  1  0  0  0
  6  9  1  0  0  0
 18 23  1  0  0  0
  4  5  1  0  0  0
M  END
>  <minimizedAffinity>
-7.31410

>  <minimizedRMSD>
2.55173

$$$$
CHEMBL4785697 PubChem-162667473


 37 41  0  0  0  0  0  0  0  0999 V2000
   17.0215   -9.9994   14.8736 N   0  0  0  0  0  0  0  0  0  0  0  0
   16.1771   -9.0137   14.6181 N   0  0  0  0  0  0  0  0  0  0  0  0
   16.0782   -8.2177   15.6700 N   0  0  0  0  0  0  0  0  0  0  0  0
   16.8939   -8.7331   16.6095 C   0  0  0  0  0  0  0  0  0  0  0  0
   17.4947   -9.8781   16.1257 C   0  0  0  0  0  0  0  0  0  0  0  0
   17.3379  -11.0784   13.9507 C   0  0  0  0  0  0  0  0  0  0  0  0
   18.3959  -10.6394   12.9465 C   0  0  0  0  0  0  0  0  0  0  0  0
   17.9388   -9.4806   12.1894 N   0  0  0  0  0  0  0  0  0  0  0  0
   18.0760   -8.5878   12.5809 H   0  0  0  0  0  0  0  0  0  0  0  0
   16.0816  -10.2394   10.7589 C   0  0  0  0  0  0  0  0  0  0  0  0
   15.4756  -10.3126    9.5033 C   0  0  0  0  0  0  0  0  0  0  0  0
   16.0640   -9.7323    8.4241 N   0  0  0  0  0  0  0  0  0  0  0  0
   17.2463   -9.0703    8.5286 C   0  0  0  0  0  0  0  0  0  0  0  0
   17.8955   -8.9721    9.7814 C   0  0  0  0  0  0  0  0  0  0  0  0
   17.3008   -9.5646   10.9075 C   0  0  0  0  0  0  0  0  0  0  0  0
   19.1139   -8.2846    9.8744 C   0  0  0  0  0  0  0  0  0  0  0  0
   19.6810   -7.7026    8.7372 C   0  0  0  0  0  0  0  0  0  0  0  0
   19.0358   -7.8029    7.5011 C   0  0  0  0  0  0  0  0  0  0  0  0
   17.8205   -8.4854    7.3966 C   0  0  0  0  0  0  0  0  0  0  0  0
   19.7511   -7.0718    6.0810 Cl  0  0  0  0  0  0  0  0  0  0  0  0
   17.0505   -8.1750   17.9827 C   0  0  0  0  0  0  0  0  0  0  0  0
   15.7500   -8.0484   18.6259 N   0  0  0  0  0  0  0  0  0  0  0  0
   14.9735   -8.4826   18.2043 H   0  0  0  0  0  0  0  0  0  0  0  0
   15.5484   -7.3215   19.8436 C   0  0  0  0  0  0  0  0  0  0  0  0
   16.5749   -7.1590   20.7232 N   0  0  0  0  0  0  0  0  0  0  0  0
   16.4088   -6.4745   21.8854 C   0  0  0  0  0  0  0  0  0  0  0  0
   15.2011   -5.9349   22.1944 N   0  0  0  0  0  0  0  0  0  0  0  0
   14.1442   -6.0693   21.3533 C   0  0  0  0  0  0  0  0  0  0  0  0
   14.2936   -6.7747   20.1440 C   0  0  0  0  0  0  0  0  0  0  0  0
   13.2005   -6.9089   19.2806 C   0  0  0  0  0  0  0  0  0  0  0  0
   11.9568   -6.3461   19.6120 C   0  0  0  0  0  0  0  0  0  0  0  0
   11.8105   -5.6434   20.8193 C   0  0  0  0  0  0  0  0  0  0  0  0
   12.9094   -5.5094   21.6846 C   0  0  0  0  0  0  0  0  0  0  0  0
   10.5667   -5.0874   21.1382 O   0  0  0  0  0  0  0  0  0  0  0  0
   10.4111   -4.0470   22.0937 C   0  0  0  0  0  0  0  0  0  0  0  0
   10.8553   -6.4725   18.7583 O   0  0  0  0  0  0  0  0  0  0  0  0
   10.4472   -7.7177   18.2083 C   0  0  0  0  0  0  0  0  0  0  0  0
 10 11  2  0  0  0
 11 12  1  0  0  0
 12 13  2  0  0  0
 13 14  1  0  0  0
 14 15  2  0  0  0
 15  8  1  0  0  0
  8  7  1  0  0  0
  7  6  1  0  0  0
  6  1  1  0  0  0
  1  2  1  0  0  0
  2  3  2  0  0  0
  3  4  1  0  0  0
  4  5  2  0  0  0
  4 21  1  0  0  0
 21 22  1  0  0  0
 22 24  1  0  0  0
 24 25  2  0  0  0
 25 26  1  0  0  0
 26 27  2  0  0  0
 27 28  1  0  0  0
 28 29  2  0  0  0
 29 30  1  0  0  0
 30 31  2  0  0  0
 31 32  1  0  0  0
 32 33  2  0  0  0
 32 34  1  0  0  0
 34 35  1  0  0  0
 31 36  1  0  0  0
 36 37  1  0  0  0
 14 16  1  0  0  0
 16 17  2  0  0  0
 17 18  1  0  0  0
 18 19  2  0  0  0
 18 20  1  0  0  0
 15 10  1  0  0  0
  5  1  1  0  0  0
 29 24  1  0  0  0
 19 13  1  0  0  0
 33 28  1  0  0  0
  8  9  1  0  0  0
 22 23  1  0  0  0
M  END
>  <minimizedAffinity>
-7.83757

>  <minimizedRMSD>
2.55237

$$$$
CHEMBL46751 PubChem-44291366


 38 41  0  0  0  0  0  0  0  0999 V2000
   16.6511  -10.2059   14.8161 C   0  0  0  0  0  0  0  0  0  0  0  0
   17.7886  -10.6704   14.1465 C   0  0  0  0  0  0  0  0  0  0  0  0
   17.8824  -10.5483   12.7577 C   0  0  0  0  0  0  0  0  0  0  0  0
   16.8368   -9.9674   12.0244 C   0  0  0  0  0  0  0  0  0  0  0  0
   15.6947   -9.5211   12.6978 C   0  0  0  0  0  0  0  0  0  0  0  0
   15.5993   -9.6430   14.0868 C   0  0  0  0  0  0  0  0  0  0  0  0
   16.8967   -9.8220   10.5990 N   0  0  0  0  0  0  0  0  0  0  0  0
   17.9375   -9.1893    9.8369 C   0  0  0  0  0  0  0  0  0  0  0  0
   18.9231   -8.6684   10.4251 O   0  0  0  0  0  0  0  0  0  0  0  0
   16.1433  -10.1960   10.0874 H   0  0  0  0  0  0  0  0  0  0  0  0
   17.8318   -9.1509    8.3538 C   0  0  0  0  0  0  0  0  0  0  0  0
   18.7504   -8.4708    7.5135 C   0  0  0  0  0  0  0  0  0  0  0  0
   18.5489   -8.5018    6.1100 C   0  0  0  0  0  0  0  0  0  0  0  0
   17.4917   -9.1732    5.5851 N   0  0  0  0  0  0  0  0  0  0  0  0
   16.6040   -9.8310    6.3729 C   0  0  0  0  0  0  0  0  0  0  0  0
   16.7604   -9.8302    7.7579 C   0  0  0  0  0  0  0  0  0  0  0  0
   19.4398   -7.8452    5.2556 C   0  0  0  0  0  0  0  0  0  0  0  0
   20.5350   -7.1546    5.7781 C   0  0  0  0  0  0  0  0  0  0  0  0
   20.7443   -7.1177    7.1578 C   0  0  0  0  0  0  0  0  0  0  0  0
   19.8590   -7.7717    8.0185 C   0  0  0  0  0  0  0  0  0  0  0  0
   16.5294  -10.3361   16.3011 C   0  0  0  0  0  0  0  0  0  0  0  0
   17.2176   -9.2110   17.0901 C   0  0  0  0  0  0  0  0  0  0  0  0
   15.1317   -7.8296   17.7273 C   0  0  0  0  0  0  0  0  0  0  0  0
   14.8668   -7.5718   16.5217 O   0  0  0  0  0  0  0  0  0  0  0  0
   16.3243   -8.5598   18.0505 N   0  0  0  0  0  0  0  0  0  0  0  0
   16.5631   -8.6291   19.0031 H   0  0  0  0  0  0  0  0  0  0  0  0
   14.2149   -7.3697   18.8049 C   0  0  0  0  0  0  0  0  0  0  0  0
   14.6549   -7.2811   20.1462 C   0  0  0  0  0  0  0  0  0  0  0  0
   15.9179   -7.6232   20.5029 F   0  0  0  0  0  0  0  0  0  0  0  0
   13.7815   -6.8553   21.1503 C   0  0  0  0  0  0  0  0  0  0  0  0
   12.4665   -6.5109   20.8429 C   0  0  0  0  0  0  0  0  0  0  0  0
   12.0166   -6.5938   19.5266 C   0  0  0  0  0  0  0  0  0  0  0  0
   12.8762   -7.0209   18.5111 C   0  0  0  0  0  0  0  0  0  0  0  0
   12.3934   -7.0745   17.2442 F   0  0  0  0  0  0  0  0  0  0  0  0
   18.0294   -8.2387   16.2797 C   0  0  0  0  0  0  0  0  0  0  0  0
   17.4855   -7.5100   15.4081 O   0  0  0  0  0  0  0  0  0  0  0  0
   19.4072   -8.1857   16.4490 O   0  0  0  0  0  0  0  0  0  0  0  0
   19.8209   -8.7240   17.0948 H   0  0  0  0  0  0  0  0  0  0  0  0
 23 24  2  0  0  0
 23 27  1  0  0  0
 27 28  2  0  0  0
 28 29  1  0  0  0
 28 30  1  0  0  0
 30 31  2  0  0  0
 31 32  1  0  0  0
 32 33  2  0  0  0
 33 34  1  0  0  0
 23 25  1  0  0  0
 25 22  1  0  0  0
 22 35  1  0  0  0
 35 36  2  0  0  0
 35 37  1  0  0  0
 22 21  1  0  0  0
 21  1  1  0  0  0
  1  2  2  0  0  0
  2  3  1  0  0  0
  3  4  2  0  0  0
  4  7  1  0  0  0
  7  8  1  0  0  0
  8  9  2  0  0  0
  8 11  1  0  0  0
 11 12  2  0  0  0
 12 13  1  0  0  0
 13 14  2  0  0  0
 14 15  1  0  0  0
 15 16  2  0  0  0
 13 17  1  0  0  0
 17 18  2  0  0  0
 18 19  1  0  0  0
 19 20  2  0  0  0
  4  5  1  0  0  0
  5  6  2  0  0  0
 33 27  1  0  0  0
  6  1  1  0  0  0
 16 11  1  0  0  0
 20 12  1  0  0  0
 25 26  1  0  0  0
 37 38  1  0  0  0
  7 10  1  0  0  0
M  END
>  <minimizedAffinity>
-5.12657

>  <minimizedRMSD>
2.55260

$$$$
CHEMBL2235566 PubChem-25108272


 28 31  0  0  0  0  0  0  0  0999 V2000
   17.5754   -9.7175   14.1400 C   0  0  0  0  0  0  0  0  0  0  0  0
   18.5914   -9.9651   13.2931 N   0  0  0  0  0  0  0  0  0  0  0  0
   18.0536  -10.0431   12.0861 N   0  0  0  0  0  0  0  0  0  0  0  0
   16.7335   -9.8377   12.2497 C   0  0  0  0  0  0  0  0  0  0  0  0
   16.4295   -9.6419   13.5091 O   0  0  0  0  0  0  0  0  0  0  0  0
   17.7700   -9.5208   15.9069 S   0  0  0  0  0  0  0  0  0  0  0  0
   16.0573   -8.9509   16.1371 C   0  0  0  0  0  0  0  0  0  0  0  0
   14.7913   -8.2484   18.2045 N   0  0  0  0  0  0  0  0  0  0  0  0
   15.9477   -8.1191   17.3674 C   0  0  0  0  0  0  0  0  0  0  0  0
   16.8819   -7.3276   17.6612 O   0  0  0  0  0  0  0  0  0  0  0  0
   14.0883   -8.8641   17.8947 H   0  0  0  0  0  0  0  0  0  0  0  0
   13.7212   -5.5691   23.1486 C   0  0  0  0  0  0  0  0  0  0  0  0
   14.0103   -6.2630   21.8670 C   0  0  0  0  0  0  0  0  0  0  0  0
   12.9737   -6.5365   20.9710 C   0  0  0  0  0  0  0  0  0  0  0  0
   13.2459   -7.1895   19.7653 C   0  0  0  0  0  0  0  0  0  0  0  0
   14.5534   -7.5728   19.4468 C   0  0  0  0  0  0  0  0  0  0  0  0
   15.5895   -7.2951   20.3516 C   0  0  0  0  0  0  0  0  0  0  0  0
   15.3188   -6.6419   21.5572 C   0  0  0  0  0  0  0  0  0  0  0  0
   15.7405   -9.8659   11.1401 C   0  0  0  0  0  0  0  0  0  0  0  0
   16.4284   -9.8495    9.8585 N   0  0  0  0  0  0  0  0  0  0  0  0
   16.2041  -10.7029    8.8648 N   0  0  0  0  0  0  0  0  0  0  0  0
   17.0285  -10.4698    7.8431 N   0  0  0  0  0  0  0  0  0  0  0  0
   17.7990   -9.4342    8.2253 C   0  0  0  0  0  0  0  0  0  0  0  0
   18.8287   -8.8092    7.5289 C   0  0  0  0  0  0  0  0  0  0  0  0
   19.4876   -7.7469    8.1798 C   0  0  0  0  0  0  0  0  0  0  0  0
   19.1061   -7.3504    9.4843 C   0  0  0  0  0  0  0  0  0  0  0  0
   18.0587   -8.0088   10.1582 C   0  0  0  0  0  0  0  0  0  0  0  0
   17.4324   -9.0495    9.4773 C   0  0  0  0  0  0  0  0  0  0  0  0
 12 13  1  0  0  0
 13 14  2  0  0  0
 14 15  1  0  0  0
 15 16  2  0  0  0
 16  8  1  0  0  0
 16 17  1  0  0  0
  8  9  1  0  0  0
  9 10  2  0  0  0
  9  7  1  0  0  0
  7  6  1  0  0  0
  6  1  1  0  0  0
  1  2  2  0  0  0
  2  3  1  0  0  0
  3  4  2  0  0  0
  4 19  1  0  0  0
  4  5  1  0  0  0
 19 20  1  0  0  0
 20 21  1  0  0  0
 21 22  2  0  0  0
 22 23  1  0  0  0
 23 24  2  0  0  0
 24 25  1  0  0  0
 25 26  2  0  0  0
 26 27  1  0  0  0
 27 28  2  0  0  0
 28 20  1  0  0  0
 28 23  1  0  0  0
  5  1  1  0  0  0
 17 18  2  0  0  0
 18 13  1  0  0  0
  8 11  1  0  0  0
M  END
>  <minimizedAffinity>
-5.40470

>  <minimizedRMSD>
2.55449

$$$$
CHEMBL2407810 MCULE-3833472822 PubChem-71765013 VOLVYDZZOSTLOJ-UHFFFAOYSA-N


 28 30  0  0  0  0  0  0  0  0999 V2000
   17.1215   -9.2612   13.4956 N   0  0  0  0  0  0  0  0  0  0  0  0
   17.5724  -10.0320   12.3780 C   0  0  0  0  0  0  0  0  0  0  0  0
   18.3660  -10.9943   12.5596 O   0  0  0  0  0  0  0  0  0  0  0  0
   16.4611   -8.5481   13.3392 H   0  0  0  0  0  0  0  0  0  0  0  0
   17.1067   -9.7063   11.0123 C   0  0  0  0  0  0  0  0  0  0  0  0
   17.8359   -9.0930   10.0621 N   0  0  0  0  0  0  0  0  0  0  0  0
   19.1147   -8.6351   10.0853 C   0  0  0  0  0  0  0  0  0  0  0  0
   19.6214   -8.0268    8.9285 C   0  0  0  0  0  0  0  0  0  0  0  0
   18.8017   -7.9094    7.7908 C   0  0  0  0  0  0  0  0  0  0  0  0
   17.4853   -8.3961    7.8092 C   0  0  0  0  0  0  0  0  0  0  0  0
   17.0354   -8.9908    8.9857 C   0  0  0  0  0  0  0  0  0  0  0  0
   15.8063   -9.5089    9.1800 N   0  0  0  0  0  0  0  0  0  0  0  0
   15.8554   -9.9578   10.4564 C   0  0  0  0  0  0  0  0  0  0  0  0
   14.6998  -10.6187   11.1246 C   0  0  0  0  0  0  0  0  0  0  0  0
   19.3332   -7.2657    6.5615 C   0  0  0  0  0  0  0  0  0  0  0  0
   17.5958   -9.4842   14.8547 C   0  0  0  0  0  0  0  0  0  0  0  0
   14.7978   -7.9029   17.6983 C   0  0  0  0  0  0  0  0  0  0  0  0
   15.8995   -8.6469   18.1360 C   0  0  0  0  0  0  0  0  0  0  0  0
   16.8074   -9.1666   17.2089 C   0  0  0  0  0  0  0  0  0  0  0  0
   16.6167   -8.9442   15.8411 C   0  0  0  0  0  0  0  0  0  0  0  0
   15.5192   -8.1946   15.4029 C   0  0  0  0  0  0  0  0  0  0  0  0
   14.6114   -7.6750   16.3303 C   0  0  0  0  0  0  0  0  0  0  0  0
   12.7246   -8.3185   19.3229 O   0  0  0  0  0  0  0  0  0  0  0  0
   13.6656   -7.2409   18.8625 S   0  0  0  0  0  0  0  0  0  0  0  0
   14.4185   -6.6938   20.0418 O   0  0  0  0  0  0  0  0  0  0  0  0
   12.7466   -5.9753   18.1280 N   0  0  0  0  0  0  0  0  0  0  0  0
   12.0896   -5.5933   18.8084 H   0  0  0  0  0  0  0  0  0  0  0  0
   12.2316   -6.3480   17.3303 H   0  0  0  0  0  0  0  0  0  0  0  0
 23 24  2  0  0  0
 24 25  2  0  0  0
 24 17  1  0  0  0
 17 18  2  0  0  0
 18 19  1  0  0  0
 19 20  2  0  0  0
 20 16  1  0  0  0
 16  1  1  0  0  0
  1  2  1  0  0  0
  2  3  2  0  0  0
  2  5  1  0  0  0
  5  6  1  0  0  0
  6  7  1  0  0  0
  7  8  2  0  0  0
  8  9  1  0  0  0
  9 10  2  0  0  0
 10 11  1  0  0  0
 11 12  2  0  0  0
 12 13  1  0  0  0
 13 14  1  0  0  0
  9 15  1  0  0  0
 20 21  1  0  0  0
 21 22  2  0  0  0
 24 26  1  0  0  0
 22 17  1  0  0  0
 13  5  2  0  0  0
 11  6  1  0  0  0
  1  4  1  0  0  0
 26 27  1  0  0  0
 26 28  1  0  0  0
M  END
>  <minimizedAffinity>
-5.36390

>  <minimizedRMSD>
2.55514

$$$$
CHEMBL1271529 PubChem-52946970


 32 35  0  0  0  0  0  0  0  0999 V2000
   18.8355   -9.5264    9.6015 C   0  0  0  0  0  0  0  0  0  0  0  0
   18.1464   -8.9076    8.4749 N   0  0  0  0  0  0  0  0  0  0  0  0
   16.8352   -8.5712    8.3789 C   0  0  0  0  0  0  0  0  0  0  0  0
   16.5159   -7.9686    7.2030 N   0  0  0  0  0  0  0  0  0  0  0  0
   17.6983   -7.9228    6.5601 C   0  0  0  0  0  0  0  0  0  0  0  0
   17.9581   -7.3901    5.2998 C   0  0  0  0  0  0  0  0  0  0  0  0
   19.2850   -7.4483    4.8326 C   0  0  0  0  0  0  0  0  0  0  0  0
   20.3022   -8.0277    5.6244 C   0  0  0  0  0  0  0  0  0  0  0  0
   20.0070   -8.5575    6.8943 C   0  0  0  0  0  0  0  0  0  0  0  0
   18.6822   -8.4835    7.3228 C   0  0  0  0  0  0  0  0  0  0  0  0
   15.8215   -8.8716    9.4316 C   0  0  0  0  0  0  0  0  0  0  0  0
   15.1972  -10.1609    9.1655 N   0  0  0  0  0  0  0  0  0  0  0  0
   13.7738  -10.0789    9.5360 C   0  0  0  0  0  0  0  0  0  0  0  0
   13.5110  -10.3799   11.0205 C   0  0  0  0  0  0  0  0  0  0  0  0
   14.6946  -10.2843   11.7644 O   0  0  0  0  0  0  0  0  0  0  0  0
   15.4752  -11.3737   11.3543 C   0  0  0  0  0  0  0  0  0  0  0  0
   15.9400  -11.2001    9.8983 C   0  0  0  0  0  0  0  0  0  0  0  0
   18.3591   -8.9319   10.8892 C   0  0  0  0  0  0  0  0  0  0  0  0
   17.9843   -7.7285   10.9028 O   0  0  0  0  0  0  0  0  0  0  0  0
   17.6703   -9.9569   14.4668 C   0  0  0  0  0  0  0  0  0  0  0  0
   17.7354   -9.2047   13.2879 C   0  0  0  0  0  0  0  0  0  0  0  0
   18.3060   -9.7370   12.1243 C   0  0  0  0  0  0  0  0  0  0  0  0
   18.8201  -11.0397   12.1523 C   0  0  0  0  0  0  0  0  0  0  0  0
   18.7617  -11.7984   13.3225 C   0  0  0  0  0  0  0  0  0  0  0  0
   18.1903  -11.2664   14.4814 C   0  0  0  0  0  0  0  0  0  0  0  0
   18.1484  -12.2745   15.9205 Cl  0  0  0  0  0  0  0  0  0  0  0  0
   18.1652   -8.8243   17.0383 N   0  0  0  0  0  0  0  0  0  0  0  0
   16.9362   -9.2328   15.8955 S   0  0  0  0  0  0  0  0  0  0  0  0
   16.1953   -7.9831   15.5091 O   0  0  0  0  0  0  0  0  0  0  0  0
   15.9688  -10.2025   16.5135 O   0  0  0  0  0  0  0  0  0  0  0  0
   17.7363   -8.4055   17.8636 H   0  0  0  0  0  0  0  0  0  0  0  0
   18.8134   -8.1587   16.6172 H   0  0  0  0  0  0  0  0  0  0  0  0
 27 28  1  0  0  0
 28 29  2  0  0  0
 28 30  2  0  0  0
 28 20  1  0  0  0
 20 21  2  0  0  0
 21 22  1  0  0  0
 22 18  1  0  0  0
 22 23  2  0  0  0
 18 19  2  0  0  0
 18  1  1  0  0  0
  1  2  1  0  0  0
  2  3  1  0  0  0
  3 11  1  0  0  0
  3  4  2  0  0  0
 11 12  1  0  0  0
 12 13  1  0  0  0
 13 14  1  0  0  0
 14 15  1  0  0  0
 15 16  1  0  0  0
 16 17  1  0  0  0
 17 12  1  0  0  0
  4  5  1  0  0  0
  5  6  2  0  0  0
  6  7  1  0  0  0
  7  8  2  0  0  0
  8  9  1  0  0  0
  9 10  2  0  0  0
 10  2  1  0  0  0
 10  5  1  0  0  0
 23 24  1  0  0  0
 24 25  2  0  0  0
 25 26  1  0  0  0
 25 20  1  0  0  0
 27 31  1  0  0  0
 27 32  1  0  0  0
M  END
>  <minimizedAffinity>
4.40207

>  <minimizedRMSD>
2.55537

$$$$
CHEMBL2312458 PubChem-71518541


 38 42  0  0  0  0  0  0  0  0999 V2000
   18.7748  -10.9082   14.3873 C   0  0  0  0  0  0  0  0  0  0  0  0
   17.8707  -10.1714   15.3169 C   0  0  0  0  0  0  0  0  0  0  0  0
   17.1164   -9.0911   14.8501 C   0  0  0  0  0  0  0  0  0  0  0  0
   16.2800   -8.3903   15.7231 C   0  0  0  0  0  0  0  0  0  0  0  0
   16.1914   -8.7642   17.0720 C   0  0  0  0  0  0  0  0  0  0  0  0
   16.9530   -9.8472   17.5345 C   0  0  0  0  0  0  0  0  0  0  0  0
   17.7900  -10.5476   16.6611 C   0  0  0  0  0  0  0  0  0  0  0  0
   15.3122   -8.0256   17.9953 C   0  0  0  0  0  0  0  0  0  0  0  0
   14.5133   -7.1589   17.5458 O   0  0  0  0  0  0  0  0  0  0  0  0
   15.3331   -8.3274   19.3964 N   0  0  0  0  0  0  0  0  0  0  0  0
   15.8016   -9.1473   19.6748 H   0  0  0  0  0  0  0  0  0  0  0  0
   14.7282   -7.5341   20.4260 C   0  0  0  0  0  0  0  0  0  0  0  0
   15.5652   -6.8086   21.2813 C   0  0  0  0  0  0  0  0  0  0  0  0
   15.0268   -6.0052   22.2897 C   0  0  0  0  0  0  0  0  0  0  0  0
   13.6423   -5.9091   22.4408 C   0  0  0  0  0  0  0  0  0  0  0  0
   12.7960   -6.6055   21.5749 C   0  0  0  0  0  0  0  0  0  0  0  0
   13.3278   -7.4132   20.5640 C   0  0  0  0  0  0  0  0  0  0  0  0
   12.4371   -8.0404   19.6465 N   0  0  0  0  0  0  0  0  0  0  0  0
   11.4640   -7.9434   19.7607 H   0  0  0  0  0  0  0  0  0  0  0  0
   12.7944   -8.5708   18.8981 H   0  0  0  0  0  0  0  0  0  0  0  0
   19.7098   -9.9881   13.7534 N   0  0  0  0  0  0  0  0  0  0  0  0
   20.5047   -9.7028   14.2594 H   0  0  0  0  0  0  0  0  0  0  0  0
   18.1834   -9.2681   10.4812 C   0  0  0  0  0  0  0  0  0  0  0  0
   19.1874   -8.5007    9.8824 C   0  0  0  0  0  0  0  0  0  0  0  0
   20.3558   -8.2451   10.5977 C   0  0  0  0  0  0  0  0  0  0  0  0
   20.5043   -8.7378   11.8541 N   0  0  0  0  0  0  0  0  0  0  0  0
   19.5247   -9.4813   12.4303 C   0  0  0  0  0  0  0  0  0  0  0  0
   18.3797   -9.7415   11.7418 N   0  0  0  0  0  0  0  0  0  0  0  0
   17.6859   -9.3409    7.3095 C   0  0  0  0  0  0  0  0  0  0  0  0
   16.6905   -9.6016    8.3872 C   0  0  0  0  0  0  0  0  0  0  0  0
   15.3947   -9.8961    8.1252 N   0  0  0  0  0  0  0  0  0  0  0  0
   14.8619  -10.0365    9.3536 C   0  0  0  0  0  0  0  0  0  0  0  0
   13.5653  -10.3445    9.6037 N   0  0  0  0  0  0  0  0  0  0  0  0
   13.1529  -10.4623   10.8990 C   0  0  0  0  0  0  0  0  0  0  0  0
   14.0583  -10.2698   11.9585 C   0  0  0  0  0  0  0  0  0  0  0  0
   15.3889   -9.9546   11.6577 C   0  0  0  0  0  0  0  0  0  0  0  0
   15.7386   -9.8479   10.3515 N   0  0  0  0  0  0  0  0  0  0  0  0
   16.9173   -9.5665    9.7654 C   0  0  0  0  0  0  0  0  0  0  0  0
 29 30  1  0  0  0
 30 31  1  0  0  0
 31 32  2  0  0  0
 32 33  1  0  0  0
 33 34  2  0  0  0
 34 35  1  0  0  0
 35 36  2  0  0  0
 36 37  1  0  0  0
 37 38  1  0  0  0
 37 32  1  0  0  0
 38 23  1  0  0  0
 38 30  2  0  0  0
 23 24  2  0  0  0
 24 25  1  0  0  0
 25 26  2  0  0  0
 26 27  1  0  0  0
 27 21  1  0  0  0
 27 28  2  0  0  0
 21  1  1  0  0  0
  1  2  1  0  0  0
  2  3  2  0  0  0
  3  4  1  0  0  0
  4  5  2  0  0  0
  5  8  1  0  0  0
  5  6  1  0  0  0
  8  9  2  0  0  0
  8 10  1  0  0  0
 10 12  1  0  0  0
 12 13  2  0  0  0
 13 14  1  0  0  0
 14 15  2  0  0  0
 15 16  1  0  0  0
 16 17  2  0  0  0
 17 18  1  0  0  0
 17 12  1  0  0  0
  6  7  2  0  0  0
  7  2  1  0  0  0
 28 23  1  0  0  0
 21 22  1  0  0  0
 10 11  1  0  0  0
 18 19  1  0  0  0
 18 20  1  0  0  0
M  END
>  <minimizedAffinity>
1.42352

>  <minimizedRMSD>
2.55705

$$$$
CHEMBL397700 PubChem-16126565


 32 36  0  0  0  0  0  0  0  0999 V2000
   17.2130  -11.3700   15.0689 C   0  0  0  0  0  0  0  0  0  0  0  0
   16.7774  -10.2589   14.3380 C   0  0  0  0  0  0  0  0  0  0  0  0
   17.4188   -9.9264   13.1271 C   0  0  0  0  0  0  0  0  0  0  0  0
   18.4702  -10.7230   12.6596 C   0  0  0  0  0  0  0  0  0  0  0  0
   18.8946  -11.8340   13.3925 C   0  0  0  0  0  0  0  0  0  0  0  0
   18.2672  -12.1565   14.5978 C   0  0  0  0  0  0  0  0  0  0  0  0
   16.9849   -8.7574   12.3007 C   0  0  0  0  0  0  0  0  0  0  0  0
   16.8953   -9.1334   10.8977 N   0  0  0  0  0  0  0  0  0  0  0  0
   16.0792  -10.0689   10.3502 C   0  0  0  0  0  0  0  0  0  0  0  0
   16.2767  -10.2111    9.0081 N   0  0  0  0  0  0  0  0  0  0  0  0
   17.2573   -9.3262    8.7466 C   0  0  0  0  0  0  0  0  0  0  0  0
   17.6282   -8.6852    9.8750 C   0  0  0  0  0  0  0  0  0  0  0  0
   18.6069   -7.7481    9.8997 N   0  0  0  0  0  0  0  0  0  0  0  0
   19.2330   -7.4494    8.7206 C   0  0  0  0  0  0  0  0  0  0  0  0
   18.8730   -8.0863    7.5590 N   0  0  0  0  0  0  0  0  0  0  0  0
   17.8863   -9.0310    7.5457 C   0  0  0  0  0  0  0  0  0  0  0  0
   17.5244   -9.6876    6.3360 N   0  0  0  0  0  0  0  0  0  0  0  0
   17.9853   -9.4611    5.4961 H   0  0  0  0  0  0  0  0  0  0  0  0
   16.8131  -10.3683    6.3391 H   0  0  0  0  0  0  0  0  0  0  0  0
   15.6556   -9.4359   14.8895 C   0  0  0  0  0  0  0  0  0  0  0  0
   15.9521   -9.0164   16.2516 N   0  0  0  0  0  0  0  0  0  0  0  0
   17.0821   -9.2583   16.9641 C   0  0  0  0  0  0  0  0  0  0  0  0
   17.0368   -8.7123   18.2132 N   0  0  0  0  0  0  0  0  0  0  0  0
   15.8280   -8.1201   18.2458 C   0  0  0  0  0  0  0  0  0  0  0  0
   15.1810   -8.3024   17.0752 C   0  0  0  0  0  0  0  0  0  0  0  0
   13.9380   -7.8163   16.8400 N   0  0  0  0  0  0  0  0  0  0  0  0
   13.3303   -7.1086   17.8405 C   0  0  0  0  0  0  0  0  0  0  0  0
   13.9684   -6.9069   19.0390 N   0  0  0  0  0  0  0  0  0  0  0  0
   15.2203   -7.4042   19.2671 C   0  0  0  0  0  0  0  0  0  0  0  0
   15.8713   -7.1908   20.5146 N   0  0  0  0  0  0  0  0  0  0  0  0
   15.4196   -6.6794   21.2243 H   0  0  0  0  0  0  0  0  0  0  0  0
   16.7731   -7.5546   20.6678 H   0  0  0  0  0  0  0  0  0  0  0  0
  1  2  2  0  0  0
  2  3  1  0  0  0
  3  4  2  0  0  0
  4  5  1  0  0  0
  5  6  2  0  0  0
  3  7  1  0  0  0
  7  8  1  0  0  0
  8  9  1  0  0  0
  9 10  2  0  0  0
 10 11  1  0  0  0
 11 12  2  0  0  0
 12 13  1  0  0  0
 13 14  2  0  0  0
 14 15  1  0  0  0
 15 16  2  0  0  0
 16 17  1  0  0  0
  2 20  1  0  0  0
 20 21  1  0  0  0
 21 22  1  0  0  0
 22 23  2  0  0  0
 23 24  1  0  0  0
 24 25  2  0  0  0
 25 26  1  0  0  0
 26 27  2  0  0  0
 27 28  1  0  0  0
 28 29  2  0  0  0
 29 30  1  0  0  0
  6  1  1  0  0  0
 12  8  1  0  0  0
 25 21  1  0  0  0
 16 11  1  0  0  0
 29 24  1  0  0  0
 17 18  1  0  0  0
 17 19  1  0  0  0
 30 31  1  0  0  0
 30 32  1  0  0  0
M  END
>  <minimizedAffinity>
-4.44145

>  <minimizedRMSD>
2.55705

$$$$
CHEMBL4089408 PubChem-132609302


 36 38  0  0  0  0  0  0  0  0999 V2000
   15.9095   -8.7439   16.4127 C   0  0  0  0  0  0  0  0  0  0  0  0
   16.7347   -9.8481   16.6509 C   0  0  0  0  0  0  0  0  0  0  0  0
   17.5025  -10.3868   15.6147 C   0  0  0  0  0  0  0  0  0  0  0  0
   17.4583   -9.8248   14.3340 C   0  0  0  0  0  0  0  0  0  0  0  0
   16.6201   -8.7248   14.0969 C   0  0  0  0  0  0  0  0  0  0  0  0
   15.8527   -8.1841   15.1321 C   0  0  0  0  0  0  0  0  0  0  0  0
   18.2472  -10.4194   13.2941 N   0  0  0  0  0  0  0  0  0  0  0  0
   18.1485  -10.1911   11.8817 C   0  0  0  0  0  0  0  0  0  0  0  0
   18.7788  -10.9472   11.0978 O   0  0  0  0  0  0  0  0  0  0  0  0
   18.9372  -11.0591   13.5838 H   0  0  0  0  0  0  0  0  0  0  0  0
   17.3602   -9.0521   11.3118 C   0  0  0  0  0  0  0  0  0  0  0  0
   17.5327   -8.9801    9.8585 N   0  0  0  0  0  0  0  0  0  0  0  0
   16.6422   -9.6141    9.0294 C   0  0  0  0  0  0  0  0  0  0  0  0
   16.8030   -9.5595    7.6817 N   0  0  0  0  0  0  0  0  0  0  0  0
   17.8347   -8.8835    7.1222 C   0  0  0  0  0  0  0  0  0  0  0  0
   17.9754   -8.8443    5.7318 C   0  0  0  0  0  0  0  0  0  0  0  0
   19.0388   -8.1427    5.1559 C   0  0  0  0  0  0  0  0  0  0  0  0
   19.9632   -7.4788    5.9685 C   0  0  0  0  0  0  0  0  0  0  0  0
   19.8270   -7.5153    7.3597 C   0  0  0  0  0  0  0  0  0  0  0  0
   18.7626   -8.2183    7.9438 C   0  0  0  0  0  0  0  0  0  0  0  0
   18.5879   -8.2807    9.3326 C   0  0  0  0  0  0  0  0  0  0  0  0
   19.4039   -7.6897   10.0944 O   0  0  0  0  0  0  0  0  0  0  0  0
   15.4728  -10.3704    9.5720 C   0  0  0  0  0  0  0  0  0  0  0  0
   14.9541   -8.0553   17.7145 S   0  0  0  0  0  0  0  0  0  0  0  0
   14.2257   -6.8337   17.2274 O   0  0  0  0  0  0  0  0  0  0  0  0
   13.9496   -9.0705   18.1837 O   0  0  0  0  0  0  0  0  0  0  0  0
   16.3713   -6.8428   21.3524 N   0  0  0  0  0  0  0  0  0  0  0  0
   15.4596   -7.1792   20.3046 C   0  0  0  0  0  0  0  0  0  0  0  0
   14.2157   -7.0733   20.4843 O   0  0  0  0  0  0  0  0  0  0  0  0
   15.9731   -7.6361   19.0528 N   0  0  0  0  0  0  0  0  0  0  0  0
   17.3344   -6.9783   21.1998 H   0  0  0  0  0  0  0  0  0  0  0  0
   16.9484   -7.7165   18.9451 H   0  0  0  0  0  0  0  0  0  0  0  0
   15.9383   -6.3082   22.6361 C   0  0  0  0  0  0  0  0  0  0  0  0
   17.1448   -5.9865   23.5041 C   0  0  0  0  0  0  0  0  0  0  0  0
   19.4422   -6.9580   23.4761 C   0  0  0  0  0  0  0  0  0  0  0  0
   18.4281   -6.1330   22.7051 C   0  0  0  0  0  0  0  0  0  0  0  0
 35 36  1  0  0  0
 36 34  1  0  0  0
 34 33  1  0  0  0
 33 27  1  0  0  0
 27 28  1  0  0  0
 28 29  2  0  0  0
 28 30  1  0  0  0
 30 24  1  0  0  0
 24 25  2  0  0  0
 24 26  2  0  0  0
 24  1  1  0  0  0
  1  2  2  0  0  0
  2  3  1  0  0  0
  3  4  2  0  0  0
  4  5  1  0  0  0
  5  6  2  0  0  0
  4  7  1  0  0  0
  7  8  1  0  0  0
  8  9  2  0  0  0
  8 11  1  0  0  0
 11 12  1  0  0  0
 12 13  1  0  0  0
 13 14  2  0  0  0
 14 15  1  0  0  0
 15 16  2  0  0  0
 16 17  1  0  0  0
 17 18  2  0  0  0
 18 19  1  0  0  0
 19 20  2  0  0  0
 20 21  1  0  0  0
 21 22  2  0  0  0
 13 23  1  0  0  0
  6  1  1  0  0  0
 21 12  1  0  0  0
 20 15  1  0  0  0
 27 31  1  0  0  0
 30 32  1  0  0  0
  7 10  1  0  0  0
M  END
>  <minimizedAffinity>
-6.45187

>  <minimizedRMSD>
2.56014

$$$$
CHEMBL4114812 PubChem-137662345


 38 42  0  0  0  0  0  0  0  0999 V2000
   15.5976   -9.5737   13.4689 C   0  0  0  0  0  0  0  0  0  0  0  0
   15.2926   -8.0701   13.3766 C   0  0  0  0  0  0  0  0  0  0  0  0
   16.0156   -7.2444   14.4144 C   0  0  0  0  0  0  0  0  0  0  0  0
   16.5741   -7.7786   15.5040 C   0  0  0  0  0  0  0  0  0  0  0  0
   16.4848   -9.2206   15.7686 C   0  0  0  0  0  0  0  0  0  0  0  0
   17.2062   -9.7412   16.7158 N   0  0  0  0  0  0  0  0  0  0  0  0
   15.5662  -10.0556   14.9178 C   0  0  0  0  0  0  0  0  0  0  0  0
   17.2302  -11.1634   17.0536 C   0  0  0  0  0  0  0  0  0  0  0  0
   18.0832  -11.3659   18.1380 O   0  0  0  0  0  0  0  0  0  0  0  0
   18.9808  -11.0853   17.9001 H   0  0  0  0  0  0  0  0  0  0  0  0
   17.6954  -11.9850   15.8886 C   0  0  0  0  0  0  0  0  0  0  0  0
   17.2595  -13.2690   15.5716 C   0  0  0  0  0  0  0  0  0  0  0  0
   17.8464  -13.7001   14.4251 N   0  0  0  0  0  0  0  0  0  0  0  0
   18.6364  -12.6834   14.0390 C   0  0  0  0  0  0  0  0  0  0  0  0
   19.4066  -12.6590   12.9227 N   0  0  0  0  0  0  0  0  0  0  0  0
   20.1456  -11.5413   12.6508 C   0  0  0  0  0  0  0  0  0  0  0  0
   20.1064  -10.4257   13.5168 C   0  0  0  0  0  0  0  0  0  0  0  0
   19.3023  -10.4616   14.6690 C   0  0  0  0  0  0  0  0  0  0  0  0
   18.5763  -11.6262   14.8977 C   0  0  0  0  0  0  0  0  0  0  0  0
   17.7209  -14.5670   13.9756 H   0  0  0  0  0  0  0  0  0  0  0  0
   16.9437   -9.8930   12.8289 C   0  0  0  0  0  0  0  0  0  0  0  0
   17.2558   -8.9152   11.7985 N   0  0  0  0  0  0  0  0  0  0  0  0
   17.5695   -8.0223   12.0700 H   0  0  0  0  0  0  0  0  0  0  0  0
   18.7320   -8.4174    7.1408 C   0  0  0  0  0  0  0  0  0  0  0  0
   19.7548   -7.5606    7.5786 C   0  0  0  0  0  0  0  0  0  0  0  0
   19.9094   -7.2495    8.9297 C   0  0  0  0  0  0  0  0  0  0  0  0
   19.0404   -7.7912    9.8742 C   0  0  0  0  0  0  0  0  0  0  0  0
   18.0105   -8.6483    9.4719 C   0  0  0  0  0  0  0  0  0  0  0  0
   17.1226   -9.2063   10.4025 C   0  0  0  0  0  0  0  0  0  0  0  0
   16.1356  -10.0370    9.9711 N   0  0  0  0  0  0  0  0  0  0  0  0
   15.9909  -10.3358    8.6554 C   0  0  0  0  0  0  0  0  0  0  0  0
   16.8392   -9.8051    7.7381 N   0  0  0  0  0  0  0  0  0  0  0  0
   17.8481   -8.9683    8.1030 C   0  0  0  0  0  0  0  0  0  0  0  0
   17.3784   -8.7425    5.0147 N   0  0  0  0  0  0  0  0  0  0  0  0
   18.6347   -8.6989    5.6847 C   0  0  0  0  0  0  0  0  0  0  0  0
   19.6821   -8.9059    5.0150 O   0  0  0  0  0  0  0  0  0  0  0  0
   17.3418   -8.9311    4.0491 H   0  0  0  0  0  0  0  0  0  0  0  0
   16.5468   -8.5839    5.5172 H   0  0  0  0  0  0  0  0  0  0  0  0
 34 35  1  0  0  0
 35 36  2  0  0  0
 35 24  1  0  0  0
 24 25  2  0  0  0
 25 26  1  0  0  0
 26 27  2  0  0  0
 27 28  1  0  0  0
 28 29  2  0  0  0
 29 22  1  0  0  0
 22 21  1  0  0  0
 21  1  1  0  0  0
  1  2  1  0  0  0
  2  3  1  0  0  0
  3  4  2  0  0  0
  4  5  1  0  0  0
  5  6  2  0  0  0
  6  8  1  0  0  0
  8  9  1  0  0  0
  8 11  1  0  0  0
 11 12  2  0  0  0
 12 13  1  0  0  0
 13 14  1  0  0  0
 14 15  2  0  0  0
 15 16  1  0  0  0
 16 17  2  0  0  0
 17 18  1  0  0  0
 18 19  2  0  0  0
  5  7  1  0  0  0
 29 30  1  0  0  0
 30 31  2  0  0  0
 31 32  1  0  0  0
 32 33  2  0  0  0
 33 24  1  0  0  0
 33 28  1  0  0  0
  7  1  1  0  0  0
 19 11  1  0  0  0
 19 14  1  0  0  0
 34 37  1  0  0  0
 34 38  1  0  0  0
 22 23  1  0  0  0
  9 10  1  0  0  0
 13 20  1  0  0  0
M  END
>  <minimizedAffinity>
-1.08891

>  <minimizedRMSD>
2.56138

$$$$
CHEMBL2037390 PubChem-60166501


 27 30  0  0  0  0  0  0  0  0999 V2000
   17.1909   -9.0274   14.4467 C   0  0  0  0  0  0  0  0  0  0  0  0
   16.0285   -8.5420   13.9731 N   0  0  0  0  0  0  0  0  0  0  0  0
   15.9477   -8.9430   12.7141 N   0  0  0  0  0  0  0  0  0  0  0  0
   17.0629   -9.6579   12.4760 C   0  0  0  0  0  0  0  0  0  0  0  0
   17.8351   -9.7112   13.5333 O   0  0  0  0  0  0  0  0  0  0  0  0
   17.7812   -8.7636   16.1145 S   0  0  0  0  0  0  0  0  0  0  0  0
   16.2596   -9.4175   16.8678 C   0  0  0  0  0  0  0  0  0  0  0  0
   15.0266   -7.3904   16.9665 O   0  0  0  0  0  0  0  0  0  0  0  0
   15.5432   -8.3427   17.6086 C   0  0  0  0  0  0  0  0  0  0  0  0
   15.4708   -8.4020   19.0393 N   0  0  0  0  0  0  0  0  0  0  0  0
   15.8849   -9.1842   19.4705 H   0  0  0  0  0  0  0  0  0  0  0  0
   14.8569   -7.4390   19.9066 C   0  0  0  0  0  0  0  0  0  0  0  0
   13.6068   -6.8692   19.6186 C   0  0  0  0  0  0  0  0  0  0  0  0
   13.0404   -5.9313   20.4865 C   0  0  0  0  0  0  0  0  0  0  0  0
   13.7198   -5.5565   21.6486 C   0  0  0  0  0  0  0  0  0  0  0  0
   14.9647   -6.1199   21.9421 C   0  0  0  0  0  0  0  0  0  0  0  0
   15.5301   -7.0578   21.0730 C   0  0  0  0  0  0  0  0  0  0  0  0
   17.3924  -10.2767   11.1614 C   0  0  0  0  0  0  0  0  0  0  0  0
   18.2473   -9.3848   10.3923 N   0  0  0  0  0  0  0  0  0  0  0  0
   19.4025   -8.8123   10.8085 C   0  0  0  0  0  0  0  0  0  0  0  0
   19.9361   -7.9844    9.8692 N   0  0  0  0  0  0  0  0  0  0  0  0
   19.0598   -8.0571    8.8499 C   0  0  0  0  0  0  0  0  0  0  0  0
   19.1168   -7.3889    7.6293 C   0  0  0  0  0  0  0  0  0  0  0  0
   18.0672   -7.6149    6.7181 C   0  0  0  0  0  0  0  0  0  0  0  0
   17.0043   -8.4872    7.0468 C   0  0  0  0  0  0  0  0  0  0  0  0
   16.9774   -9.1459    8.2903 C   0  0  0  0  0  0  0  0  0  0  0  0
   18.0359   -8.8984    9.1634 C   0  0  0  0  0  0  0  0  0  0  0  0
  8  9  2  0  0  0
  9  7  1  0  0  0
  9 10  1  0  0  0
  7  6  1  0  0  0
  6  1  1  0  0  0
  1  2  2  0  0  0
  2  3  1  0  0  0
  3  4  2  0  0  0
  4 18  1  0  0  0
  4  5  1  0  0  0
 18 19  1  0  0  0
 19 20  1  0  0  0
 20 21  2  0  0  0
 21 22  1  0  0  0
 22 23  2  0  0  0
 23 24  1  0  0  0
 24 25  2  0  0  0
 25 26  1  0  0  0
 26 27  2  0  0  0
 27 19  1  0  0  0
 27 22  1  0  0  0
  5  1  1  0  0  0
 10 12  1  0  0  0
 12 13  2  0  0  0
 13 14  1  0  0  0
 14 15  2  0  0  0
 15 16  1  0  0  0
 16 17  2  0  0  0
 17 12  1  0  0  0
 10 11  1  0  0  0
M  END
>  <minimizedAffinity>
-6.82221

>  <minimizedRMSD>
2.56159

$$$$
CHEMBL1597440 MCULE-4529163817 MolPort-001-990-957


 34 38  0  0  0  0  0  0  0  0999 V2000
   17.5088   -9.9381   13.0209 C   0  0  0  0  0  0  0  0  0  0  0  0
   18.8852   -9.7520   13.2115 C   0  0  0  0  0  0  0  0  0  0  0  0
   19.7097   -9.4578   12.1238 C   0  0  0  0  0  0  0  0  0  0  0  0
   19.1703   -9.3425   10.8321 C   0  0  0  0  0  0  0  0  0  0  0  0
   17.7897   -9.5289   10.6445 C   0  0  0  0  0  0  0  0  0  0  0  0
   16.9679   -9.8214   11.7382 C   0  0  0  0  0  0  0  0  0  0  0  0
   17.4777  -10.5268   16.5013 C   0  0  0  0  0  0  0  0  0  0  0  0
   18.1845  -11.3848   17.2566 N   0  0  0  0  0  0  0  0  0  0  0  0
   18.4840  -12.4261   16.4862 N   0  0  0  0  0  0  0  0  0  0  0  0
   17.9643  -12.2163   15.2558 C   0  0  0  0  0  0  0  0  0  0  0  0
   18.1011  -13.1624   14.1156 C   0  0  0  0  0  0  0  0  0  0  0  0
   17.3156  -11.0035   15.2435 C   0  0  0  0  0  0  0  0  0  0  0  0
   16.5956  -10.2392   14.1736 C   0  0  0  0  0  0  0  0  0  0  0  0
   15.9650   -8.9625   14.7297 C   0  0  0  0  0  0  0  0  0  0  0  0
   16.1731   -8.5486   16.0094 C   0  0  0  0  0  0  0  0  0  0  0  0
   15.5930   -7.3326   16.4778 N   0  0  0  0  0  0  0  0  0  0  0  0
   16.9481   -9.3074   16.9068 O   0  0  0  0  0  0  0  0  0  0  0  0
   18.4334  -11.2648   18.2015 H   0  0  0  0  0  0  0  0  0  0  0  0
   15.0464   -6.7824   15.8714 H   0  0  0  0  0  0  0  0  0  0  0  0
   15.7392   -7.0436   17.4074 H   0  0  0  0  0  0  0  0  0  0  0  0
   15.1156   -8.1961   13.8478 C   0  0  0  0  0  0  0  0  0  0  0  0
   14.4372   -7.5807   13.1406 N   0  0  0  0  0  0  0  0  0  0  0  0
   19.9848   -9.0471    9.7327 O   0  0  0  0  0  0  0  0  0  0  0  0
   21.1471   -8.2355    9.8312 C   0  0  0  0  0  0  0  0  0  0  0  0
   17.1733   -9.3761    9.2923 C   0  0  0  0  0  0  0  0  0  0  0  0
   17.8015   -8.2746    8.5772 N   0  0  0  0  0  0  0  0  0  0  0  0
   18.3037   -8.2811    7.3359 C   0  0  0  0  0  0  0  0  0  0  0  0
   18.3223   -9.2933    6.3797 C   0  0  0  0  0  0  0  0  0  0  0  0
   18.9404   -8.9933    5.1500 C   0  0  0  0  0  0  0  0  0  0  0  0
   19.5103   -7.7176    4.9206 C   0  0  0  0  0  0  0  0  0  0  0  0
   19.4715   -6.7224    5.9178 C   0  0  0  0  0  0  0  0  0  0  0  0
   18.8517   -7.0554    7.1179 C   0  0  0  0  0  0  0  0  0  0  0  0
   18.6927   -6.3027    8.2224 N   0  0  0  0  0  0  0  0  0  0  0  0
   18.0520   -7.0776    9.0978 N   0  0  0  0  0  0  0  0  0  0  0  0
  7  8  1  0  0  0
  8  9  1  0  0  0
  9 10  2  0  0  0
 10 11  1  0  0  0
 10 12  1  0  0  0
 12 13  1  0  0  0
 13 14  1  0  0  0
 14 21  1  0  0  0
 21 22  3  0  0  0
 14 15  2  0  0  0
 15 16  1  0  0  0
 15 17  1  0  0  0
 13  1  1  0  0  0
  1  2  2  0  0  0
  2  3  1  0  0  0
  3  4  2  0  0  0
  4  5  1  0  0  0
  5 25  1  0  0  0
 25 26  1  0  0  0
 26 27  1  0  0  0
 27 28  2  0  0  0
 28 29  1  0  0  0
 29 30  2  0  0  0
 30 31  1  0  0  0
 31 32  2  0  0  0
 32 33  1  0  0  0
 33 34  2  0  0  0
  5  6  2  0  0  0
  4 23  1  0  0  0
 23 24  1  0  0  0
 12  7  2  0  0  0
  6  1  1  0  0  0
 17  7  1  0  0  0
 34 26  1  0  0  0
 32 27  1  0  0  0
  8 18  1  0  0  0
 16 19  1  0  0  0
 16 20  1  0  0  0
M  END
>  <minimizedAffinity>
2.16990

>  <minimizedRMSD>
2.56173

$$$$
CHEMBL397700 PubChem-16126565


 32 36  0  0  0  0  0  0  0  0999 V2000
   18.4697  -10.7205   12.6577 C   0  0  0  0  0  0  0  0  0  0  0  0
   17.4148   -9.9292   13.1261 C   0  0  0  0  0  0  0  0  0  0  0  0
   16.7750  -10.2660   14.3369 C   0  0  0  0  0  0  0  0  0  0  0  0
   17.2158  -11.3759   15.0664 C   0  0  0  0  0  0  0  0  0  0  0  0
   18.2736  -12.1570   14.5944 C   0  0  0  0  0  0  0  0  0  0  0  0
   18.8993  -11.8302   13.3894 C   0  0  0  0  0  0  0  0  0  0  0  0
   15.6494   -9.4488   14.8893 C   0  0  0  0  0  0  0  0  0  0  0  0
   15.9502   -9.0179   16.2469 N   0  0  0  0  0  0  0  0  0  0  0  0
   17.1024   -9.2085   16.9391 C   0  0  0  0  0  0  0  0  0  0  0  0
   17.0539   -8.6669   18.1899 N   0  0  0  0  0  0  0  0  0  0  0  0
   15.8199   -8.1310   18.2449 C   0  0  0  0  0  0  0  0  0  0  0  0
   15.1615   -8.3413   17.0855 C   0  0  0  0  0  0  0  0  0  0  0  0
   13.8935   -7.9125   16.8730 N   0  0  0  0  0  0  0  0  0  0  0  0
   13.2715   -7.2350   17.8854 C   0  0  0  0  0  0  0  0  0  0  0  0
   13.9207   -7.0059   19.0731 N   0  0  0  0  0  0  0  0  0  0  0  0
   15.1979   -7.4452   19.2782 C   0  0  0  0  0  0  0  0  0  0  0  0
   15.8601   -7.2038   20.5146 N   0  0  0  0  0  0  0  0  0  0  0  0
   15.3979   -6.7147   21.2332 H   0  0  0  0  0  0  0  0  0  0  0  0
   16.7803   -7.5260   20.6513 H   0  0  0  0  0  0  0  0  0  0  0  0
   16.9754   -8.7614   12.3011 C   0  0  0  0  0  0  0  0  0  0  0  0
   16.8859   -9.1366   10.8979 N   0  0  0  0  0  0  0  0  0  0  0  0
   16.0676  -10.0695   10.3492 C   0  0  0  0  0  0  0  0  0  0  0  0
   16.2659  -10.2119    9.0073 N   0  0  0  0  0  0  0  0  0  0  0  0
   17.2495   -9.3298    8.7470 C   0  0  0  0  0  0  0  0  0  0  0  0
   17.6214   -8.6904    9.8761 C   0  0  0  0  0  0  0  0  0  0  0  0
   18.6029   -7.7563    9.9020 N   0  0  0  0  0  0  0  0  0  0  0  0
   19.2310   -7.4593    8.7237 C   0  0  0  0  0  0  0  0  0  0  0  0
   18.8703   -8.0947    7.5614 N   0  0  0  0  0  0  0  0  0  0  0  0
   17.8806   -9.0363    7.5469 C   0  0  0  0  0  0  0  0  0  0  0  0
   17.5178   -9.6914    6.3366 N   0  0  0  0  0  0  0  0  0  0  0  0
   17.9803   -9.4660    5.4972 H   0  0  0  0  0  0  0  0  0  0  0  0
   16.8044  -10.3698    6.3388 H   0  0  0  0  0  0  0  0  0  0  0  0
  1  2  2  0  0  0
  2  3  1  0  0  0
  3  4  2  0  0  0
  4  5  1  0  0  0
  5  6  2  0  0  0
  3  7  1  0  0  0
  7  8  1  0  0  0
  8  9  1  0  0  0
  9 10  2  0  0  0
 10 11  1  0  0  0
 11 12  2  0  0  0
 12 13  1  0  0  0
 13 14  2  0  0  0
 14 15  1  0  0  0
 15 16  2  0  0  0
 16 17  1  0  0  0
  2 20  1  0  0  0
 20 21  1  0  0  0
 21 22  1  0  0  0
 22 23  2  0  0  0
 23 24  1  0  0  0
 24 25  2  0  0  0
 25 26  1  0  0  0
 26 27  2  0  0  0
 27 28  1  0  0  0
 28 29  2  0  0  0
 29 30  1  0  0  0
  6  1  1  0  0  0
 12  8  1  0  0  0
 25 21  1  0  0  0
 16 11  1  0  0  0
 29 24  1  0  0  0
 17 18  1  0  0  0
 17 19  1  0  0  0
 30 31  1  0  0  0
 30 32  1  0  0  0
M  END
>  <minimizedAffinity>
-4.40616

>  <minimizedRMSD>
2.56236

$$$$
CHEMBL5276280 PubChem-155925360


 36 39  0  0  0  0  0  0  0  0999 V2000
   18.6895   -9.9241   13.8478 C   0  0  0  0  0  0  0  0  0  0  0  0
   19.4911   -9.3867   14.6571 O   0  0  0  0  0  0  0  0  0  0  0  0
   17.3006  -10.0756   14.1656 N   0  0  0  0  0  0  0  0  0  0  0  0
   16.7402  -10.5225   13.4906 H   0  0  0  0  0  0  0  0  0  0  0  0
   16.6417   -9.6446   15.3636 C   0  0  0  0  0  0  0  0  0  0  0  0
   16.7591  -10.4295   16.5158 C   0  0  0  0  0  0  0  0  0  0  0  0
   16.1229  -10.0473   17.7003 C   0  0  0  0  0  0  0  0  0  0  0  0
   15.3630   -8.8740   17.7406 C   0  0  0  0  0  0  0  0  0  0  0  0
   15.2448   -8.0829   16.5936 C   0  0  0  0  0  0  0  0  0  0  0  0
   15.8801   -8.4669   15.4100 C   0  0  0  0  0  0  0  0  0  0  0  0
   14.5551   -8.3948   19.2224 S   0  0  0  0  0  0  0  0  0  0  0  0
   15.0273   -9.2714   20.3476 O   0  0  0  0  0  0  0  0  0  0  0  0
   13.0662   -8.5407   19.0743 O   0  0  0  0  0  0  0  0  0  0  0  0
   14.9278   -6.7438   19.5876 N   0  0  0  0  0  0  0  0  0  0  0  0
   15.8646   -6.4934   19.7580 H   0  0  0  0  0  0  0  0  0  0  0  0
   13.9209   -5.7340   19.6495 C   0  0  0  0  0  0  0  0  0  0  0  0
   13.1535   -5.3701   18.6047 N   0  0  0  0  0  0  0  0  0  0  0  0
   12.3717   -4.4320   19.0458 O   0  0  0  0  0  0  0  0  0  0  0  0
   12.6074   -4.1869   20.3126 C   0  0  0  0  0  0  0  0  0  0  0  0
   13.6166   -5.0055   20.7834 C   0  0  0  0  0  0  0  0  0  0  0  0
   11.8815   -3.1668   21.1145 C   0  0  0  0  0  0  0  0  0  0  0  0
   19.1863  -10.3769   12.5179 C   0  0  0  0  0  0  0  0  0  0  0  0
   18.9048   -9.3935   11.5269 O   0  0  0  0  0  0  0  0  0  0  0  0
   14.1403  -10.4866   10.8320 C   0  0  0  0  0  0  0  0  0  0  0  0
   15.4352   -9.9575   10.3311 C   0  0  0  0  0  0  0  0  0  0  0  0
   16.5482   -9.9333   11.1730 C   0  0  0  0  0  0  0  0  0  0  0  0
   17.7705   -9.4303   10.7031 C   0  0  0  0  0  0  0  0  0  0  0  0
   17.8512   -8.9623    9.3830 C   0  0  0  0  0  0  0  0  0  0  0  0
   19.0490   -8.4527    8.8651 C   0  0  0  0  0  0  0  0  0  0  0  0
   19.1123   -7.9882    7.5472 C   0  0  0  0  0  0  0  0  0  0  0  0
   17.9626   -8.0344    6.7415 C   0  0  0  0  0  0  0  0  0  0  0  0
   16.7627   -8.5407    7.2482 C   0  0  0  0  0  0  0  0  0  0  0  0
   16.7000   -9.0053    8.5638 C   0  0  0  0  0  0  0  0  0  0  0  0
   15.5324   -9.4972    9.0557 N   0  0  0  0  0  0  0  0  0  0  0  0
   20.3245   -7.4872    7.0650 O   0  0  0  0  0  0  0  0  0  0  0  0
   20.5685   -7.2661    5.6826 C   0  0  0  0  0  0  0  0  0  0  0  0
 24 25  1  0  0  0
 25 26  2  0  0  0
 26 27  1  0  0  0
 27 28  2  0  0  0
 28 29  1  0  0  0
 29 30  2  0  0  0
 30 31  1  0  0  0
 31 32  2  0  0  0
 32 33  1  0  0  0
 33 34  2  0  0  0
 30 35  1  0  0  0
 35 36  1  0  0  0
 27 23  1  0  0  0
 23 22  1  0  0  0
 22  1  1  0  0  0
  1  2  2  0  0  0
  1  3  1  0  0  0
  3  5  1  0  0  0
  5  6  2  0  0  0
  6  7  1  0  0  0
  7  8  2  0  0  0
  8  9  1  0  0  0
  9 10  2  0  0  0
  8 11  1  0  0  0
 11 12  2  0  0  0
 11 13  2  0  0  0
 11 14  1  0  0  0
 14 16  1  0  0  0
 16 17  2  0  0  0
 17 18  1  0  0  0
 18 19  1  0  0  0
 19 20  2  0  0  0
 19 21  1  0  0  0
 34 25  1  0  0  0
 33 28  1  0  0  0
 10  5  1  0  0  0
 20 16  1  0  0  0
  3  4  1  0  0  0
 14 15  1  0  0  0
M  END
>  <minimizedAffinity>
0.43967

>  <minimizedRMSD>
2.56595

$$$$
CHEMBL2235546 PubChem-25108336


 29 32  0  0  0  0  0  0  0  0999 V2000
   16.7533   -9.9266   14.5662 C   0  0  0  0  0  0  0  0  0  0  0  0
   15.8478   -9.2409   13.8443 N   0  0  0  0  0  0  0  0  0  0  0  0
   16.3448   -9.1509   12.6204 N   0  0  0  0  0  0  0  0  0  0  0  0
   17.5291   -9.7897   12.6487 C   0  0  0  0  0  0  0  0  0  0  0  0
   17.7898  -10.2671   13.8409 O   0  0  0  0  0  0  0  0  0  0  0  0
   16.5634  -10.3182   16.2984 S   0  0  0  0  0  0  0  0  0  0  0  0
   15.7137   -8.7457   16.6323 C   0  0  0  0  0  0  0  0  0  0  0  0
   16.1243   -8.1960   17.9878 C   0  0  0  0  0  0  0  0  0  0  0  0
   13.9898   -7.1499   17.9602 O   0  0  0  0  0  0  0  0  0  0  0  0
   14.9733   -7.5228   18.6533 C   0  0  0  0  0  0  0  0  0  0  0  0
   14.9958   -7.3363   20.0744 N   0  0  0  0  0  0  0  0  0  0  0  0
   15.8020   -7.6457   20.5472 H   0  0  0  0  0  0  0  0  0  0  0  0
   13.9661   -6.7457   20.8788 C   0  0  0  0  0  0  0  0  0  0  0  0
   14.1750   -6.6247   22.2572 C   0  0  0  0  0  0  0  0  0  0  0  0
   13.1934   -6.0563   23.0747 C   0  0  0  0  0  0  0  0  0  0  0  0
   11.9944   -5.6052   22.5164 C   0  0  0  0  0  0  0  0  0  0  0  0
   11.0434   -5.0545   23.3082 F   0  0  0  0  0  0  0  0  0  0  0  0
   11.7769   -5.7226   21.1411 C   0  0  0  0  0  0  0  0  0  0  0  0
   12.7591   -6.2910   20.3250 C   0  0  0  0  0  0  0  0  0  0  0  0
   18.4468   -9.9004   11.4810 C   0  0  0  0  0  0  0  0  0  0  0  0
   17.7060   -9.6822   10.2482 N   0  0  0  0  0  0  0  0  0  0  0  0
   16.5157  -10.2065    9.9756 N   0  0  0  0  0  0  0  0  0  0  0  0
   16.0635   -9.7729    8.7986 N   0  0  0  0  0  0  0  0  0  0  0  0
   17.0105   -8.9393    8.3292 C   0  0  0  0  0  0  0  0  0  0  0  0
   17.0203   -8.2087    7.1453 C   0  0  0  0  0  0  0  0  0  0  0  0
   18.1427   -7.3896    6.9089 C   0  0  0  0  0  0  0  0  0  0  0  0
   19.2004   -7.3241    7.8478 C   0  0  0  0  0  0  0  0  0  0  0  0
   19.1535   -8.0776    9.0372 C   0  0  0  0  0  0  0  0  0  0  0  0
   18.0291   -8.8770    9.2283 C   0  0  0  0  0  0  0  0  0  0  0  0
  9 10  2  0  0  0
 10  8  1  0  0  0
 10 11  1  0  0  0
  8  7  1  0  0  0
  7  6  1  0  0  0
  6  1  1  0  0  0
  1  2  2  0  0  0
  2  3  1  0  0  0
  3  4  2  0  0  0
  4 20  1  0  0  0
  4  5  1  0  0  0
 20 21  1  0  0  0
 21 22  1  0  0  0
 22 23  2  0  0  0
 23 24  1  0  0  0
 24 25  2  0  0  0
 25 26  1  0  0  0
 26 27  2  0  0  0
 27 28  1  0  0  0
 28 29  2  0  0  0
 29 21  1  0  0  0
 29 24  1  0  0  0
  5  1  1  0  0  0
 11 13  1  0  0  0
 13 14  2  0  0  0
 14 15  1  0  0  0
 15 16  2  0  0  0
 16 17  1  0  0  0
 16 18  1  0  0  0
 18 19  2  0  0  0
 19 13  1  0  0  0
 11 12  1  0  0  0
M  END
>  <minimizedAffinity>
-8.20269

>  <minimizedRMSD>
2.57891

$$$$
CHEMBL4460758 PubChem-129052467


 32 36  0  0  0  0  0  0  0  0999 V2000
   16.3568   -9.3203   15.9441 C   0  0  0  0  0  0  0  0  0  0  0  0
   17.2833   -8.5392   16.5402 N   0  0  0  0  0  0  0  0  0  0  0  0
   16.5867   -7.8240   17.4469 C   0  0  0  0  0  0  0  0  0  0  0  0
   15.2642   -8.2072   17.3496 C   0  0  0  0  0  0  0  0  0  0  0  0
   15.1500   -9.1217   16.4201 O   0  0  0  0  0  0  0  0  0  0  0  0
   17.8469   -9.7893   14.0262 C   0  0  0  0  0  0  0  0  0  0  0  0
   16.6686  -10.2871   14.8429 C   0  0  0  0  0  0  0  0  0  0  0  0
   15.8546   -9.9627   13.6034 C   0  0  0  0  0  0  0  0  0  0  0  0
   17.0152   -9.4727   12.8698 N   0  0  0  0  0  0  0  0  0  0  0  0
   17.3261  -10.3417   11.7174 C   0  0  0  0  0  0  0  0  0  0  0  0
   17.6842   -9.6345   10.4350 C   0  0  0  0  0  0  0  0  0  0  0  0
   17.0760   -9.9231    9.2552 N   0  0  0  0  0  0  0  0  0  0  0  0
   17.6964   -9.0972    8.4014 C   0  0  0  0  0  0  0  0  0  0  0  0
   17.4660   -8.9577    7.0352 C   0  0  0  0  0  0  0  0  0  0  0  0
   18.2462   -8.0144    6.3407 C   0  0  0  0  0  0  0  0  0  0  0  0
   19.2199   -7.2489    7.0205 C   0  0  0  0  0  0  0  0  0  0  0  0
   19.4252   -7.4177    8.4028 C   0  0  0  0  0  0  0  0  0  0  0  0
   18.6350   -8.3601    9.0566 C   0  0  0  0  0  0  0  0  0  0  0  0
   18.6541   -8.6848   10.3568 N   0  0  0  0  0  0  0  0  0  0  0  0
   19.2258   -8.3264   11.0737 H   0  0  0  0  0  0  0  0  0  0  0  0
   14.1491   -7.6889   18.1461 C   0  0  0  0  0  0  0  0  0  0  0  0
   13.3380   -6.8762   17.6280 O   0  0  0  0  0  0  0  0  0  0  0  0
   13.9817   -8.1132   19.5014 N   0  0  0  0  0  0  0  0  0  0  0  0
   14.6097   -8.7764   19.8687 H   0  0  0  0  0  0  0  0  0  0  0  0
   12.9219   -7.6059   20.3610 C   0  0  0  0  0  0  0  0  0  0  0  0
   13.4442   -6.5147   21.2371 C   0  0  0  0  0  0  0  0  0  0  0  0
   14.3877   -6.7906   22.2371 C   0  0  0  0  0  0  0  0  0  0  0  0
   14.8715   -5.7450   23.0254 C   0  0  0  0  0  0  0  0  0  0  0  0
   14.4169   -4.4435   22.8106 C   0  0  0  0  0  0  0  0  0  0  0  0
   13.4817   -4.2058   21.8008 C   0  0  0  0  0  0  0  0  0  0  0  0
   13.0209   -5.2358   21.0409 N   0  0  0  0  0  0  0  0  0  0  0  0
   14.8395   -8.0527   22.4418 F   0  0  0  0  0  0  0  0  0  0  0  0
  6  7  1  0  0  0
  7  8  1  0  0  0
  8  9  1  0  0  0
  9 10  1  0  0  0
 10 11  1  0  0  0
 11 12  2  0  0  0
 12 13  1  0  0  0
 13 14  2  0  0  0
 14 15  1  0  0  0
 15 16  2  0  0  0
 16 17  1  0  0  0
 17 18  2  0  0  0
 18 19  1  0  0  0
  7  1  1  0  0  0
  1  2  2  0  0  0
  2  3  1  0  0  0
  3  4  2  0  0  0
  4  5  1  0  0  0
  4 21  1  0  0  0
 21 22  2  0  0  0
 21 23  1  0  0  0
 23 25  1  0  0  0
 25 26  1  0  0  0
 26 27  2  0  0  0
 27 28  1  0  0  0
 28 29  2  0  0  0
 29 30  1  0  0  0
 30 31  2  0  0  0
 27 32  1  0  0  0
  9  6  1  0  0  0
 19 11  1  0  0  0
 18 13  1  0  0  0
  5  1  1  0  0  0
 31 26  1  0  0  0
 19 20  1  0  0  0
 23 24  1  0  0  0
M  END
>  <minimizedAffinity>
-6.69574

>  <minimizedRMSD>
2.58686

$$$$
CHEMBL4900197 89878694 CSC027002396 MCULE-9650563302 MolPort-027-917-944 PubChem-71911888 Z1492347933 ZINC000089878694 ZINC89878694


 30 33  0  0  0  0  0  0  0  0999 V2000
   19.4625  -10.9834   14.6895 Cl  0  0  0  0  0  0  0  0  0  0  0  0
   18.1440  -10.1584   13.8716 C   0  0  0  0  0  0  0  0  0  0  0  0
   18.0937  -10.1976   12.4751 C   0  0  0  0  0  0  0  0  0  0  0  0
   17.0606   -9.5583   11.7731 C   0  0  0  0  0  0  0  0  0  0  0  0
   16.0706   -8.8768   12.4977 C   0  0  0  0  0  0  0  0  0  0  0  0
   16.1156   -8.8308   13.8929 C   0  0  0  0  0  0  0  0  0  0  0  0
   17.1467   -9.4703   14.5864 C   0  0  0  0  0  0  0  0  0  0  0  0
   17.0015   -9.6017   10.3338 N   0  0  0  0  0  0  0  0  0  0  0  0
   16.1430  -10.3476    9.5902 C   0  0  0  0  0  0  0  0  0  0  0  0
   16.3268  -10.1864    8.2528 N   0  0  0  0  0  0  0  0  0  0  0  0
   17.3386   -9.3051    8.1787 C   0  0  0  0  0  0  0  0  0  0  0  0
   17.9252   -8.7860    7.0273 C   0  0  0  0  0  0  0  0  0  0  0  0
   18.9750   -7.8644    7.1933 C   0  0  0  0  0  0  0  0  0  0  0  0
   19.4038   -7.4903    8.4860 C   0  0  0  0  0  0  0  0  0  0  0  0
   18.7876   -8.0335    9.6281 C   0  0  0  0  0  0  0  0  0  0  0  0
   17.7512   -8.9470    9.4277 C   0  0  0  0  0  0  0  0  0  0  0  0
   17.1702   -9.3852   16.0756 C   0  0  0  0  0  0  0  0  0  0  0  0
   16.4459   -8.2020   16.5096 N   0  0  0  0  0  0  0  0  0  0  0  0
   15.1857   -8.2859   17.1724 C   0  0  0  0  0  0  0  0  0  0  0  0
   14.6226   -9.4000   17.3429 O   0  0  0  0  0  0  0  0  0  0  0  0
   16.8375   -7.3146   16.3407 H   0  0  0  0  0  0  0  0  0  0  0  0
   14.5549   -7.0486   17.7120 C   0  0  0  0  0  0  0  0  0  0  0  0
   14.2045   -7.2375   19.1124 N   0  0  0  0  0  0  0  0  0  0  0  0
   12.9151   -7.7241   19.5764 C   0  0  0  0  0  0  0  0  0  0  0  0
   13.2058   -8.0753   21.0003 C   0  0  0  0  0  0  0  0  0  0  0  0
   12.3425   -8.5233   21.7983 O   0  0  0  0  0  0  0  0  0  0  0  0
   14.5632   -7.8657   21.3770 N   0  0  0  0  0  0  0  0  0  0  0  0
   15.1341   -7.3649   20.1811 C   0  0  0  0  0  0  0  0  0  0  0  0
   16.3549   -7.0757   20.0748 O   0  0  0  0  0  0  0  0  0  0  0  0
   14.9948   -8.0277   22.2468 H   0  0  0  0  0  0  0  0  0  0  0  0
  1  2  1  0  0  0
  2  3  2  0  0  0
  3  4  1  0  0  0
  4  5  2  0  0  0
  4  8  1  0  0  0
  5  6  1  0  0  0
  6  7  2  0  0  0
  7 17  1  0  0  0
  7  2  1  0  0  0
 17 18  1  0  0  0
 18 19  1  0  0  0
 19 20  2  0  0  0
 19 22  1  0  0  0
 22 23  1  0  0  0
 23 24  1  0  0  0
 24 25  1  0  0  0
 25 26  2  0  0  0
 25 27  1  0  0  0
 27 28  1  0  0  0
 28 29  2  0  0  0
 28 23  1  0  0  0
  8  9  1  0  0  0
  9 10  2  0  0  0
 10 11  1  0  0  0
 11 12  2  0  0  0
 12 13  1  0  0  0
 13 14  2  0  0  0
 14 15  1  0  0  0
 15 16  2  0  0  0
 16  8  1  0  0  0
 16 11  1  0  0  0
 18 21  1  0  0  0
 27 30  1  0  0  0
M  END
>  <minimizedAffinity>
-7.80926

>  <minimizedRMSD>
2.58917

$$$$
CHEMBL1472594 2975651 ChemDiv-K284-5724 MCULE-5515606110 MolPort-005-283-911 PubChem-3236801 ZINC000002975651 ZINC02975651


 36 39  0  0  0  0  0  0  0  0999 V2000
   18.1072   -8.6340   11.5713 C   0  0  0  0  0  0  0  0  0  0  0  0
   18.0311   -8.5577   10.1111 N   0  0  0  0  0  0  0  0  0  0  0  0
   19.1304   -8.1653    9.3903 C   0  0  0  0  0  0  0  0  0  0  0  0
   20.2179   -7.9035    9.9796 O   0  0  0  0  0  0  0  0  0  0  0  0
   19.0495   -8.0471    7.9968 C   0  0  0  0  0  0  0  0  0  0  0  0
   20.1578   -7.6472    7.2221 C   0  0  0  0  0  0  0  0  0  0  0  0
   19.9821   -7.5576    5.8442 C   0  0  0  0  0  0  0  0  0  0  0  0
   18.7970   -7.8400    5.2461 C   0  0  0  0  0  0  0  0  0  0  0  0
   18.9176   -7.6651    3.8805 O   0  0  0  0  0  0  0  0  0  0  0  0
   20.2616   -7.2486    3.6041 C   0  0  0  0  0  0  0  0  0  0  0  0
   20.9046   -7.1916    4.8859 O   0  0  0  0  0  0  0  0  0  0  0  0
   17.6755   -8.2331    5.9723 C   0  0  0  0  0  0  0  0  0  0  0  0
   17.8093   -8.3341    7.3696 C   0  0  0  0  0  0  0  0  0  0  0  0
   16.7474   -8.7017    8.1255 N   0  0  0  0  0  0  0  0  0  0  0  0
   16.8424   -8.8165    9.4764 C   0  0  0  0  0  0  0  0  0  0  0  0
   15.3665   -9.2833   10.3933 S   0  0  0  0  0  0  0  0  0  0  0  0
   15.2092  -10.8760    9.5313 C   0  0  0  0  0  0  0  0  0  0  0  0
   16.5092  -11.2916    8.9974 C   0  0  0  0  0  0  0  0  0  0  0  0
   17.5335  -11.6270    8.5710 N   0  0  0  0  0  0  0  0  0  0  0  0
   18.1726  -10.0791   12.0319 C   0  0  0  0  0  0  0  0  0  0  0  0
   17.3204  -10.2390   13.2756 C   0  0  0  0  0  0  0  0  0  0  0  0
   18.1901  -10.4591   14.5038 C   0  0  0  0  0  0  0  0  0  0  0  0
   18.2125   -9.2324   15.4109 C   0  0  0  0  0  0  0  0  0  0  0  0
   16.1748   -8.4685   16.7075 N   0  0  0  0  0  0  0  0  0  0  0  0
   16.8743   -8.5720   15.4635 C   0  0  0  0  0  0  0  0  0  0  0  0
   16.3639   -8.1232   14.4021 O   0  0  0  0  0  0  0  0  0  0  0  0
   16.6071   -8.8050   17.5255 H   0  0  0  0  0  0  0  0  0  0  0  0
   14.8440   -7.8818   16.8050 C   0  0  0  0  0  0  0  0  0  0  0  0
   13.8547   -6.9237   20.8776 C   0  0  0  0  0  0  0  0  0  0  0  0
   12.9462   -6.6668   19.8445 C   0  0  0  0  0  0  0  0  0  0  0  0
   13.2693   -6.9899   18.5228 C   0  0  0  0  0  0  0  0  0  0  0  0
   14.5024   -7.5768   18.2243 C   0  0  0  0  0  0  0  0  0  0  0  0
   15.4175   -7.8346   19.2530 C   0  0  0  0  0  0  0  0  0  0  0  0
   15.0949   -7.5122   20.5753 C   0  0  0  0  0  0  0  0  0  0  0  0
   14.4582   -6.4678   23.2327 C   0  0  0  0  0  0  0  0  0  0  0  0
   13.5025   -6.5826   22.1868 O   0  0  0  0  0  0  0  0  0  0  0  0
 35 36  1  0  0  0
 36 29  1  0  0  0
 29 30  2  0  0  0
 30 31  1  0  0  0
 31 32  2  0  0  0
 32 28  1  0  0  0
 32 33  1  0  0  0
 28 24  1  0  0  0
 24 25  1  0  0  0
 25 26  2  0  0  0
 25 23  1  0  0  0
 23 22  1  0  0  0
 22 21  1  0  0  0
 21 20  1  0  0  0
 20  1  1  0  0  0
  1  2  1  0  0  0
  2  3  1  0  0  0
  3  4  2  0  0  0
  3  5  1  0  0  0
  5  6  2  0  0  0
  6  7  1  0  0  0
  7  8  2  0  0  0
  8  9  1  0  0  0
  8 12  1  0  0  0
  9 10  1  0  0  0
 10 11  1  0  0  0
 11  7  1  0  0  0
 12 13  2  0  0  0
 13 14  1  0  0  0
 13  5  1  0  0  0
 14 15  2  0  0  0
 15 16  1  0  0  0
 15  2  1  0  0  0
 16 17  1  0  0  0
 17 18  1  0  0  0
 18 19  3  0  0  0
 33 34  2  0  0  0
 34 29  1  0  0  0
 24 27  1  0  0  0
M  END
>  <minimizedAffinity>
-3.20347

>  <minimizedRMSD>
2.59050

$$$$
CHEMBL3681201 PubChem-71225284


 38 42  0  0  0  0  0  0  0  0999 V2000
   20.0303   -7.4484    6.0766 C   0  0  0  0  0  0  0  0  0  0  0  0
   20.3549   -7.3580    7.4272 C   0  0  0  0  0  0  0  0  0  0  0  0
   19.3854   -8.0924    8.1098 C   0  0  0  0  0  0  0  0  0  0  0  0
   18.5026   -8.5838    7.1504 C   0  0  0  0  0  0  0  0  0  0  0  0
   18.9158   -8.1933    5.9358 N   0  0  0  0  0  0  0  0  0  0  0  0
   18.2702   -8.5019    4.8123 N   0  0  0  0  0  0  0  0  0  0  0  0
   17.1276   -9.2366    4.8862 C   0  0  0  0  0  0  0  0  0  0  0  0
   16.6538   -9.6301    6.1029 N   0  0  0  0  0  0  0  0  0  0  0  0
   17.3116   -9.3152    7.2530 C   0  0  0  0  0  0  0  0  0  0  0  0
   16.7411   -9.6729    8.5054 N   0  0  0  0  0  0  0  0  0  0  0  0
   15.9025  -10.1876    8.5352 H   0  0  0  0  0  0  0  0  0  0  0  0
   17.1848   -9.4058    9.3427 H   0  0  0  0  0  0  0  0  0  0  0  0
   21.1492   -4.9463    3.4675 C   0  0  0  0  0  0  0  0  0  0  0  0
   22.2122   -5.6000    2.9266 N   0  0  0  0  0  0  0  0  0  0  0  0
   22.5970   -6.8280    3.3647 C   0  0  0  0  0  0  0  0  0  0  0  0
   21.8967   -7.4544    4.3966 C   0  0  0  0  0  0  0  0  0  0  0  0
   20.7967   -6.8142    4.9791 C   0  0  0  0  0  0  0  0  0  0  0  0
   20.4243   -5.5493    4.5065 C   0  0  0  0  0  0  0  0  0  0  0  0
   19.8545   -2.8432    3.6133 C   0  0  0  0  0  0  0  0  0  0  0  0
   20.8036   -3.6855    2.9733 O   0  0  0  0  0  0  0  0  0  0  0  0
   19.4030   -8.3000    9.5680 C   0  0  0  0  0  0  0  0  0  0  0  0
   20.2576   -7.6909   10.2673 O   0  0  0  0  0  0  0  0  0  0  0  0
   18.5217   -9.2420   10.1828 N   0  0  0  0  0  0  0  0  0  0  0  0
   17.9086   -9.7573    9.6102 H   0  0  0  0  0  0  0  0  0  0  0  0
   18.4923   -9.4718   11.6188 C   0  0  0  0  0  0  0  0  0  0  0  0
   18.9046  -10.9132   11.9119 C   0  0  0  0  0  0  0  0  0  0  0  0
   18.8576  -11.1854   13.4143 C   0  0  0  0  0  0  0  0  0  0  0  0
   17.4520  -10.9233   13.9466 C   0  0  0  0  0  0  0  0  0  0  0  0
   17.0354   -9.5737   13.5736 N   0  0  0  0  0  0  0  0  0  0  0  0
   17.0865   -9.2112   12.1604 C   0  0  0  0  0  0  0  0  0  0  0  0
   16.6144   -8.6163   14.5582 C   0  0  0  0  0  0  0  0  0  0  0  0
   16.2097   -7.4784   14.1952 O   0  0  0  0  0  0  0  0  0  0  0  0
   16.6131   -8.9564   16.0171 C   0  0  0  0  0  0  0  0  0  0  0  0
   15.4753   -8.4244   16.8549 C   0  0  0  0  0  0  0  0  0  0  0  0
   15.5529   -9.9100   16.5150 C   0  0  0  0  0  0  0  0  0  0  0  0
   17.8845   -9.0526   16.7107 N   0  0  0  0  0  0  0  0  0  0  0  0
   18.5397   -8.3785   16.3148 H   0  0  0  0  0  0  0  0  0  0  0  0
   18.2599   -9.9949   16.6035 H   0  0  0  0  0  0  0  0  0  0  0  0
 19 20  1  0  0  0
 20 13  1  0  0  0
 13 14  2  0  0  0
 14 15  1  0  0  0
 15 16  2  0  0  0
 16 17  1  0  0  0
 17 18  2  0  0  0
 17  1  1  0  0  0
 18 13  1  0  0  0
  1  2  2  0  0  0
  2  3  1  0  0  0
  3  4  2  0  0  0
  3 21  1  0  0  0
  4  5  1  0  0  0
  5  6  1  0  0  0
  5  1  1  0  0  0
  6  7  2  0  0  0
  7  8  1  0  0  0
  8  9  2  0  0  0
  9 10  1  0  0  0
  9  4  1  0  0  0
 21 22  2  0  0  0
 21 23  1  0  0  0
 25 23  1  0  0  0
 25 26  1  0  0  0
 26 27  1  0  0  0
 27 28  1  0  0  0
 28 29  1  0  0  0
 29 30  1  0  0  0
 29 31  1  0  0  0
 30 25  1  0  0  0
 31 32  2  0  0  0
 31 33  1  0  0  0
 33 34  1  0  0  0
 33 36  1  0  0  0
 34 35  1  0  0  0
 35 33  1  0  0  0
 10 11  1  0  0  0
 10 12  1  0  0  0
 23 24  1  0  0  0
 36 37  1  0  0  0
 36 38  1  0  0  0
M  END
>  <minimizedAffinity>
-1.00813

>  <minimizedRMSD>
2.59611

$$$$
CHEMBL1705962 9642944 CSC026851070 MCULE-6829274442 MolPort-004-164-558 PubChem-16306718 Z80238419 ZINC000009642944


 35 38  0  0  0  0  0  0  0  0999 V2000
   15.1573   -7.9456   17.0949 N   0  0  0  0  0  0  0  0  0  0  0  0
   15.2508   -7.8277   15.6632 C   0  0  0  0  0  0  0  0  0  0  0  0
   14.2012   -7.7741   14.9645 O   0  0  0  0  0  0  0  0  0  0  0  0
   16.5862   -7.7480   14.9867 C   0  0  0  0  0  0  0  0  0  0  0  0
   17.0502   -9.1423   14.5346 C   0  0  0  0  0  0  0  0  0  0  0  0
   17.7540   -9.1013   13.1832 C   0  0  0  0  0  0  0  0  0  0  0  0
   16.8736   -8.4767   12.1969 N   0  0  0  0  0  0  0  0  0  0  0  0
   16.1321   -7.2590   12.5330 C   0  0  0  0  0  0  0  0  0  0  0  0
   16.5852   -6.6853   13.8768 C   0  0  0  0  0  0  0  0  0  0  0  0
   16.4820   -9.2244   11.0431 C   0  0  0  0  0  0  0  0  0  0  0  0
   17.1272   -9.0819    9.8013 C   0  0  0  0  0  0  0  0  0  0  0  0
   18.1411   -8.1831    9.4115 C   0  0  0  0  0  0  0  0  0  0  0  0
   18.7235   -7.1165   10.2780 C   0  0  0  0  0  0  0  0  0  0  0  0
   18.5089   -8.3479    8.0731 C   0  0  0  0  0  0  0  0  0  0  0  0
   19.5346   -7.5493    7.3461 C   0  0  0  0  0  0  0  0  0  0  0  0
   17.5837   -9.5704    7.3638 S   0  0  0  0  0  0  0  0  0  0  0  0
   16.7165   -9.8975    8.7607 C   0  0  0  0  0  0  0  0  0  0  0  0
   15.7134  -10.7965    8.8917 N   0  0  0  0  0  0  0  0  0  0  0  0
   15.0858  -10.9100   10.0939 C   0  0  0  0  0  0  0  0  0  0  0  0
   15.4690  -10.1333   11.1488 N   0  0  0  0  0  0  0  0  0  0  0  0
   13.9479   -7.1269   19.0510 C   0  0  0  0  0  0  0  0  0  0  0  0
   13.8616   -7.9222   17.7610 C   0  0  0  0  0  0  0  0  0  0  0  0
   16.3479   -7.9347   17.9369 C   0  0  0  0  0  0  0  0  0  0  0  0
   17.3123   -8.9783   17.4861 C   0  0  0  0  0  0  0  0  0  0  0  0
   18.5341   -8.6905   17.3823 O   0  0  0  0  0  0  0  0  0  0  0  0
   16.8460  -10.3071   17.2302 N   0  0  0  0  0  0  0  0  0  0  0  0
   15.9475  -10.5387   17.5594 H   0  0  0  0  0  0  0  0  0  0  0  0
   17.5723  -11.3313   16.5363 C   0  0  0  0  0  0  0  0  0  0  0  0
   18.5395  -12.0669   17.2384 C   0  0  0  0  0  0  0  0  0  0  0  0
   18.8003  -11.7877   18.5395 F   0  0  0  0  0  0  0  0  0  0  0  0
   19.2566  -13.0816   16.5988 C   0  0  0  0  0  0  0  0  0  0  0  0
   18.9988  -13.3862   15.2612 C   0  0  0  0  0  0  0  0  0  0  0  0
   18.0162  -12.6821   14.5629 C   0  0  0  0  0  0  0  0  0  0  0  0
   17.2977  -11.6617   15.1930 C   0  0  0  0  0  0  0  0  0  0  0  0
   16.3033  -11.0482   14.5064 F   0  0  0  0  0  0  0  0  0  0  0  0
 21 22  1  0  0  0
 22  1  1  0  0  0
  1 23  1  0  0  0
 23 24  1  0  0  0
 24 25  2  0  0  0
 24 26  1  0  0  0
 26 28  1  0  0  0
 28 29  2  0  0  0
 29 30  1  0  0  0
 29 31  1  0  0  0
 31 32  2  0  0  0
 32 33  1  0  0  0
 33 34  2  0  0  0
 34 35  1  0  0  0
  1  2  1  0  0  0
  2  3  2  0  0  0
  2  4  1  0  0  0
  4  5  1  0  0  0
  5  6  1  0  0  0
  6  7  1  0  0  0
  7  8  1  0  0  0
  8  9  1  0  0  0
  7 10  1  0  0  0
 10 11  2  0  0  0
 11 12  1  0  0  0
 12 13  1  0  0  0
 12 14  2  0  0  0
 14 15  1  0  0  0
 14 16  1  0  0  0
 16 17  1  0  0  0
 17 18  2  0  0  0
 18 19  1  0  0  0
 19 20  2  0  0  0
 34 28  1  0  0  0
  9  4  1  0  0  0
 20 10  1  0  0  0
 17 11  1  0  0  0
 26 27  1  0  0  0
M  END
>  <minimizedAffinity>
10.37887

>  <minimizedRMSD>
2.59642

$$$$
CHEMBL1556493


 33 36  0  0  0  0  0  0  0  0999 V2000
   17.6791   -9.5418   14.5269 C   0  0  0  0  0  0  0  0  0  0  0  0
   16.1979   -9.3183   14.2397 C   0  0  0  0  0  0  0  0  0  0  0  0
   15.5709   -8.3679   15.2682 C   0  0  0  0  0  0  0  0  0  0  0  0
   16.2280   -8.4481   16.6549 C   0  0  0  0  0  0  0  0  0  0  0  0
   16.8100   -9.8343   16.9278 C   0  0  0  0  0  0  0  0  0  0  0  0
   17.8885  -10.2009   15.8996 C   0  0  0  0  0  0  0  0  0  0  0  0
   15.2545   -8.0684   17.7181 C   0  0  0  0  0  0  0  0  0  0  0  0
   14.2582   -7.3589   17.4169 O   0  0  0  0  0  0  0  0  0  0  0  0
   15.4523   -8.5081   19.0654 N   0  0  0  0  0  0  0  0  0  0  0  0
   16.1816   -9.1419   19.2540 H   0  0  0  0  0  0  0  0  0  0  0  0
   14.6168   -8.0544   20.1683 C   0  0  0  0  0  0  0  0  0  0  0  0
   15.0575   -6.6715   20.6331 C   0  0  0  0  0  0  0  0  0  0  0  0
   13.9019   -5.7345   20.7530 C   0  0  0  0  0  0  0  0  0  0  0  0
   13.9642   -4.6352   21.6191 C   0  0  0  0  0  0  0  0  0  0  0  0
   12.8762   -3.7631   21.7227 C   0  0  0  0  0  0  0  0  0  0  0  0
   11.7267   -3.9855   20.9584 C   0  0  0  0  0  0  0  0  0  0  0  0
   11.6656   -5.0784   20.0883 C   0  0  0  0  0  0  0  0  0  0  0  0
   12.7533   -5.9506   19.9839 C   0  0  0  0  0  0  0  0  0  0  0  0
   18.2953  -10.3943   13.4298 C   0  0  0  0  0  0  0  0  0  0  0  0
   18.5606   -9.5894   12.2447 N   0  0  0  0  0  0  0  0  0  0  0  0
   19.3898   -9.0597   12.2114 H   0  0  0  0  0  0  0  0  0  0  0  0
   13.9010  -10.6849   10.3648 S   0  0  0  0  0  0  0  0  0  0  0  0
   15.5417  -10.0051   10.1839 C   0  0  0  0  0  0  0  0  0  0  0  0
   16.4100  -10.0458   11.2283 N   0  0  0  0  0  0  0  0  0  0  0  0
   17.6677   -9.5349   11.1259 C   0  0  0  0  0  0  0  0  0  0  0  0
   18.0776   -8.9560    9.9175 C   0  0  0  0  0  0  0  0  0  0  0  0
   17.1604   -8.9247    8.8463 C   0  0  0  0  0  0  0  0  0  0  0  0
   15.9179   -9.4479    9.0036 N   0  0  0  0  0  0  0  0  0  0  0  0
   17.5322   -8.3546    7.6254 C   0  0  0  0  0  0  0  0  0  0  0  0
   18.8126   -7.8156    7.4665 C   0  0  0  0  0  0  0  0  0  0  0  0
   19.7241   -7.8447    8.5269 C   0  0  0  0  0  0  0  0  0  0  0  0
   19.3591   -8.4134    9.7510 C   0  0  0  0  0  0  0  0  0  0  0  0
   13.7528  -11.1834   11.6214 H   0  0  0  0  0  0  0  0  0  0  0  0
 22 23  1  0  0  0
 23 24  2  0  0  0
 24 25  1  0  0  0
 25 20  1  0  0  0
 20 19  1  0  0  0
 19  1  1  0  0  0
  1  2  1  0  0  0
  2  3  1  0  0  0
  3  4  1  0  0  0
  4  5  1  0  0  0
  5  6  1  0  0  0
  4  7  1  0  0  0
  7  8  2  0  0  0
  7  9  1  0  0  0
  9 11  1  0  0  0
 11 12  1  0  0  0
 12 13  1  0  0  0
 13 14  2  0  0  0
 14 15  1  0  0  0
 15 16  2  0  0  0
 16 17  1  0  0  0
 17 18  2  0  0  0
 25 26  2  0  0  0
 26 27  1  0  0  0
 27 28  2  0  0  0
 27 29  1  0  0  0
 29 30  2  0  0  0
 30 31  1  0  0  0
 31 32  2  0  0  0
 28 23  1  0  0  0
  6  1  1  0  0  0
 18 13  1  0  0  0
 32 26  1  0  0  0
 22 33  1  0  0  0
 20 21  1  0  0  0
  9 10  1  0  0  0
M  END
>  <minimizedAffinity>
-7.55386

>  <minimizedRMSD>
2.59745

$$$$
CHEMBL3911110 PubChem-73507101


 33 37  0  0  0  0  0  0  0  0999 V2000
   16.1759   -9.8498    9.5095 C   0  0  0  0  0  0  0  0  0  0  0  0
   15.0707  -10.3246    9.1338 O   0  0  0  0  0  0  0  0  0  0  0  0
   17.0744   -9.2604    8.4981 C   0  0  0  0  0  0  0  0  0  0  0  0
   16.9665   -9.5469    7.1755 N   0  0  0  0  0  0  0  0  0  0  0  0
   17.9029   -8.8854    6.4494 C   0  0  0  0  0  0  0  0  0  0  0  0
   18.7546   -8.0763    7.1798 C   0  0  0  0  0  0  0  0  0  0  0  0
   18.3439   -8.1723    8.8011 S   0  0  0  0  0  0  0  0  0  0  0  0
   19.7670   -7.3328    6.5823 C   0  0  0  0  0  0  0  0  0  0  0  0
   19.9231   -7.4130    5.1827 C   0  0  0  0  0  0  0  0  0  0  0  0
   19.0506   -8.2416    4.4369 C   0  0  0  0  0  0  0  0  0  0  0  0
   18.0363   -8.9819    5.0661 C   0  0  0  0  0  0  0  0  0  0  0  0
   20.9879   -6.6387    4.5011 C   0  0  0  0  0  0  0  0  0  0  0  0
   20.9674   -5.2336    4.5088 C   0  0  0  0  0  0  0  0  0  0  0  0
   21.9712   -4.5036    3.8660 C   0  0  0  0  0  0  0  0  0  0  0  0
   23.0073   -5.1703    3.2078 C   0  0  0  0  0  0  0  0  0  0  0  0
   23.0398   -6.5666    3.1924 C   0  0  0  0  0  0  0  0  0  0  0  0
   22.0360   -7.2965    3.8353 C   0  0  0  0  0  0  0  0  0  0  0  0
   17.5777  -10.0322   12.7265 C   0  0  0  0  0  0  0  0  0  0  0  0
   16.2800   -9.9265   13.0680 N   0  0  0  0  0  0  0  0  0  0  0  0
   15.6055   -9.8476   11.9316 N   0  0  0  0  0  0  0  0  0  0  0  0
   16.5180   -9.9063   10.9416 C   0  0  0  0  0  0  0  0  0  0  0  0
   17.7320  -10.0178   11.4258 O   0  0  0  0  0  0  0  0  0  0  0  0
   18.7057  -10.1400   13.7037 C   0  0  0  0  0  0  0  0  0  0  0  0
   18.6015  -11.7266   15.6681 C   0  0  0  0  0  0  0  0  0  0  0  0
   18.2344  -10.3453   15.1461 C   0  0  0  0  0  0  0  0  0  0  0  0
   18.8083   -9.2850   16.0342 C   0  0  0  0  0  0  0  0  0  0  0  0
   20.0411   -9.1141   16.2292 O   0  0  0  0  0  0  0  0  0  0  0  0
   17.8197   -8.4719   16.6494 N   0  0  0  0  0  0  0  0  0  0  0  0
   16.6166   -9.0260   16.1470 C   0  0  0  0  0  0  0  0  0  0  0  0
   15.4812   -8.5816   16.4569 O   0  0  0  0  0  0  0  0  0  0  0  0
   16.7969  -10.1259   15.2640 N   0  0  0  0  0  0  0  0  0  0  0  0
   17.9399   -7.7154   17.2678 H   0  0  0  0  0  0  0  0  0  0  0  0
   16.0869  -10.6412   14.8172 H   0  0  0  0  0  0  0  0  0  0  0  0
 25 24  1  0  0  0
 25 26  1  0  0  0
 25 23  1  0  0  0
 26 27  2  0  0  0
 26 28  1  0  0  0
 28 29  1  0  0  0
 29 30  2  0  0  0
 29 31  1  0  0  0
 31 25  1  0  0  0
 23 18  1  0  0  0
 18 19  2  0  0  0
 19 20  1  0  0  0
 20 21  2  0  0  0
 21 22  1  0  0  0
 21  1  1  0  0  0
 22 18  1  0  0  0
  1  2  2  0  0  0
  1  3  1  0  0  0
  3  4  2  0  0  0
  4  5  1  0  0  0
  5  6  2  0  0  0
  6  7  1  0  0  0
  6  8  1  0  0  0
  7  3  1  0  0  0
  8  9  2  0  0  0
  9 10  1  0  0  0
  9 12  1  0  0  0
 10 11  2  0  0  0
 11  5  1  0  0  0
 12 13  2  0  0  0
 13 14  1  0  0  0
 14 15  2  0  0  0
 15 16  1  0  0  0
 16 17  2  0  0  0
 17 12  1  0  0  0
 28 32  1  0  0  0
 31 33  1  0  0  0
M  END
>  <minimizedAffinity>
-8.78165

>  <minimizedRMSD>
2.59769

$$$$
CHEMBL1455612 873754 MCULE-7691542463 MolPort-000-007-302 PubChem-1132911 ZINC000000873754 ZINC00873754


 28 31  0  0  0  0  0  0  0  0999 V2000
   17.1947   -9.0327   14.4388 C   0  0  0  0  0  0  0  0  0  0  0  0
   16.0314   -8.5475   13.9666 N   0  0  0  0  0  0  0  0  0  0  0  0
   15.9498   -8.9474   12.7072 N   0  0  0  0  0  0  0  0  0  0  0  0
   17.0654   -9.6611   12.4674 C   0  0  0  0  0  0  0  0  0  0  0  0
   17.8386   -9.7150   13.5241 O   0  0  0  0  0  0  0  0  0  0  0  0
   17.7863   -8.7712   16.1060 S   0  0  0  0  0  0  0  0  0  0  0  0
   16.2640   -9.4256   16.8572 C   0  0  0  0  0  0  0  0  0  0  0  0
   15.4670   -8.4139   19.0269 N   0  0  0  0  0  0  0  0  0  0  0  0
   15.5474   -8.3505   17.5970 C   0  0  0  0  0  0  0  0  0  0  0  0
   15.0380   -7.3942   16.9550 O   0  0  0  0  0  0  0  0  0  0  0  0
   15.8775   -9.1982   19.4578 H   0  0  0  0  0  0  0  0  0  0  0  0
   15.6243   -5.8171   23.2206 C   0  0  0  0  0  0  0  0  0  0  0  0
   14.9289   -6.1746   21.9570 C   0  0  0  0  0  0  0  0  0  0  0  0
   13.7062   -5.5771   21.6391 C   0  0  0  0  0  0  0  0  0  0  0  0
   13.0530   -5.9138   20.4507 C   0  0  0  0  0  0  0  0  0  0  0  0
   13.6231   -6.8482   19.5811 C   0  0  0  0  0  0  0  0  0  0  0  0
   14.8505   -7.4528   19.8944 C   0  0  0  0  0  0  0  0  0  0  0  0
   15.4980   -7.1091   21.0864 C   0  0  0  0  0  0  0  0  0  0  0  0
   17.3947  -10.2781   11.1519 C   0  0  0  0  0  0  0  0  0  0  0  0
   18.2495   -9.3855   10.3838 N   0  0  0  0  0  0  0  0  0  0  0  0
   19.4041   -8.8124   10.8007 C   0  0  0  0  0  0  0  0  0  0  0  0
   19.9369   -7.9828    9.8624 N   0  0  0  0  0  0  0  0  0  0  0  0
   19.0604   -8.0546    8.8432 C   0  0  0  0  0  0  0  0  0  0  0  0
   19.1171   -7.3855    7.6233 C   0  0  0  0  0  0  0  0  0  0  0  0
   18.0680   -7.6119    6.7118 C   0  0  0  0  0  0  0  0  0  0  0  0
   17.0059   -8.4853    7.0394 C   0  0  0  0  0  0  0  0  0  0  0  0
   16.9794   -9.1451    8.2823 C   0  0  0  0  0  0  0  0  0  0  0  0
   18.0374   -8.8973    9.1557 C   0  0  0  0  0  0  0  0  0  0  0  0
 12 13  1  0  0  0
 13 14  2  0  0  0
 14 15  1  0  0  0
 15 16  2  0  0  0
 16 17  1  0  0  0
 17  8  1  0  0  0
 17 18  2  0  0  0
  8  9  1  0  0  0
  9 10  2  0  0  0
  9  7  1  0  0  0
  7  6  1  0  0  0
  6  1  1  0  0  0
  1  2  2  0  0  0
  2  3  1  0  0  0
  3  4  2  0  0  0
  4 19  1  0  0  0
  4  5  1  0  0  0
 19 20  1  0  0  0
 20 21  1  0  0  0
 21 22  2  0  0  0
 22 23  1  0  0  0
 23 24  2  0  0  0
 24 25  1  0  0  0
 25 26  2  0  0  0
 26 27  1  0  0  0
 27 28  2  0  0  0
 28 20  1  0  0  0
 28 23  1  0  0  0
  5  1  1  0  0  0
 18 13  1  0  0  0
  8 11  1  0  0  0
M  END
>  <minimizedAffinity>
-7.12810

>  <minimizedRMSD>
2.59852

$$$$
CHEMBL426834 PubChem-11691676


 37 41  0  0  0  0  0  0  0  0999 V2000
   18.3168   -8.8792   16.5561 C   0  0  0  0  0  0  0  0  0  0  0  0
   18.7801   -9.5663   15.2805 C   0  0  0  0  0  0  0  0  0  0  0  0
   17.2025  -10.0350   12.2303 N   0  0  0  0  0  0  0  0  0  0  0  0
   18.4957  -10.6452   12.5106 C   0  0  0  0  0  0  0  0  0  0  0  0
   18.4139  -11.4397   13.8168 C   0  0  0  0  0  0  0  0  0  0  0  0
   17.8622  -10.6459   14.9252 N   0  0  0  0  0  0  0  0  0  0  0  0
   16.5442  -10.0948   14.5800 C   0  0  0  0  0  0  0  0  0  0  0  0
   16.5744   -9.2638   13.2942 C   0  0  0  0  0  0  0  0  0  0  0  0
   18.7120   -8.2503    8.2746 C   0  0  0  0  0  0  0  0  0  0  0  0
   17.7733   -8.4851    7.2347 C   0  0  0  0  0  0  0  0  0  0  0  0
   16.5744   -9.1787    7.4848 C   0  0  0  0  0  0  0  0  0  0  0  0
   16.3529   -9.6190    8.7857 C   0  0  0  0  0  0  0  0  0  0  0  0
   15.3267  -10.2860    9.2563 O   0  0  0  0  0  0  0  0  0  0  0  0
   15.4866  -10.5240   10.5319 N   0  0  0  0  0  0  0  0  0  0  0  0
   16.6726   -9.9804   10.8974 C   0  0  0  0  0  0  0  0  0  0  0  0
   17.2496   -9.3938    9.7901 C   0  0  0  0  0  0  0  0  0  0  0  0
   18.4464   -8.7135    9.5780 C   0  0  0  0  0  0  0  0  0  0  0  0
   20.4036   -7.3228    6.7270 C   0  0  0  0  0  0  0  0  0  0  0  0
   19.9064   -7.5650    8.0361 O   0  0  0  0  0  0  0  0  0  0  0  0
   17.0062   -9.4707   17.0590 C   0  0  0  0  0  0  0  0  0  0  0  0
   15.8920   -8.4353   17.0444 C   0  0  0  0  0  0  0  0  0  0  0  0
   15.6543   -7.9428   18.3918 N   0  0  0  0  0  0  0  0  0  0  0  0
   14.3835   -7.4329   18.8033 C   0  0  0  0  0  0  0  0  0  0  0  0
   13.4349   -7.3588   17.9741 O   0  0  0  0  0  0  0  0  0  0  0  0
   16.3930   -7.9612   19.0423 H   0  0  0  0  0  0  0  0  0  0  0  0
   14.1830   -6.9948   20.1957 C   0  0  0  0  0  0  0  0  0  0  0  0
   12.9025   -6.6620   20.6601 C   0  0  0  0  0  0  0  0  0  0  0  0
   12.7146   -6.2552   21.9843 C   0  0  0  0  0  0  0  0  0  0  0  0
   13.8064   -6.1755   22.8526 C   0  0  0  0  0  0  0  0  0  0  0  0
   15.0928   -6.5008   22.4014 C   0  0  0  0  0  0  0  0  0  0  0  0
   15.2721   -6.9131   21.0745 C   0  0  0  0  0  0  0  0  0  0  0  0
   16.2451   -6.4186   23.3124 C   0  0  0  0  0  0  0  0  0  0  0  0
   17.2078   -5.4777   23.2227 N   0  0  0  0  0  0  0  0  0  0  0  0
   18.0295   -5.7488   24.1907 O   0  0  0  0  0  0  0  0  0  0  0  0
   17.6025   -6.7977   24.8475 C   0  0  0  0  0  0  0  0  0  0  0  0
   18.2979   -7.3900   26.0206 C   0  0  0  0  0  0  0  0  0  0  0  0
   16.4563   -7.2793   24.3325 N   0  0  0  0  0  0  0  0  0  0  0  0
 18 19  1  0  0  0
 19  9  1  0  0  0
  9 10  2  0  0  0
 10 11  1  0  0  0
 11 12  2  0  0  0
 12 13  1  0  0  0
 13 14  1  0  0  0
 14 15  2  0  0  0
 15  3  1  0  0  0
 15 16  1  0  0  0
  3  4  1  0  0  0
  4  5  1  0  0  0
  5  6  1  0  0  0
  6  2  1  0  0  0
  6  7  1  0  0  0
  2  1  1  0  0  0
  1 20  1  0  0  0
 20 21  1  0  0  0
 21 22  1  0  0  0
 22 23  1  0  0  0
 23 24  2  0  0  0
 23 26  1  0  0  0
 26 27  2  0  0  0
 27 28  1  0  0  0
 28 29  2  0  0  0
 29 30  1  0  0  0
 30 32  1  0  0  0
 30 31  2  0  0  0
 32 33  2  0  0  0
 33 34  1  0  0  0
 34 35  1  0  0  0
 35 36  1  0  0  0
 35 37  2  0  0  0
 37 32  1  0  0  0
 31 26  1  0  0  0
  7  8  1  0  0  0
  8  3  1  0  0  0
 16 17  2  0  0  0
 16 12  1  0  0  0
 17  9  1  0  0  0
 22 25  1  0  0  0
M  END
>  <minimizedAffinity>
-9.68521

>  <minimizedRMSD>
2.59979

$$$$
CHEMBL4113333 PubChem-90072693


 37 41  0  0  0  0  0  0  0  0999 V2000
   15.8241  -10.2917    8.9706 C   0  0  0  0  0  0  0  0  0  0  0  0
   16.9082   -9.5441    8.2742 C   0  0  0  0  0  0  0  0  0  0  0  0
   17.9683   -8.8671    8.8699 C   0  0  0  0  0  0  0  0  0  0  0  0
   18.7025   -8.3417    7.8719 N   0  0  0  0  0  0  0  0  0  0  0  0
   19.8360   -7.5938    7.9088 C   0  0  0  0  0  0  0  0  0  0  0  0
   20.3953   -7.1759    6.6939 C   0  0  0  0  0  0  0  0  0  0  0  0
   19.7741   -7.5373    5.4857 C   0  0  0  0  0  0  0  0  0  0  0  0
   18.5980   -8.3120    5.4887 C   0  0  0  0  0  0  0  0  0  0  0  0
   18.0900   -8.7007    6.7286 C   0  0  0  0  0  0  0  0  0  0  0  0
   16.9804   -9.4420    6.9265 N   0  0  0  0  0  0  0  0  0  0  0  0
   18.2588   -8.7341   10.3141 C   0  0  0  0  0  0  0  0  0  0  0  0
   19.4102   -8.3916   10.6965 O   0  0  0  0  0  0  0  0  0  0  0  0
   17.2353   -8.9871   11.2801 N   0  0  0  0  0  0  0  0  0  0  0  0
   16.3292   -9.2029   10.9612 H   0  0  0  0  0  0  0  0  0  0  0  0
   17.4763   -8.9392   12.7154 C   0  0  0  0  0  0  0  0  0  0  0  0
   16.1423   -8.7156   13.4417 C   0  0  0  0  0  0  0  0  0  0  0  0
   15.8966   -9.9224   14.3775 C   0  0  0  0  0  0  0  0  0  0  0  0
   17.0556  -10.8044   14.1199 C   0  0  0  0  0  0  0  0  0  0  0  0
   17.2979  -12.0500   14.7039 C   0  0  0  0  0  0  0  0  0  0  0  0
   18.4630  -12.7445   14.3461 C   0  0  0  0  0  0  0  0  0  0  0  0
   19.3617  -12.1882   13.4196 C   0  0  0  0  0  0  0  0  0  0  0  0
   19.0973  -10.9371   12.8434 C   0  0  0  0  0  0  0  0  0  0  0  0
   17.9270  -10.2651   13.2064 C   0  0  0  0  0  0  0  0  0  0  0  0
   15.8868   -9.5382   15.7218 O   0  0  0  0  0  0  0  0  0  0  0  0
   16.1825   -7.5085   14.1440 O   0  0  0  0  0  0  0  0  0  0  0  0
   16.7287   -9.1094   15.9416 H   0  0  0  0  0  0  0  0  0  0  0  0
   16.9081   -7.5328   14.7874 H   0  0  0  0  0  0  0  0  0  0  0  0
   17.9482   -8.6930    4.3092 O   0  0  0  0  0  0  0  0  0  0  0  0
   18.5544   -9.5077    3.3100 C   0  0  0  0  0  0  0  0  0  0  0  0
   19.6341   -8.7527    2.5978 C   0  0  0  0  0  0  0  0  0  0  0  0
   20.8874   -9.3501    2.3894 C   0  0  0  0  0  0  0  0  0  0  0  0
   21.8980   -8.6448    1.7293 C   0  0  0  0  0  0  0  0  0  0  0  0
   21.6638   -7.3456    1.2723 C   0  0  0  0  0  0  0  0  0  0  0  0
   20.4167   -6.7490    1.4723 C   0  0  0  0  0  0  0  0  0  0  0  0
   19.4011   -7.4481    2.1311 C   0  0  0  0  0  0  0  0  0  0  0  0
   18.1964   -6.8522    2.3147 F   0  0  0  0  0  0  0  0  0  0  0  0
   21.1319  -10.6127    2.8207 F   0  0  0  0  0  0  0  0  0  0  0  0
  1  2  1  0  0  0
  2  3  2  0  0  0
  3  4  1  0  0  0
  3 11  1  0  0  0
  4  5  1  0  0  0
  5  6  2  0  0  0
  6  7  1  0  0  0
  7  8  2  0  0  0
  8  9  1  0  0  0
  8 28  1  0  0  0
  9 10  2  0  0  0
  9  4  1  0  0  0
 10  2  1  0  0  0
 28 29  1  0  0  0
 29 30  1  0  0  0
 30 31  2  0  0  0
 31 32  1  0  0  0
 31 37  1  0  0  0
 32 33  2  0  0  0
 33 34  1  0  0  0
 34 35  2  0  0  0
 35 36  1  0  0  0
 35 30  1  0  0  0
 11 12  2  0  0  0
 11 13  1  0  0  0
 15 13  1  0  0  0
 15 16  1  0  0  0
 16 17  1  0  0  0
 16 25  1  0  0  0
 17 18  1  0  0  0
 17 24  1  0  0  0
 18 19  2  0  0  0
 19 20  1  0  0  0
 20 21  2  0  0  0
 21 22  1  0  0  0
 22 23  2  0  0  0
 23 15  1  0  0  0
 23 18  1  0  0  0
 13 14  1  0  0  0
 24 26  1  0  0  0
 25 27  1  0  0  0
M  END
>  <minimizedAffinity>
-3.19389

>  <minimizedRMSD>
2.60132

$$$$
CHEMBL5267533 PubChem-69676454


 32 35  0  0  0  0  0  0  0  0999 V2000
   17.1035   -7.4025   14.7759 C   0  0  0  0  0  0  0  0  0  0  0  0
   16.3503   -8.7252   14.8844 C   0  0  0  0  0  0  0  0  0  0  0  0
   17.1483   -9.8748   14.2483 C   0  0  0  0  0  0  0  0  0  0  0  0
   18.3984  -10.2393   15.0654 C   0  0  0  0  0  0  0  0  0  0  0  0
   18.1733  -10.2028   16.5853 C   0  0  0  0  0  0  0  0  0  0  0  0
   16.6913  -10.1650   16.9477 C   0  0  0  0  0  0  0  0  0  0  0  0
   16.0534   -9.0194   16.2946 N   0  0  0  0  0  0  0  0  0  0  0  0
   15.1236   -8.2014   17.0266 C   0  0  0  0  0  0  0  0  0  0  0  0
   14.4594   -7.3106   16.4324 O   0  0  0  0  0  0  0  0  0  0  0  0
   17.4996   -9.5753   12.8664 N   0  0  0  0  0  0  0  0  0  0  0  0
   18.4019   -9.2330   12.6714 H   0  0  0  0  0  0  0  0  0  0  0  0
   16.5854   -9.7590   11.7826 C   0  0  0  0  0  0  0  0  0  0  0  0
   15.2705  -10.0588   12.0074 N   0  0  0  0  0  0  0  0  0  0  0  0
   14.3906  -10.2186   10.9691 C   0  0  0  0  0  0  0  0  0  0  0  0
   14.8121  -10.0799    9.6767 N   0  0  0  0  0  0  0  0  0  0  0  0
   16.1157   -9.7828    9.4521 C   0  0  0  0  0  0  0  0  0  0  0  0
   17.0029   -9.6204   10.4648 C   0  0  0  0  0  0  0  0  0  0  0  0
   18.2296   -9.3282    9.9156 C   0  0  0  0  0  0  0  0  0  0  0  0
   17.9849   -9.3349    8.5382 C   0  0  0  0  0  0  0  0  0  0  0  0
   16.6870   -9.6133    8.2529 N   0  0  0  0  0  0  0  0  0  0  0  0
   16.2628   -9.6763    7.3668 H   0  0  0  0  0  0  0  0  0  0  0  0
   14.9327   -8.3732   18.5007 C   0  0  0  0  0  0  0  0  0  0  0  0
   16.0314   -7.7526   19.2315 N   0  0  0  0  0  0  0  0  0  0  0  0
   16.9318   -7.7932   18.8355 H   0  0  0  0  0  0  0  0  0  0  0  0
   15.8794   -7.0878   20.4896 C   0  0  0  0  0  0  0  0  0  0  0  0
   14.6158   -6.9117   21.0742 C   0  0  0  0  0  0  0  0  0  0  0  0
   14.4943   -6.2574   22.3031 C   0  0  0  0  0  0  0  0  0  0  0  0
   15.6336   -5.7790   22.9559 C   0  0  0  0  0  0  0  0  0  0  0  0
   16.8943   -5.9549   22.3793 C   0  0  0  0  0  0  0  0  0  0  0  0
   17.0161   -6.6081   21.1488 C   0  0  0  0  0  0  0  0  0  0  0  0
   18.3218   -5.3589   23.1984 Cl  0  0  0  0  0  0  0  0  0  0  0  0
   12.9159   -6.0347   23.0232 Cl  0  0  0  0  0  0  0  0  0  0  0  0
  2  1  1  0  0  0
  2  3  1  0  0  0
  3  4  1  0  0  0
  4  5  1  0  0  0
  5  6  1  0  0  0
  6  7  1  0  0  0
  7  8  1  0  0  0
  8  9  2  0  0  0
  8 22  1  0  0  0
 22 23  1  0  0  0
 23 25  1  0  0  0
 25 26  2  0  0  0
 26 27  1  0  0  0
 27 28  2  0  0  0
 28 29  1  0  0  0
 29 30  2  0  0  0
 29 31  1  0  0  0
 27 32  1  0  0  0
  3 10  1  0  0  0
 10 12  1  0  0  0
 12 13  2  0  0  0
 13 14  1  0  0  0
 14 15  2  0  0  0
 15 16  1  0  0  0
 16 17  2  0  0  0
 17 18  1  0  0  0
 18 19  2  0  0  0
 19 20  1  0  0  0
  7  2  1  0  0  0
 30 25  1  0  0  0
 17 12  1  0  0  0
 20 16  1  0  0  0
 23 24  1  0  0  0
 10 11  1  0  0  0
 20 21  1  0  0  0
M  END
>  <minimizedAffinity>
-6.02590

>  <minimizedRMSD>
2.60520

$$$$
CHEMBL5290728


 31 36  0  0  0  0  0  0  0  0999 V2000
   16.4432   -9.5725   15.3723 C   0  0  0  0  0  0  0  0  0  0  0  0
   16.8031   -8.8778   14.0505 C   0  0  0  0  0  0  0  0  0  0  0  0
   17.2409   -9.8414   13.0381 N   0  0  0  0  0  0  0  0  0  0  0  0
   18.2457  -10.8607   13.3644 C   0  0  0  0  0  0  0  0  0  0  0  0
   18.5557  -10.9018   14.8591 C   0  0  0  0  0  0  0  0  0  0  0  0
   17.2494  -10.8681   15.6380 C   0  0  0  0  0  0  0  0  0  0  0  0
   17.4782  -11.1767   17.1092 C   0  0  0  0  0  0  0  0  0  0  0  0
   16.7484   -9.7437   11.6899 C   0  0  0  0  0  0  0  0  0  0  0  0
   17.5558   -9.3502   10.6632 N   0  0  0  0  0  0  0  0  0  0  0  0
   17.1346   -9.2467    9.3978 C   0  0  0  0  0  0  0  0  0  0  0  0
   15.8522   -9.5234    9.0439 N   0  0  0  0  0  0  0  0  0  0  0  0
   15.0036   -9.9187   10.0344 C   0  0  0  0  0  0  0  0  0  0  0  0
   15.4146  -10.0406   11.3456 C   0  0  0  0  0  0  0  0  0  0  0  0
   14.2946  -10.4365   12.2289 C   0  0  0  0  0  0  0  0  0  0  0  0
   13.1018  -10.5932   11.2725 C   0  0  0  0  0  0  0  0  0  0  0  0
   13.5743  -10.2364    9.8552 C   0  0  0  0  0  0  0  0  0  0  0  0
   18.1131   -8.8663    8.5618 N   0  0  0  0  0  0  0  0  0  0  0  0
   19.1688   -8.7495    9.4131 C   0  0  0  0  0  0  0  0  0  0  0  0
   18.8378   -9.0466   10.6955 N   0  0  0  0  0  0  0  0  0  0  0  0
   16.4675   -8.6187   16.4856 N   0  0  0  0  0  0  0  0  0  0  0  0
   17.7866   -8.2396   16.9688 C   0  0  0  0  0  0  0  0  0  0  0  0
   15.2569   -8.1202   17.1048 C   0  0  0  0  0  0  0  0  0  0  0  0
   15.1757   -7.7839   18.4643 C   0  0  0  0  0  0  0  0  0  0  0  0
   14.0082   -7.3137   18.9806 C   0  0  0  0  0  0  0  0  0  0  0  0
   14.1070   -7.0337   20.2865 N   0  0  0  0  0  0  0  0  0  0  0  0
   15.3900   -7.3397   20.5992 C   0  0  0  0  0  0  0  0  0  0  0  0
   16.0958   -7.8105   19.4898 C   0  0  0  0  0  0  0  0  0  0  0  0
   12.8974   -7.1515   18.2237 N   0  0  0  0  0  0  0  0  0  0  0  0
   12.9613   -7.4723   16.8998 C   0  0  0  0  0  0  0  0  0  0  0  0
   14.1245   -7.9464   16.3569 N   0  0  0  0  0  0  0  0  0  0  0  0
   13.4066   -6.6847   20.8839 H   0  0  0  0  0  0  0  0  0  0  0  0
 22 23  1  0  0  0
 23 24  2  0  0  0
 24 25  1  0  0  0
 25 26  1  0  0  0
 26 27  2  0  0  0
 24 28  1  0  0  0
 28 29  2  0  0  0
 29 30  1  0  0  0
 22 20  1  0  0  0
  1 20  1  0  0  0
  1  2  1  0  0  0
  2  3  1  0  0  0
  3  8  1  0  0  0
  8  9  1  0  0  0
  9 10  1  0  0  0
 10 11  1  0  0  0
 11 12  2  0  0  0
 12 13  1  0  0  0
 13 14  1  0  0  0
 14 15  1  0  0  0
 15 16  1  0  0  0
 10 17  2  0  0  0
 17 18  1  0  0  0
 18 19  2  0  0  0
  3  4  1  0  0  0
  4  5  1  0  0  0
  5  6  1  0  0  0
  6  7  1  0  0  0
 20 21  1  0  0  0
 30 22  2  0  0  0
  6  1  1  0  0  0
 27 23  1  0  0  0
 13  8  2  0  0  0
 19  9  1  0  0  0
 16 12  1  0  0  0
 25 31  1  0  0  0
M  END
>  <minimizedAffinity>
-1.92008

>  <minimizedRMSD>
2.60694

$$$$
CHEMBL5311654 ZINC000084083331 ZINC84083331


 31 34  0  0  0  0  0  0  0  0999 V2000
   17.0005   -9.7833   14.9492 C   0  0  0  0  0  0  0  0  0  0  0  0
   16.2278   -8.7992   15.7813 C   0  0  0  0  0  0  0  0  0  0  0  0
   15.8277   -9.0205   17.0491 N   0  0  0  0  0  0  0  0  0  0  0  0
   15.2041   -7.8582   17.3314 C   0  0  0  0  0  0  0  0  0  0  0  0
   15.2279   -6.9906   16.3012 N   0  0  0  0  0  0  0  0  0  0  0  0
   15.8718   -7.6113   15.3608 O   0  0  0  0  0  0  0  0  0  0  0  0
   14.5711   -7.5703   18.6210 C   0  0  0  0  0  0  0  0  0  0  0  0
   13.5339   -6.7263   18.7730 N   0  0  0  0  0  0  0  0  0  0  0  0
   13.3034   -6.7847   20.1005 C   0  0  0  0  0  0  0  0  0  0  0  0
   14.1624   -7.6236   20.7117 N   0  0  0  0  0  0  0  0  0  0  0  0
   14.9608   -8.1189   19.7829 N   0  0  0  0  0  0  0  0  0  0  0  0
   14.1901   -7.8298   21.6740 H   0  0  0  0  0  0  0  0  0  0  0  0
   17.1886  -10.3525   12.4787 C   0  0  0  0  0  0  0  0  0  0  0  0
   17.6107  -11.5072   12.7647 O   0  0  0  0  0  0  0  0  0  0  0  0
   16.8989   -9.4325   13.5355 N   0  0  0  0  0  0  0  0  0  0  0  0
   16.6175   -8.5194   13.2981 H   0  0  0  0  0  0  0  0  0  0  0  0
   14.3375  -10.4426    8.4182 C   0  0  0  0  0  0  0  0  0  0  0  0
   15.6028  -10.0275    9.0774 C   0  0  0  0  0  0  0  0  0  0  0  0
   15.8281  -10.3510   10.4141 C   0  0  0  0  0  0  0  0  0  0  0  0
   17.0174   -9.9686   11.0511 C   0  0  0  0  0  0  0  0  0  0  0  0
   17.9785   -9.2411   10.3023 C   0  0  0  0  0  0  0  0  0  0  0  0
   19.1920   -8.8010   10.8552 C   0  0  0  0  0  0  0  0  0  0  0  0
   20.1117   -8.0846   10.0859 C   0  0  0  0  0  0  0  0  0  0  0  0
   19.8306   -7.7951    8.7496 C   0  0  0  0  0  0  0  0  0  0  0  0
   18.6285   -8.2196    8.1807 C   0  0  0  0  0  0  0  0  0  0  0  0
   17.7028   -8.9365    8.9446 C   0  0  0  0  0  0  0  0  0  0  0  0
   16.5356   -9.3349    8.3768 N   0  0  0  0  0  0  0  0  0  0  0  0
   18.4745   -9.9293   15.3799 C   0  0  0  0  0  0  0  0  0  0  0  0
   18.9651   -8.7036   16.1357 C   0  0  0  0  0  0  0  0  0  0  0  0
   18.6521  -11.1545   16.2604 C   0  0  0  0  0  0  0  0  0  0  0  0
   19.3442  -10.1157   14.1502 C   0  0  0  0  0  0  0  0  0  0  0  0
 17 18  1  0  0  0
 18 19  2  0  0  0
 19 20  1  0  0  0
 20 21  2  0  0  0
 20 13  1  0  0  0
 21 22  1  0  0  0
 22 23  2  0  0  0
 23 24  1  0  0  0
 24 25  2  0  0  0
 25 26  1  0  0  0
 26 27  2  0  0  0
 26 21  1  0  0  0
 27 18  1  0  0  0
 13 14  2  0  0  0
 13 15  1  0  0  0
  1 15  1  0  0  0
  1  2  1  0  0  0
  1 28  1  0  0  0
  2  3  2  0  0  0
  3  4  1  0  0  0
  4  5  2  0  0  0
  4  7  1  0  0  0
  5  6  1  0  0  0
  6  2  1  0  0  0
  7  8  1  0  0  0
  8  9  2  0  0  0
  9 10  1  0  0  0
 10 11  1  0  0  0
 11  7  2  0  0  0
 28 29  1  0  0  0
 28 30  1  0  0  0
 28 31  1  0  0  0
 15 16  1  0  0  0
 10 12  1  0  0  0
M  END
>  <minimizedAffinity>
-3.83125

>  <minimizedRMSD>
2.60971

$$$$
CHEMBL4072049 PubChem-121382999


 28 30  0  0  0  0  0  0  0  0999 V2000
   17.5222  -10.3762   12.7940 C   0  0  0  0  0  0  0  0  0  0  0  0
   17.7045  -11.5643   13.1736 O   0  0  0  0  0  0  0  0  0  0  0  0
   17.7475   -9.2892   13.6962 N   0  0  0  0  0  0  0  0  0  0  0  0
   17.6476   -8.3695   13.3593 H   0  0  0  0  0  0  0  0  0  0  0  0
   19.1384   -7.3886    7.1174 C   0  0  0  0  0  0  0  0  0  0  0  0
   18.6235   -8.1016    8.2754 N   0  0  0  0  0  0  0  0  0  0  0  0
   17.4196   -8.7487    8.2280 C   0  0  0  0  0  0  0  0  0  0  0  0
   16.7149   -8.7498    7.1810 O   0  0  0  0  0  0  0  0  0  0  0  0
   17.0044   -9.3905    9.3421 N   0  0  0  0  0  0  0  0  0  0  0  0
   15.8928  -10.1017    9.6114 C   0  0  0  0  0  0  0  0  0  0  0  0
   15.9145  -10.5619   10.8908 N   0  0  0  0  0  0  0  0  0  0  0  0
   17.0817  -10.1145   11.4170 C   0  0  0  0  0  0  0  0  0  0  0  0
   17.7368   -9.3958   10.4480 C   0  0  0  0  0  0  0  0  0  0  0  0
   18.9265   -8.7574   10.4998 N   0  0  0  0  0  0  0  0  0  0  0  0
   19.3494   -8.1180    9.4033 N   0  0  0  0  0  0  0  0  0  0  0  0
   18.1184   -9.4832   15.0914 C   0  0  0  0  0  0  0  0  0  0  0  0
   17.0461   -8.9671   15.9899 C   0  0  0  0  0  0  0  0  0  0  0  0
   16.0095   -8.1849   15.4686 C   0  0  0  0  0  0  0  0  0  0  0  0
   14.9964   -7.7151   16.3095 C   0  0  0  0  0  0  0  0  0  0  0  0
   15.0165   -8.0258   17.6738 C   0  0  0  0  0  0  0  0  0  0  0  0
   16.0499   -8.8138   18.1928 C   0  0  0  0  0  0  0  0  0  0  0  0
   17.0631   -9.2837   17.3522 C   0  0  0  0  0  0  0  0  0  0  0  0
   13.7389   -7.4463   18.7265 S   0  0  0  0  0  0  0  0  0  0  0  0
   13.5510   -5.9685   18.5282 O   0  0  0  0  0  0  0  0  0  0  0  0
   12.4584   -8.1633   18.4057 O   0  0  0  0  0  0  0  0  0  0  0  0
   14.1647   -7.7374   20.3756 N   0  0  0  0  0  0  0  0  0  0  0  0
   15.0342   -7.2505   20.5933 H   0  0  0  0  0  0  0  0  0  0  0  0
   14.2899   -8.7389   20.5227 H   0  0  0  0  0  0  0  0  0  0  0  0
  5  6  1  0  0  0
  6  7  1  0  0  0
  7  8  2  0  0  0
  7  9  1  0  0  0
  9 10  1  0  0  0
 10 11  2  0  0  0
 11 12  1  0  0  0
 12 13  2  0  0  0
 13 14  1  0  0  0
 14 15  2  0  0  0
 12  1  1  0  0  0
  1  2  2  0  0  0
  1  3  1  0  0  0
  3 16  1  0  0  0
 16 17  1  0  0  0
 17 18  2  0  0  0
 18 19  1  0  0  0
 19 20  2  0  0  0
 20 21  1  0  0  0
 21 22  2  0  0  0
 20 23  1  0  0  0
 23 24  2  0  0  0
 23 25  2  0  0  0
 23 26  1  0  0  0
 15  6  1  0  0  0
 13  9  1  0  0  0
 22 17  1  0  0  0
  3  4  1  0  0  0
 26 27  1  0  0  0
 26 28  1  0  0  0
M  END
>  <minimizedAffinity>
-5.81004

>  <minimizedRMSD>
2.61198

$$$$
CHEMBL3582387 PubChem-122179522


 31 34  0  0  0  0  0  0  0  0999 V2000
   17.1315  -10.1092   15.9566 C   0  0  0  0  0  0  0  0  0  0  0  0
   17.8088  -11.2668   16.3525 C   0  0  0  0  0  0  0  0  0  0  0  0
   18.4921  -12.0501   15.4224 C   0  0  0  0  0  0  0  0  0  0  0  0
   18.5084  -11.6842   14.0771 C   0  0  0  0  0  0  0  0  0  0  0  0
   19.1771  -12.4594   13.1865 F   0  0  0  0  0  0  0  0  0  0  0  0
   17.8435  -10.5230   13.6592 C   0  0  0  0  0  0  0  0  0  0  0  0
   17.1581   -9.7290   14.5951 C   0  0  0  0  0  0  0  0  0  0  0  0
   16.5538   -8.5937   14.1668 F   0  0  0  0  0  0  0  0  0  0  0  0
   16.4457   -9.3661   16.9757 N   0  0  0  0  0  0  0  0  0  0  0  0
   16.6870   -9.5768   17.9066 H   0  0  0  0  0  0  0  0  0  0  0  0
   14.1217   -8.6848   15.9088 O   0  0  0  0  0  0  0  0  0  0  0  0
   15.2399   -8.1389   16.7523 S   0  0  0  0  0  0  0  0  0  0  0  0
   15.8615   -6.9709   16.0407 O   0  0  0  0  0  0  0  0  0  0  0  0
   14.6347   -7.5892   18.3055 C   0  0  0  0  0  0  0  0  0  0  0  0
   13.3883   -6.9654   18.4001 C   0  0  0  0  0  0  0  0  0  0  0  0
   12.9175   -6.5376   19.6426 C   0  0  0  0  0  0  0  0  0  0  0  0
   13.7066   -6.7405   20.7773 C   0  0  0  0  0  0  0  0  0  0  0  0
   14.9190   -7.3476   20.6659 N   0  0  0  0  0  0  0  0  0  0  0  0
   15.3949   -7.7714   19.4640 C   0  0  0  0  0  0  0  0  0  0  0  0
   17.8669  -10.1426   12.2694 C   0  0  0  0  0  0  0  0  0  0  0  0
   17.8843   -9.8235   11.1069 C   0  0  0  0  0  0  0  0  0  0  0  0
   17.9042   -9.4431    9.7235 C   0  0  0  0  0  0  0  0  0  0  0  0
   16.9641   -9.9982    8.8231 C   0  0  0  0  0  0  0  0  0  0  0  0
   16.9723   -9.6432    7.5019 N   0  0  0  0  0  0  0  0  0  0  0  0
   17.8990   -8.7498    7.0763 C   0  0  0  0  0  0  0  0  0  0  0  0
   18.0549   -8.2894    5.8294 N   0  0  0  0  0  0  0  0  0  0  0  0
   19.0774   -7.4379    5.8694 N   0  0  0  0  0  0  0  0  0  0  0  0
   19.5736   -7.3525    7.1321 C   0  0  0  0  0  0  0  0  0  0  0  0
   18.8162   -8.1963    7.9100 C   0  0  0  0  0  0  0  0  0  0  0  0
   18.8580   -8.5170    9.2612 C   0  0  0  0  0  0  0  0  0  0  0  0
   17.5198   -8.5323    5.0395 H   0  0  0  0  0  0  0  0  0  0  0  0
 11 12  2  0  0  0
 12 13  2  0  0  0
 12  9  1  0  0  0
  9  1  1  0  0  0
  1  2  2  0  0  0
  2  3  1  0  0  0
  3  4  2  0  0  0
  4  5  1  0  0  0
  4  6  1  0  0  0
  6 20  1  0  0  0
 20 21  3  0  0  0
 21 22  1  0  0  0
 22 23  2  0  0  0
 23 24  1  0  0  0
 24 25  2  0  0  0
 25 26  1  0  0  0
 26 27  1  0  0  0
 27 28  2  0  0  0
 28 29  1  0  0  0
 29 30  2  0  0  0
  6  7  2  0  0  0
  7  8  1  0  0  0
 12 14  1  0  0  0
 14 15  2  0  0  0
 15 16  1  0  0  0
 16 17  2  0  0  0
 17 18  1  0  0  0
 18 19  2  0  0  0
  7  1  1  0  0  0
 19 14  1  0  0  0
 30 22  1  0  0  0
 29 25  1  0  0  0
  9 10  1  0  0  0
 26 31  1  0  0  0
M  END
>  <minimizedAffinity>
-8.54025

>  <minimizedRMSD>
2.61281

$$$$
CHEMBL5087978 PubChem-156027212


 32 36  0  0  0  0  0  0  0  0999 V2000
   15.8481   -9.9593   12.4650 O   0  0  0  0  0  0  0  0  0  0  0  0
   17.0709   -9.9716   12.7717 C   0  0  0  0  0  0  0  0  0  0  0  0
   17.4775   -9.8786   14.1514 N   0  0  0  0  0  0  0  0  0  0  0  0
   16.6418   -9.2497   15.1469 C   0  0  0  0  0  0  0  0  0  0  0  0
   16.2306   -7.9148   15.0017 C   0  0  0  0  0  0  0  0  0  0  0  0
   15.4439   -7.3022   15.9801 C   0  0  0  0  0  0  0  0  0  0  0  0
   15.0574   -8.0113   17.1252 C   0  0  0  0  0  0  0  0  0  0  0  0
   15.4706   -9.3412   17.2780 C   0  0  0  0  0  0  0  0  0  0  0  0
   16.2574   -9.9537   16.2996 C   0  0  0  0  0  0  0  0  0  0  0  0
   14.2265   -7.3668   18.1573 C   0  0  0  0  0  0  0  0  0  0  0  0
   13.1607   -6.7756   17.8313 O   0  0  0  0  0  0  0  0  0  0  0  0
   14.6271   -7.4109   19.5296 N   0  0  0  0  0  0  0  0  0  0  0  0
   15.4620   -7.8753   19.7672 H   0  0  0  0  0  0  0  0  0  0  0  0
   13.8420   -6.7927   20.5849 C   0  0  0  0  0  0  0  0  0  0  0  0
   13.1109   -7.8693   21.3602 C   0  0  0  0  0  0  0  0  0  0  0  0
   14.3694   -7.2494   21.9287 C   0  0  0  0  0  0  0  0  0  0  0  0
   18.0877  -10.0962   11.6812 C   0  0  0  0  0  0  0  0  0  0  0  0
   17.4914   -9.7763   10.3909 N   0  0  0  0  0  0  0  0  0  0  0  0
   16.3435  -10.2780    9.9477 N   0  0  0  0  0  0  0  0  0  0  0  0
   16.0508   -9.8014    8.7376 N   0  0  0  0  0  0  0  0  0  0  0  0
   17.0601   -8.9700    8.4190 C   0  0  0  0  0  0  0  0  0  0  0  0
   17.2324   -8.2090    7.2668 C   0  0  0  0  0  0  0  0  0  0  0  0
   18.3882   -7.4053    7.1980 C   0  0  0  0  0  0  0  0  0  0  0  0
   19.3183   -7.3846    8.2650 C   0  0  0  0  0  0  0  0  0  0  0  0
   19.1076   -8.1683    9.4161 C   0  0  0  0  0  0  0  0  0  0  0  0
   17.9567   -8.9519    9.4416 C   0  0  0  0  0  0  0  0  0  0  0  0
   18.7673  -10.4441   14.5508 C   0  0  0  0  0  0  0  0  0  0  0  0
   19.5548   -9.4589   15.3500 C   0  0  0  0  0  0  0  0  0  0  0  0
   20.8377   -9.0449   14.9664 C   0  0  0  0  0  0  0  0  0  0  0  0
   21.4105   -8.1194   15.8293 C   0  0  0  0  0  0  0  0  0  0  0  0
   20.2848   -7.8531   17.0472 S   0  0  0  0  0  0  0  0  0  0  0  0
   19.0714   -8.8845   16.5189 C   0  0  0  0  0  0  0  0  0  0  0  0
  1  2  2  0  0  0
  2 17  1  0  0  0
 17 18  1  0  0  0
 18 19  1  0  0  0
 19 20  2  0  0  0
 20 21  1  0  0  0
 21 22  2  0  0  0
 22 23  1  0  0  0
 23 24  2  0  0  0
 24 25  1  0  0  0
 25 26  2  0  0  0
  2  3  1  0  0  0
  3 27  1  0  0  0
 27 28  1  0  0  0
 28 29  1  0  0  0
 29 30  2  0  0  0
 30 31  1  0  0  0
 31 32  1  0  0  0
  3  4  1  0  0  0
  4  5  2  0  0  0
  5  6  1  0  0  0
  6  7  2  0  0  0
  7  8  1  0  0  0
  8  9  2  0  0  0
  7 10  1  0  0  0
 10 11  2  0  0  0
 10 12  1  0  0  0
 12 14  1  0  0  0
 14 15  1  0  0  0
 15 16  1  0  0  0
 26 18  1  0  0  0
 32 28  2  0  0  0
  9  4  1  0  0  0
 16 14  1  0  0  0
 26 21  1  0  0  0
 12 13  1  0  0  0
M  END
>  <minimizedAffinity>
-4.21592

>  <minimizedRMSD>
2.61464

$$$$
CHEMBL284013


 39 41  0  0  0  0  0  0  0  0999 V2000
   17.6001   -9.2303   15.2757 C   0  0  0  0  0  0  0  0  0  0  0  0
   17.4583   -9.8084   16.5424 C   0  0  0  0  0  0  0  0  0  0  0  0
   16.4874   -9.3271   17.4264 C   0  0  0  0  0  0  0  0  0  0  0  0
   15.6497   -8.2663   17.0509 C   0  0  0  0  0  0  0  0  0  0  0  0
   15.8026   -7.6876   15.7825 C   0  0  0  0  0  0  0  0  0  0  0  0
   16.7767   -8.1643   14.9010 C   0  0  0  0  0  0  0  0  0  0  0  0
   14.6172   -7.7691   17.9757 C   0  0  0  0  0  0  0  0  0  0  0  0
   13.5506   -7.2712   17.5206 O   0  0  0  0  0  0  0  0  0  0  0  0
   14.8190   -7.8577   19.3905 N   0  0  0  0  0  0  0  0  0  0  0  0
   15.6607   -8.2463   19.7219 H   0  0  0  0  0  0  0  0  0  0  0  0
   13.8337   -7.3982   20.3628 C   0  0  0  0  0  0  0  0  0  0  0  0
   13.0843   -6.2030   19.8575 C   0  0  0  0  0  0  0  0  0  0  0  0
   13.6124   -5.0593   19.8601 O   0  0  0  0  0  0  0  0  0  0  0  0
   11.7994   -6.3666   19.3603 O   0  0  0  0  0  0  0  0  0  0  0  0
   11.4030   -7.2156   19.3566 H   0  0  0  0  0  0  0  0  0  0  0  0
   14.4872   -7.1399   21.7197 C   0  0  0  0  0  0  0  0  0  0  0  0
   15.9718   -6.8202   21.5998 C   0  0  0  0  0  0  0  0  0  0  0  0
   16.5215   -6.4040   22.9197 C   0  0  0  0  0  0  0  0  0  0  0  0
   16.4868   -7.1928   23.8995 O   0  0  0  0  0  0  0  0  0  0  0  0
   17.0816   -5.1421   23.0674 O   0  0  0  0  0  0  0  0  0  0  0  0
   17.1083   -4.5532   22.3390 H   0  0  0  0  0  0  0  0  0  0  0  0
   18.6343   -9.7321   14.3230 C   0  0  0  0  0  0  0  0  0  0  0  0
   18.0218  -10.6308   13.2501 C   0  0  0  0  0  0  0  0  0  0  0  0
   16.7367  -10.0386   12.6764 C   0  0  0  0  0  0  0  0  0  0  0  0
   18.2333   -8.3051    5.2244 N   0  0  0  0  0  0  0  0  0  0  0  0
   18.1407   -8.5040    6.6295 C   0  0  0  0  0  0  0  0  0  0  0  0
   19.0849   -7.9716    7.4528 N   0  0  0  0  0  0  0  0  0  0  0  0
   19.0237   -8.1469    8.7995 C   0  0  0  0  0  0  0  0  0  0  0  0
   20.0044   -7.5932    9.6146 O   0  0  0  0  0  0  0  0  0  0  0  0
   17.9723   -8.8824    9.3501 C   0  0  0  0  0  0  0  0  0  0  0  0
   17.8645   -9.0857   10.6892 N   0  0  0  0  0  0  0  0  0  0  0  0
   16.8409   -9.8198   11.2034 C   0  0  0  0  0  0  0  0  0  0  0  0
   15.8809  -10.3634   10.3425 C   0  0  0  0  0  0  0  0  0  0  0  0
   15.9831  -10.1535    9.0021 N   0  0  0  0  0  0  0  0  0  0  0  0
   17.0084   -9.4266    8.4857 C   0  0  0  0  0  0  0  0  0  0  0  0
   17.1092   -9.2252    7.1466 N   0  0  0  0  0  0  0  0  0  0  0  0
   18.9791   -7.7835    4.8491 H   0  0  0  0  0  0  0  0  0  0  0  0
   17.5514   -8.6891    4.6269 H   0  0  0  0  0  0  0  0  0  0  0  0
   20.7060   -7.1013    9.2354 H   0  0  0  0  0  0  0  0  0  0  0  0
 25 26  1  0  0  0
 26 27  2  0  0  0
 27 28  1  0  0  0
 28 29  1  0  0  0
 28 30  2  0  0  0
 30 31  1  0  0  0
 31 32  2  0  0  0
 32 24  1  0  0  0
 32 33  1  0  0  0
 24 23  1  0  0  0
 23 22  1  0  0  0
 22  1  1  0  0  0
  1  2  2  0  0  0
  2  3  1  0  0  0
  3  4  2  0  0  0
  4  7  1  0  0  0
  4  5  1  0  0  0
  7  8  2  0  0  0
  7  9  1  0  0  0
 11  9  1  0  0  0
 11 16  1  0  0  0
 11 12  1  0  0  0
 16 17  1  0  0  0
 17 18  1  0  0  0
 18 19  2  0  0  0
 18 20  1  0  0  0
 12 13  2  0  0  0
 12 14  1  0  0  0
  5  6  2  0  0  0
  6  1  1  0  0  0
 33 34  2  0  0  0
 34 35  1  0  0  0
 35 36  2  0  0  0
 35 30  1  0  0  0
 36 26  1  0  0  0
 25 37  1  0  0  0
 25 38  1  0  0  0
 29 39  1  0  0  0
  9 10  1  0  0  0
 20 21  1  0  0  0
 14 15  1  0  0  0
M  END
>  <minimizedAffinity>
-8.54026

>  <minimizedRMSD>
2.61521

$$$$
CHEMBL4173465 PubChem-145951848


 32 36  0  0  0  0  0  0  0  0999 V2000
   18.3316  -10.0736   13.0213 C   0  0  0  0  0  0  0  0  0  0  0  0
   17.6093   -9.0766   13.7055 C   0  0  0  0  0  0  0  0  0  0  0  0
   17.3359   -9.2816   15.0548 C   0  0  0  0  0  0  0  0  0  0  0  0
   17.7538  -10.4030   15.7125 C   0  0  0  0  0  0  0  0  0  0  0  0
   18.4811  -11.4092   15.0813 C   0  0  0  0  0  0  0  0  0  0  0  0
   18.7719  -11.2304   13.7172 C   0  0  0  0  0  0  0  0  0  0  0  0
   17.3536  -10.3289   16.9877 N   0  0  0  0  0  0  0  0  0  0  0  0
   16.6965   -9.1479   17.0635 C   0  0  0  0  0  0  0  0  0  0  0  0
   16.6615   -8.4646   15.8876 N   0  0  0  0  0  0  0  0  0  0  0  0
   17.5756  -11.2947   18.0521 C   0  0  0  0  0  0  0  0  0  0  0  0
   16.0982   -8.6667   18.2676 N   0  0  0  0  0  0  0  0  0  0  0  0
   16.5103   -8.8945   19.1322 H   0  0  0  0  0  0  0  0  0  0  0  0
   14.8965   -7.8492   18.2495 C   0  0  0  0  0  0  0  0  0  0  0  0
   14.5910   -7.3745   19.6259 C   0  0  0  0  0  0  0  0  0  0  0  0
   15.6306   -7.1313   20.5291 C   0  0  0  0  0  0  0  0  0  0  0  0
   15.3432   -6.7066   21.8297 C   0  0  0  0  0  0  0  0  0  0  0  0
   14.0168   -6.5270   22.2378 C   0  0  0  0  0  0  0  0  0  0  0  0
   12.9756   -6.7801   21.3292 C   0  0  0  0  0  0  0  0  0  0  0  0
   13.2628   -7.2048   20.0288 C   0  0  0  0  0  0  0  0  0  0  0  0
   13.7628   -6.1004   23.5441 O   0  0  0  0  0  0  0  0  0  0  0  0
   12.8214   -5.0805   23.8492 C   0  0  0  0  0  0  0  0  0  0  0  0
   18.6350   -9.8721   11.6687 O   0  0  0  0  0  0  0  0  0  0  0  0
   18.1027   -9.5362    9.3608 N   0  0  0  0  0  0  0  0  0  0  0  0
   17.2143   -9.4565    8.3185 C   0  0  0  0  0  0  0  0  0  0  0  0
   15.8786   -9.6566    8.5269 N   0  0  0  0  0  0  0  0  0  0  0  0
   15.4699   -9.9364    9.7876 C   0  0  0  0  0  0  0  0  0  0  0  0
   16.3267  -10.0209   10.8348 C   0  0  0  0  0  0  0  0  0  0  0  0
   17.6938   -9.8277   10.6317 C   0  0  0  0  0  0  0  0  0  0  0  0
   15.5409  -10.2431   11.9542 C   0  0  0  0  0  0  0  0  0  0  0  0
   14.2484  -10.2977   11.5324 N   0  0  0  0  0  0  0  0  0  0  0  0
   14.2169  -10.1107   10.2184 N   0  0  0  0  0  0  0  0  0  0  0  0
   13.0035  -10.0777    9.4212 C   0  0  0  0  0  0  0  0  0  0  0  0
 23 24  2  0  0  0
 24 25  1  0  0  0
 25 26  2  0  0  0
 26 27  1  0  0  0
 27 28  2  0  0  0
 28 22  1  0  0  0
 22  1  1  0  0  0
  1  2  2  0  0  0
  2  3  1  0  0  0
  3  4  2  0  0  0
  4  5  1  0  0  0
  5  6  2  0  0  0
  4  7  1  0  0  0
  7  8  1  0  0  0
  8  9  2  0  0  0
  8 11  1  0  0  0
 11 13  1  0  0  0
 13 14  1  0  0  0
 14 15  2  0  0  0
 15 16  1  0  0  0
 16 17  2  0  0  0
 17 18  1  0  0  0
 18 19  2  0  0  0
 17 20  1  0  0  0
 20 21  1  0  0  0
  7 10  1  0  0  0
 27 29  1  0  0  0
 29 30  2  0  0  0
 30 31  1  0  0  0
 31 32  1  0  0  0
 28 23  1  0  0  0
  6  1  1  0  0  0
 19 14  1  0  0  0
 31 26  1  0  0  0
  9  3  1  0  0  0
 11 12  1  0  0  0
M  END
>  <minimizedAffinity>
-4.32988

>  <minimizedRMSD>
2.61810

$$$$
CHEMBL4782988 PubChem-162665208


 33 35  0  0  0  0  0  0  0  0999 V2000
   18.6695   -8.4004    7.4691 C   0  0  0  0  0  0  0  0  0  0  0  0
   19.3666   -7.9691    8.6299 C   0  0  0  0  0  0  0  0  0  0  0  0
   18.9358   -8.3341    9.9185 C   0  0  0  0  0  0  0  0  0  0  0  0
   17.8014   -9.1331   10.0013 C   0  0  0  0  0  0  0  0  0  0  0  0
   17.1190   -9.5567    8.8990 C   0  0  0  0  0  0  0  0  0  0  0  0
   17.5195   -9.2129    7.6119 C   0  0  0  0  0  0  0  0  0  0  0  0
   16.0646  -10.3115    9.2598 N   0  0  0  0  0  0  0  0  0  0  0  0
   16.0608  -10.3787   10.5893 N   0  0  0  0  0  0  0  0  0  0  0  0
   17.1122   -9.6665   11.0581 C   0  0  0  0  0  0  0  0  0  0  0  0
   15.4160  -10.7355    8.6526 H   0  0  0  0  0  0  0  0  0  0  0  0
   19.1424   -8.0031    6.1215 C   0  0  0  0  0  0  0  0  0  0  0  0
   18.5650   -8.5600    4.9682 C   0  0  0  0  0  0  0  0  0  0  0  0
   19.0054   -8.1910    3.6932 C   0  0  0  0  0  0  0  0  0  0  0  0
   20.0392   -7.2504    3.5672 C   0  0  0  0  0  0  0  0  0  0  0  0
   20.6218   -6.6891    4.7052 C   0  0  0  0  0  0  0  0  0  0  0  0
   20.1756   -7.0635    5.9749 C   0  0  0  0  0  0  0  0  0  0  0  0
   18.4015   -8.7715    2.5746 O   0  0  0  0  0  0  0  0  0  0  0  0
   19.1437   -9.2315    1.4534 C   0  0  0  0  0  0  0  0  0  0  0  0
   17.4445   -9.4989   12.4399 N   0  0  0  0  0  0  0  0  0  0  0  0
   18.0098  -10.5162   13.2723 C   0  0  0  0  0  0  0  0  0  0  0  0
   18.2522  -11.6663   12.8187 O   0  0  0  0  0  0  0  0  0  0  0  0
   17.2716   -8.6196   12.8475 H   0  0  0  0  0  0  0  0  0  0  0  0
   18.2858  -10.2186   14.7065 C   0  0  0  0  0  0  0  0  0  0  0  0
   17.0823  -10.5638   15.5740 C   0  0  0  0  0  0  0  0  0  0  0  0
   15.8654   -9.7235   15.2035 C   0  0  0  0  0  0  0  0  0  0  0  0
   15.8813   -8.3767   15.9163 C   0  0  0  0  0  0  0  0  0  0  0  0
   16.1200   -8.5458   17.4143 C   0  0  0  0  0  0  0  0  0  0  0  0
   15.1179   -7.8197   18.2615 C   0  0  0  0  0  0  0  0  0  0  0  0
   14.1704   -7.1702   17.7400 O   0  0  0  0  0  0  0  0  0  0  0  0
   15.2522   -7.8653   19.6796 N   0  0  0  0  0  0  0  0  0  0  0  0
   14.3717   -7.2229   20.4820 O   0  0  0  0  0  0  0  0  0  0  0  0
   15.9955   -8.3709   20.0810 H   0  0  0  0  0  0  0  0  0  0  0  0
   13.7049   -6.7756   19.9377 H   0  0  0  0  0  0  0  0  0  0  0  0
  1  2  2  0  0  0
  2  3  1  0  0  0
  3  4  2  0  0  0
  4  5  1  0  0  0
  5  6  2  0  0  0
  5  7  1  0  0  0
  7  8  1  0  0  0
  8  9  2  0  0  0
  9 19  1  0  0  0
 19 20  1  0  0  0
 20 21  2  0  0  0
 20 23  1  0  0  0
 23 24  1  0  0  0
 24 25  1  0  0  0
 25 26  1  0  0  0
 26 27  1  0  0  0
 27 28  1  0  0  0
 28 29  2  0  0  0
 28 30  1  0  0  0
 30 31  1  0  0  0
  1 11  1  0  0  0
 11 12  2  0  0  0
 12 13  1  0  0  0
 13 14  2  0  0  0
 14 15  1  0  0  0
 15 16  2  0  0  0
 13 17  1  0  0  0
 17 18  1  0  0  0
  6  1  1  0  0  0
 16 11  1  0  0  0
  9  4  1  0  0  0
  7 10  1  0  0  0
 19 22  1  0  0  0
 30 32  1  0  0  0
 31 33  1  0  0  0
M  END
>  <minimizedAffinity>
-9.68312

>  <minimizedRMSD>
2.62403

$$$$
CHEMBL3901174 PubChem-89462282


 38 42  0  0  0  0  0  0  0  0999 V2000
   19.2916   -9.8849   11.6677 C   0  0  0  0  0  0  0  0  0  0  0  0
   19.3319   -8.6250   10.8050 C   0  0  0  0  0  0  0  0  0  0  0  0
   18.8975   -8.9027    9.4291 N   0  0  0  0  0  0  0  0  0  0  0  0
   17.7619   -9.8411    9.3391 C   0  0  0  0  0  0  0  0  0  0  0  0
   16.9651   -9.9583   10.6428 C   0  0  0  0  0  0  0  0  0  0  0  0
   17.8591  -10.4253   11.8120 C   0  0  0  0  0  0  0  0  0  0  0  0
   17.2976   -9.9347   13.0814 N   0  0  0  0  0  0  0  0  0  0  0  0
   17.0041   -8.6414   13.3523 C   0  0  0  0  0  0  0  0  0  0  0  0
   16.5253   -8.5893   14.6483 C   0  0  0  0  0  0  0  0  0  0  0  0
   16.5620   -9.8927   15.1015 C   0  0  0  0  0  0  0  0  0  0  0  0
   17.0397  -10.6961   14.1363 N   0  0  0  0  0  0  0  0  0  0  0  0
   16.0811   -7.3845   15.3655 C   0  0  0  0  0  0  0  0  0  0  0  0
   16.3824   -6.2438   14.9256 O   0  0  0  0  0  0  0  0  0  0  0  0
   15.3101   -7.4920   16.5576 N   0  0  0  0  0  0  0  0  0  0  0  0
   15.0693   -8.3793   16.9097 H   0  0  0  0  0  0  0  0  0  0  0  0
   15.0179   -6.6791   17.0297 H   0  0  0  0  0  0  0  0  0  0  0  0
   16.1594  -10.3334   16.4049 N   0  0  0  0  0  0  0  0  0  0  0  0
   15.2192  -10.1816   16.6544 H   0  0  0  0  0  0  0  0  0  0  0  0
   16.9923  -10.9735   17.3805 C   0  0  0  0  0  0  0  0  0  0  0  0
   16.4146  -11.4171   18.5726 C   0  0  0  0  0  0  0  0  0  0  0  0
   17.2104  -12.0463   19.5328 C   0  0  0  0  0  0  0  0  0  0  0  0
   18.5393  -12.2259   19.3058 N   0  0  0  0  0  0  0  0  0  0  0  0
   19.1266  -11.8049   18.1537 C   0  0  0  0  0  0  0  0  0  0  0  0
   18.3635  -11.1718   17.1707 C   0  0  0  0  0  0  0  0  0  0  0  0
   16.6575  -12.4784   20.6913 F   0  0  0  0  0  0  0  0  0  0  0  0
   17.9686  -11.9605   11.7982 C   0  0  0  0  0  0  0  0  0  0  0  0
   18.4164  -12.5245   13.0824 C   0  0  0  0  0  0  0  0  0  0  0  0
   18.7696  -12.9675   14.0914 N   0  0  0  0  0  0  0  0  0  0  0  0
   18.4637   -7.6351    8.8621 C   0  0  0  0  0  0  0  0  0  0  0  0
   18.3206   -7.7554    7.3811 C   0  0  0  0  0  0  0  0  0  0  0  0
   19.2898   -7.5957    6.4203 C   0  0  0  0  0  0  0  0  0  0  0  0
   20.6437   -7.2927    6.5507 C   0  0  0  0  0  0  0  0  0  0  0  0
   21.3934   -7.1931    5.3675 C   0  0  0  0  0  0  0  0  0  0  0  0
   20.7826   -7.3941    4.1145 C   0  0  0  0  0  0  0  0  0  0  0  0
   19.4136   -7.6954    4.0534 C   0  0  0  0  0  0  0  0  0  0  0  0
   18.7269   -7.7823    5.2198 N   0  0  0  0  0  0  0  0  0  0  0  0
   17.4397   -8.0527    5.3525 N   0  0  0  0  0  0  0  0  0  0  0  0
   17.1541   -8.0424    6.6789 C   0  0  0  0  0  0  0  0  0  0  0  0
  1  2  1  0  0  0
  2  3  1  0  0  0
  3  4  1  0  0  0
  3 29  1  0  0  0
  4  5  1  0  0  0
  5  6  1  0  0  0
  6 26  1  0  0  0
  6  7  1  0  0  0
  6  1  1  0  0  0
 26 27  1  0  0  0
 27 28  3  0  0  0
  7  8  1  0  0  0
  8  9  2  0  0  0
  9 10  1  0  0  0
  9 12  1  0  0  0
 10 11  2  0  0  0
 10 17  1  0  0  0
 11  7  1  0  0  0
 17 19  1  0  0  0
 19 20  2  0  0  0
 20 21  1  0  0  0
 21 22  2  0  0  0
 21 25  1  0  0  0
 22 23  1  0  0  0
 23 24  2  0  0  0
 24 19  1  0  0  0
 12 13  2  0  0  0
 12 14  1  0  0  0
 29 30  1  0  0  0
 30 31  2  0  0  0
 31 32  1  0  0  0
 32 33  2  0  0  0
 33 34  1  0  0  0
 34 35  2  0  0  0
 35 36  1  0  0  0
 36 37  1  0  0  0
 36 31  1  0  0  0
 37 38  2  0  0  0
 38 30  1  0  0  0
 17 18  1  0  0  0
 14 15  1  0  0  0
 14 16  1  0  0  0
M  END
>  <minimizedAffinity>
9.83923

>  <minimizedRMSD>
2.62539

$$$$
CHEMBL3623656 PubChem-122192664


 39 43  0  0  0  0  0  0  0  0999 V2000
   18.8672  -11.7644   13.4601 N   0  0  0  0  0  0  0  0  0  0  0  0
   18.8418  -11.1752   14.6698 C   0  0  0  0  0  0  0  0  0  0  0  0
   18.3666  -12.1549   15.5174 C   0  0  0  0  0  0  0  0  0  0  0  0
   18.1437  -13.2866   14.8226 N   0  0  0  0  0  0  0  0  0  0  0  0
   18.4547  -13.0159   13.5655 N   0  0  0  0  0  0  0  0  0  0  0  0
   19.2831  -11.1461   12.2097 C   0  0  0  0  0  0  0  0  0  0  0  0
   18.6493   -9.7723   12.0614 C   0  0  0  0  0  0  0  0  0  0  0  0
   19.6784   -8.7724   11.5629 C   0  0  0  0  0  0  0  0  0  0  0  0
   19.4545   -8.4972   10.1538 N   0  0  0  0  0  0  0  0  0  0  0  0
   18.3903   -8.8243    9.4166 C   0  0  0  0  0  0  0  0  0  0  0  0
   18.5420   -8.3295    8.1705 C   0  0  0  0  0  0  0  0  0  0  0  0
   19.7073   -7.6617    8.0685 N   0  0  0  0  0  0  0  0  0  0  0  0
   20.2453   -7.7802    9.3167 C   0  0  0  0  0  0  0  0  0  0  0  0
   17.5510   -8.5307    7.2202 C   0  0  0  0  0  0  0  0  0  0  0  0
   16.4416   -9.2358    7.6014 N   0  0  0  0  0  0  0  0  0  0  0  0
   16.3094   -9.7264    8.8767 C   0  0  0  0  0  0  0  0  0  0  0  0
   17.2936   -9.5197    9.8033 N   0  0  0  0  0  0  0  0  0  0  0  0
   15.1405  -10.4514    9.2377 N   0  0  0  0  0  0  0  0  0  0  0  0
   14.4299  -10.6022    8.5732 H   0  0  0  0  0  0  0  0  0  0  0  0
   15.0419  -10.8027   10.1521 H   0  0  0  0  0  0  0  0  0  0  0  0
   17.6852   -8.0144    5.8953 N   0  0  0  0  0  0  0  0  0  0  0  0
   18.7929   -8.3873    5.0323 C   0  0  0  0  0  0  0  0  0  0  0  0
   17.0065   -7.3869    5.5565 H   0  0  0  0  0  0  0  0  0  0  0  0
   18.1922  -12.0269   16.9915 C   0  0  0  0  0  0  0  0  0  0  0  0
   17.3763  -10.8626   17.2991 N   0  0  0  0  0  0  0  0  0  0  0  0
   16.6602  -10.1139   16.4562 C   0  0  0  0  0  0  0  0  0  0  0  0
   16.1021   -9.0891   17.1344 C   0  0  0  0  0  0  0  0  0  0  0  0
   16.4477   -9.1420   18.4349 N   0  0  0  0  0  0  0  0  0  0  0  0
   17.2416  -10.2492   18.5017 C   0  0  0  0  0  0  0  0  0  0  0  0
   15.3146   -8.1629   16.4658 C   0  0  0  0  0  0  0  0  0  0  0  0
   15.1380   -8.3361   15.1198 N   0  0  0  0  0  0  0  0  0  0  0  0
   15.7184   -9.3854   14.4517 C   0  0  0  0  0  0  0  0  0  0  0  0
   16.4934  -10.2904   15.1232 N   0  0  0  0  0  0  0  0  0  0  0  0
   15.5140   -9.5314   13.0519 N   0  0  0  0  0  0  0  0  0  0  0  0
   14.9567   -8.8818   12.5654 H   0  0  0  0  0  0  0  0  0  0  0  0
   15.9299  -10.2821   12.5694 H   0  0  0  0  0  0  0  0  0  0  0  0
   14.7155   -7.0678   17.1597 N   0  0  0  0  0  0  0  0  0  0  0  0
   13.5710   -7.2457   18.0369 C   0  0  0  0  0  0  0  0  0  0  0  0
   15.0894   -6.1649   17.0401 H   0  0  0  0  0  0  0  0  0  0  0  0
  9 10  1  0  0  0
 10 11  2  0  0  0
 11 12  1  0  0  0
 12 13  2  0  0  0
 11 14  1  0  0  0
 14 15  2  0  0  0
 15 16  1  0  0  0
 16 17  2  0  0  0
 16 18  1  0  0  0
 14 21  1  0  0  0
 21 22  1  0  0  0
  9  8  1  0  0  0
  8  7  1  0  0  0
  7  6  1  0  0  0
  6  1  1  0  0  0
  1  2  1  0  0  0
  2  3  2  0  0  0
  3  4  1  0  0  0
  4  5  2  0  0  0
  3 24  1  0  0  0
 24 25  1  0  0  0
 25 26  1  0  0  0
 26 27  2  0  0  0
 27 28  1  0  0  0
 28 29  2  0  0  0
 27 30  1  0  0  0
 30 31  2  0  0  0
 31 32  1  0  0  0
 32 33  2  0  0  0
 32 34  1  0  0  0
 30 37  1  0  0  0
 37 38  1  0  0  0
 13  9  1  0  0  0
  5  1  1  0  0  0
 29 25  1  0  0  0
 17 10  1  0  0  0
 33 26  1  0  0  0
 18 19  1  0  0  0
 18 20  1  0  0  0
 21 23  1  0  0  0
 34 35  1  0  0  0
 34 36  1  0  0  0
 37 39  1  0  0  0
M  END
>  <minimizedAffinity>
0.92576

>  <minimizedRMSD>
2.62645

$$$$
CHEMBL3819147 PubChem-117827366


 32 34  0  0  0  0  0  0  0  0999 V2000
   15.6453   -8.2130   13.1655 C   0  0  0  0  0  0  0  0  0  0  0  0
   16.2484   -7.5783   14.3302 N   0  0  0  0  0  0  0  0  0  0  0  0
   16.7368   -6.7324   14.2069 H   0  0  0  0  0  0  0  0  0  0  0  0
   16.1600   -8.1333   15.6441 C   0  0  0  0  0  0  0  0  0  0  0  0
   16.8796   -9.2377   15.9799 N   0  0  0  0  0  0  0  0  0  0  0  0
   16.7994   -9.7774   17.2263 C   0  0  0  0  0  0  0  0  0  0  0  0
   15.9886   -9.2089   18.1571 N   0  0  0  0  0  0  0  0  0  0  0  0
   15.2538   -8.1049   17.8614 C   0  0  0  0  0  0  0  0  0  0  0  0
   15.3247   -7.5393   16.5890 C   0  0  0  0  0  0  0  0  0  0  0  0
   17.5643  -10.9356   17.5671 N   0  0  0  0  0  0  0  0  0  0  0  0
   17.4006  -11.3720   18.4343 H   0  0  0  0  0  0  0  0  0  0  0  0
   18.5760  -11.4955   16.6826 C   0  0  0  0  0  0  0  0  0  0  0  0
   17.9532  -12.5368   15.7682 C   0  0  0  0  0  0  0  0  0  0  0  0
   18.5742  -12.4586   14.3865 C   0  0  0  0  0  0  0  0  0  0  0  0
   17.7914  -13.1647   13.4722 O   0  0  0  0  0  0  0  0  0  0  0  0
   17.7376  -14.0946   13.7430 H   0  0  0  0  0  0  0  0  0  0  0  0
   15.6976   -9.7299   13.2930 C   0  0  0  0  0  0  0  0  0  0  0  0
   16.5560  -10.3463   12.1960 C   0  0  0  0  0  0  0  0  0  0  0  0
   17.9962   -9.8669   12.2914 C   0  0  0  0  0  0  0  0  0  0  0  0
   18.3212   -9.0336   11.1426 N   0  0  0  0  0  0  0  0  0  0  0  0
   18.9457   -8.2829   11.2681 H   0  0  0  0  0  0  0  0  0  0  0  0
   17.7732   -9.2569    9.8374 C   0  0  0  0  0  0  0  0  0  0  0  0
   16.6411  -10.0655    9.6680 C   0  0  0  0  0  0  0  0  0  0  0  0
   16.1237  -10.2789    8.3892 C   0  0  0  0  0  0  0  0  0  0  0  0
   16.7143   -9.7060    7.3072 N   0  0  0  0  0  0  0  0  0  0  0  0
   17.8137   -8.9168    7.4314 C   0  0  0  0  0  0  0  0  0  0  0  0
   18.3711   -8.6733    8.7084 C   0  0  0  0  0  0  0  0  0  0  0  0
   19.5067   -7.8586    8.8207 C   0  0  0  0  0  0  0  0  0  0  0  0
   20.0811   -7.2921    7.6793 C   0  0  0  0  0  0  0  0  0  0  0  0
   19.5260   -7.5352    6.4194 C   0  0  0  0  0  0  0  0  0  0  0  0
   18.3944   -8.3462    6.2954 C   0  0  0  0  0  0  0  0  0  0  0  0
   20.2499   -6.8231    4.9942 Cl  0  0  0  0  0  0  0  0  0  0  0  0
  2  1  1  0  0  0
  1 17  1  0  0  0
 17 18  1  0  0  0
 18 19  1  0  0  0
 19 20  1  0  0  0
 20 22  1  0  0  0
 22 23  2  0  0  0
 23 24  1  0  0  0
 24 25  2  0  0  0
 25 26  1  0  0  0
 26 27  2  0  0  0
 27 28  1  0  0  0
 28 29  2  0  0  0
 29 30  1  0  0  0
 30 31  2  0  0  0
 30 32  1  0  0  0
  2  4  1  0  0  0
  4  5  2  0  0  0
  5  6  1  0  0  0
  6  7  2  0  0  0
  7  8  1  0  0  0
  8  9  2  0  0  0
  6 10  1  0  0  0
 10 12  1  0  0  0
 12 13  1  0  0  0
 13 14  1  0  0  0
 14 15  1  0  0  0
 27 22  1  0  0  0
  9  4  1  0  0  0
 31 26  1  0  0  0
  2  3  1  0  0  0
 20 21  1  0  0  0
 10 11  1  0  0  0
 15 16  1  0  0  0
M  END
>  <minimizedAffinity>
-3.88639

>  <minimizedRMSD>
2.62698

$$$$
CHEMBL3593303 PubChem-122181808


 35 38  0  0  0  0  0  0  0  0999 V2000
   14.6912   -7.6754   17.8706 C   0  0  0  0  0  0  0  0  0  0  0  0
   15.8891   -8.3818   18.0519 C   0  0  0  0  0  0  0  0  0  0  0  0
   16.3878   -9.2009   17.0351 C   0  0  0  0  0  0  0  0  0  0  0  0
   15.6915   -9.3222   15.8281 C   0  0  0  0  0  0  0  0  0  0  0  0
   14.4980   -8.6185   15.6400 C   0  0  0  0  0  0  0  0  0  0  0  0
   13.9996   -7.7992   16.6565 C   0  0  0  0  0  0  0  0  0  0  0  0
   14.6624   -6.9512   20.2803 N   0  0  0  0  0  0  0  0  0  0  0  0
   14.1681   -6.8102   18.9420 C   0  0  0  0  0  0  0  0  0  0  0  0
   13.2563   -5.9760   18.6882 O   0  0  0  0  0  0  0  0  0  0  0  0
   15.2061   -7.7473   20.4799 H   0  0  0  0  0  0  0  0  0  0  0  0
   16.5390   -6.6259   22.4943 N   0  0  0  0  0  0  0  0  0  0  0  0
   15.3476   -5.8500   22.4103 C   0  0  0  0  0  0  0  0  0  0  0  0
   15.0565   -4.9480   23.4388 C   0  0  0  0  0  0  0  0  0  0  0  0
   13.8577   -4.2315   23.4312 C   0  0  0  0  0  0  0  0  0  0  0  0
   12.9361   -4.4253   22.4006 C   0  0  0  0  0  0  0  0  0  0  0  0
   13.2193   -5.3254   21.3704 C   0  0  0  0  0  0  0  0  0  0  0  0
   14.4297   -6.0276   21.3516 C   0  0  0  0  0  0  0  0  0  0  0  0
   17.1657   -6.4865   23.2406 H   0  0  0  0  0  0  0  0  0  0  0  0
   16.7358   -7.3018   21.8060 H   0  0  0  0  0  0  0  0  0  0  0  0
   16.2310  -10.1846   14.7376 C   0  0  0  0  0  0  0  0  0  0  0  0
   17.6511  -10.4343   14.9478 N   0  0  0  0  0  0  0  0  0  0  0  0
   18.6703  -10.3420   13.9414 C   0  0  0  0  0  0  0  0  0  0  0  0
   19.8727  -10.2878   14.3071 O   0  0  0  0  0  0  0  0  0  0  0  0
   17.9352  -10.6874   15.8558 H   0  0  0  0  0  0  0  0  0  0  0  0
   18.3866  -10.3221   12.4955 C   0  0  0  0  0  0  0  0  0  0  0  0
   17.4218   -9.5960   11.9422 C   0  0  0  0  0  0  0  0  0  0  0  0
   17.1684   -9.5876   10.4953 C   0  0  0  0  0  0  0  0  0  0  0  0
   16.1537  -10.2849    9.8532 C   0  0  0  0  0  0  0  0  0  0  0  0
   16.2214  -10.0338    8.5182 N   0  0  0  0  0  0  0  0  0  0  0  0
   17.2687   -9.1956    8.3920 C   0  0  0  0  0  0  0  0  0  0  0  0
   17.7482   -8.6422    7.2109 C   0  0  0  0  0  0  0  0  0  0  0  0
   18.8566   -7.7873    7.3124 C   0  0  0  0  0  0  0  0  0  0  0  0
   19.4301   -7.5248    8.5714 C   0  0  0  0  0  0  0  0  0  0  0  0
   18.9038   -8.1049    9.6875 N   0  0  0  0  0  0  0  0  0  0  0  0
   17.8523   -8.9125    9.5601 N   0  0  0  0  0  0  0  0  0  0  0  0
 11 12  1  0  0  0
 12 13  2  0  0  0
 13 14  1  0  0  0
 14 15  2  0  0  0
 15 16  1  0  0  0
 16 17  2  0  0  0
 17  7  1  0  0  0
  7  8  1  0  0  0
  8  9  2  0  0  0
  8  1  1  0  0  0
  1  2  2  0  0  0
  2  3  1  0  0  0
  3  4  2  0  0  0
  4 20  1  0  0  0
 20 21  1  0  0  0
 21 22  1  0  0  0
 22 23  2  0  0  0
 22 25  1  0  0  0
 25 26  2  0  0  0
 26 27  1  0  0  0
 27 28  2  0  0  0
 28 29  1  0  0  0
 29 30  2  0  0  0
 30 31  1  0  0  0
 31 32  2  0  0  0
 32 33  1  0  0  0
 33 34  2  0  0  0
 34 35  1  0  0  0
  4  5  1  0  0  0
  5  6  2  0  0  0
 17 12  1  0  0  0
  6  1  1  0  0  0
 35 27  1  0  0  0
 35 30  1  0  0  0
 11 18  1  0  0  0
 11 19  1  0  0  0
  7 10  1  0  0  0
 21 24  1  0  0  0
M  END
>  <minimizedAffinity>
-6.47644

>  <minimizedRMSD>
2.63081

$$$$
CHEMBL2235541 PubChem-25108333


 29 32  0  0  0  0  0  0  0  0999 V2000
   17.0904   -8.9372   14.6261 C   0  0  0  0  0  0  0  0  0  0  0  0
   15.9608   -8.4448   14.0847 N   0  0  0  0  0  0  0  0  0  0  0  0
   15.9229   -8.8941   12.8400 N   0  0  0  0  0  0  0  0  0  0  0  0
   17.0295   -9.6428   12.6777 C   0  0  0  0  0  0  0  0  0  0  0  0
   17.7556   -9.6711   13.7682 O   0  0  0  0  0  0  0  0  0  0  0  0
   17.6171   -8.6212   16.3056 S   0  0  0  0  0  0  0  0  0  0  0  0
   16.0761   -9.2739   17.0195 C   0  0  0  0  0  0  0  0  0  0  0  0
   15.3355   -8.2992   19.2265 N   0  0  0  0  0  0  0  0  0  0  0  0
   15.3768   -8.2153   17.7986 C   0  0  0  0  0  0  0  0  0  0  0  0
   14.8816   -7.2256   17.1964 O   0  0  0  0  0  0  0  0  0  0  0  0
   15.8750   -9.0005   19.6580 H   0  0  0  0  0  0  0  0  0  0  0  0
   16.7095   -6.7148   21.1960 C   0  0  0  0  0  0  0  0  0  0  0  0
   15.2265   -6.6665   21.0528 C   0  0  0  0  0  0  0  0  0  0  0  0
   14.4988   -5.8210   21.8943 C   0  0  0  0  0  0  0  0  0  0  0  0
   13.1097   -5.7490   21.7898 C   0  0  0  0  0  0  0  0  0  0  0  0
   12.4405   -6.5311   20.8478 C   0  0  0  0  0  0  0  0  0  0  0  0
   13.1541   -7.3776   19.9943 C   0  0  0  0  0  0  0  0  0  0  0  0
   12.3789   -8.2519   19.0684 C   0  0  0  0  0  0  0  0  0  0  0  0
   14.5648   -7.4351   20.0761 C   0  0  0  0  0  0  0  0  0  0  0  0
   17.3985  -10.3207   11.4040 C   0  0  0  0  0  0  0  0  0  0  0  0
   18.2284   -9.4398   10.5970 N   0  0  0  0  0  0  0  0  0  0  0  0
   19.3561   -8.8707   11.0098 N   0  0  0  0  0  0  0  0  0  0  0  0
   19.8577   -8.0713   10.0680 N   0  0  0  0  0  0  0  0  0  0  0  0
   18.9993   -8.1436    9.0337 C   0  0  0  0  0  0  0  0  0  0  0  0
   19.0535   -7.4883    7.8077 C   0  0  0  0  0  0  0  0  0  0  0  0
   18.0016   -7.7366    6.9031 C   0  0  0  0  0  0  0  0  0  0  0  0
   16.9449   -8.6143    7.2462 C   0  0  0  0  0  0  0  0  0  0  0  0
   16.9240   -9.2587    8.4988 C   0  0  0  0  0  0  0  0  0  0  0  0
   17.9844   -8.9883    9.3602 C   0  0  0  0  0  0  0  0  0  0  0  0
 12 13  1  0  0  0
 13 14  2  0  0  0
 14 15  1  0  0  0
 15 16  2  0  0  0
 16 17  1  0  0  0
 17 18  1  0  0  0
 17 19  2  0  0  0
 19  8  1  0  0  0
 19 13  1  0  0  0
  8  9  1  0  0  0
  9 10  2  0  0  0
  9  7  1  0  0  0
  7  6  1  0  0  0
  6  1  1  0  0  0
  1  2  2  0  0  0
  2  3  1  0  0  0
  3  4  2  0  0  0
  4 20  1  0  0  0
  4  5  1  0  0  0
 20 21  1  0  0  0
 21 22  1  0  0  0
 22 23  2  0  0  0
 23 24  1  0  0  0
 24 25  2  0  0  0
 25 26  1  0  0  0
 26 27  2  0  0  0
 27 28  1  0  0  0
 28 29  2  0  0  0
 29 21  1  0  0  0
 29 24  1  0  0  0
  5  1  1  0  0  0
  8 11  1  0  0  0
M  END
>  <minimizedAffinity>
-7.00864

>  <minimizedRMSD>
2.63812

$$$$
CHEMBL2171178 PubChem-11123068


 36 38  0  0  0  0  0  0  0  0999 V2000
   17.6987   -8.4501   10.6784 C   0  0  0  0  0  0  0  0  0  0  0  0
   18.7194   -9.2061   11.2885 O   0  0  0  0  0  0  0  0  0  0  0  0
   18.0869  -10.1274   12.1413 C   0  0  0  0  0  0  0  0  0  0  0  0
   16.7313   -9.5903   12.5168 C   0  0  0  0  0  0  0  0  0  0  0  0
   15.8192  -10.6396   12.6263 O   0  0  0  0  0  0  0  0  0  0  0  0
   16.3719   -8.7257   11.3545 C   0  0  0  0  0  0  0  0  0  0  0  0
   15.8184   -7.5304   11.8106 O   0  0  0  0  0  0  0  0  0  0  0  0
   15.7970  -11.1369   11.7937 H   0  0  0  0  0  0  0  0  0  0  0  0
   16.4440   -7.0916   12.4080 H   0  0  0  0  0  0  0  0  0  0  0  0
   18.6120   -8.4147    5.9198 C   0  0  0  0  0  0  0  0  0  0  0  0
   19.6930   -7.5820    6.0237 N   0  0  0  0  0  0  0  0  0  0  0  0
   20.1172   -7.1116    7.2410 C   0  0  0  0  0  0  0  0  0  0  0  0
   19.4648   -7.4677    8.3891 N   0  0  0  0  0  0  0  0  0  0  0  0
   18.3972   -8.2947    8.2778 C   0  0  0  0  0  0  0  0  0  0  0  0
   17.9583   -8.7676    7.0917 C   0  0  0  0  0  0  0  0  0  0  0  0
   16.8748   -9.5471    7.2675 N   0  0  0  0  0  0  0  0  0  0  0  0
   16.6863   -9.5173    8.6177 C   0  0  0  0  0  0  0  0  0  0  0  0
   17.6175   -8.7610    9.2563 N   0  0  0  0  0  0  0  0  0  0  0  0
   18.1626   -8.8980    4.6511 N   0  0  0  0  0  0  0  0  0  0  0  0
   17.5468   -9.6659    4.6320 H   0  0  0  0  0  0  0  0  0  0  0  0
   18.5750   -8.3051    3.3852 C   0  0  0  0  0  0  0  0  0  0  0  0
   19.9849   -8.7415    3.0181 C   0  0  0  0  0  0  0  0  0  0  0  0
   21.1656  -10.5218    1.7709 C   0  0  0  0  0  0  0  0  0  0  0  0
   19.9624   -9.6030    1.7706 C   0  0  0  0  0  0  0  0  0  0  0  0
   18.9209  -10.3403   13.3921 C   0  0  0  0  0  0  0  0  0  0  0  0
   19.3374  -12.1005   13.5913 S   0  0  0  0  0  0  0  0  0  0  0  0
   17.7241  -12.5214   14.3242 C   0  0  0  0  0  0  0  0  0  0  0  0
   17.8247  -12.6238   15.8399 C   0  0  0  0  0  0  0  0  0  0  0  0
   18.1121  -11.2675   16.4752 C   0  0  0  0  0  0  0  0  0  0  0  0
   18.1926  -11.4185   17.9172 N   0  0  0  0  0  0  0  0  0  0  0  0
   17.2962  -11.7484   18.2751 H   0  0  0  0  0  0  0  0  0  0  0  0
   18.4175  -10.5185   18.3413 H   0  0  0  0  0  0  0  0  0  0  0  0
   17.0793  -10.2349   16.1333 C   0  0  0  0  0  0  0  0  0  0  0  0
   17.3625   -9.0139   16.2476 O   0  0  0  0  0  0  0  0  0  0  0  0
   15.8140  -10.6027   15.6882 O   0  0  0  0  0  0  0  0  0  0  0  0
   15.5936  -11.5091   15.5998 H   0  0  0  0  0  0  0  0  0  0  0  0
 23 24  1  0  0  0
 24 22  1  0  0  0
 22 21  1  0  0  0
 21 19  1  0  0  0
 19 10  1  0  0  0
 10 11  2  0  0  0
 11 12  1  0  0  0
 12 13  2  0  0  0
 13 14  1  0  0  0
 14 15  2  0  0  0
 15 16  1  0  0  0
 15 10  1  0  0  0
 16 17  2  0  0  0
 17 18  1  0  0  0
 18 14  1  0  0  0
  1 18  1  0  0  0
  1  2  1  0  0  0
  2  3  1  0  0  0
  3 25  1  0  0  0
  3  4  1  0  0  0
 25 26  1  0  0  0
 26 27  1  0  0  0
 27 28  1  0  0  0
 29 28  1  0  0  0
 29 30  1  0  0  0
 29 33  1  0  0  0
 33 34  2  0  0  0
 33 35  1  0  0  0
  4  5  1  0  0  0
  4  6  1  0  0  0
  6  7  1  0  0  0
  6  1  1  0  0  0
 19 20  1  0  0  0
 30 31  1  0  0  0
 30 32  1  0  0  0
 35 36  1  0  0  0
  5  8  1  0  0  0
  7  9  1  0  0  0
M  END
>  <minimizedAffinity>
-1.91540

>  <minimizedRMSD>
2.64700

$$$$
CHEMBL4473306 PubChem-155536226


 35 38  0  0  0  0  0  0  0  0999 V2000
   18.1407   -8.1715    7.1154 C   0  0  0  0  0  0  0  0  0  0  0  0
   16.8680   -8.1674    6.5196 C   0  0  0  0  0  0  0  0  0  0  0  0
   15.7605   -8.6872    7.1952 C   0  0  0  0  0  0  0  0  0  0  0  0
   15.9110   -9.2189    8.4774 C   0  0  0  0  0  0  0  0  0  0  0  0
   17.1801   -9.2306    9.0891 C   0  0  0  0  0  0  0  0  0  0  0  0
   18.2851   -8.7078    8.4055 C   0  0  0  0  0  0  0  0  0  0  0  0
   17.2932   -9.7721   10.3766 C   0  0  0  0  0  0  0  0  0  0  0  0
   16.1831  -10.2657   10.9916 N   0  0  0  0  0  0  0  0  0  0  0  0
   14.9680  -10.2446   10.3837 C   0  0  0  0  0  0  0  0  0  0  0  0
   14.8369   -9.7242    9.1358 N   0  0  0  0  0  0  0  0  0  0  0  0
   19.3119   -7.6191    6.3949 C   0  0  0  0  0  0  0  0  0  0  0  0
   19.1548   -6.9447    5.1766 C   0  0  0  0  0  0  0  0  0  0  0  0
   20.2624   -6.4274    4.5041 C   0  0  0  0  0  0  0  0  0  0  0  0
   21.5393   -6.5888    5.0605 C   0  0  0  0  0  0  0  0  0  0  0  0
   21.6763   -7.2470    6.2462 N   0  0  0  0  0  0  0  0  0  0  0  0
   20.6072   -7.7568    6.9136 C   0  0  0  0  0  0  0  0  0  0  0  0
   22.6598   -6.0768    4.4002 O   0  0  0  0  0  0  0  0  0  0  0  0
   22.7948   -4.6947    4.1049 C   0  0  0  0  0  0  0  0  0  0  0  0
   20.0737   -5.7392    3.2548 C   0  0  0  0  0  0  0  0  0  0  0  0
   19.9218   -5.1854    2.2500 N   0  0  0  0  0  0  0  0  0  0  0  0
   18.5664   -9.8052   11.0394 N   0  0  0  0  0  0  0  0  0  0  0  0
   19.3712   -9.6823   10.4859 H   0  0  0  0  0  0  0  0  0  0  0  0
   18.7570  -10.0073   12.4724 C   0  0  0  0  0  0  0  0  0  0  0  0
   17.4711   -9.7022   13.2410 C   0  0  0  0  0  0  0  0  0  0  0  0
   17.6688   -9.9980   14.6572 N   0  0  0  0  0  0  0  0  0  0  0  0
   18.1424  -11.3348   15.0098 C   0  0  0  0  0  0  0  0  0  0  0  0
   19.4417  -11.6278   14.2648 C   0  0  0  0  0  0  0  0  0  0  0  0
   19.2435  -11.4292   12.7637 C   0  0  0  0  0  0  0  0  0  0  0  0
   17.4333   -8.9827   15.6502 C   0  0  0  0  0  0  0  0  0  0  0  0
   17.0317   -7.8424   15.2947 O   0  0  0  0  0  0  0  0  0  0  0  0
   17.6461   -9.2297   17.1138 C   0  0  0  0  0  0  0  0  0  0  0  0
   18.8702   -8.5945   17.5698 N   0  0  0  0  0  0  0  0  0  0  0  0
   17.6773  -10.7147   17.4224 C   0  0  0  0  0  0  0  0  0  0  0  0
   19.6666   -8.9975   17.0760 H   0  0  0  0  0  0  0  0  0  0  0  0
   18.9793   -8.7469   18.5724 H   0  0  0  0  0  0  0  0  0  0  0  0
  1  2  2  0  0  0
  2  3  1  0  0  0
  3  4  2  0  0  0
  4  5  1  0  0  0
  5  6  2  0  0  0
  5  7  1  0  0  0
  7  8  2  0  0  0
  8  9  1  0  0  0
  9 10  2  0  0  0
  7 21  1  0  0  0
 23 21  1  0  0  0
 23 24  1  0  0  0
 24 25  1  0  0  0
 25 26  1  0  0  0
 26 27  1  0  0  0
 27 28  1  0  0  0
 25 29  1  0  0  0
 29 30  2  0  0  0
 29 31  1  0  0  0
 31 32  1  0  0  0
 31 33  1  0  0  0
  1 11  1  0  0  0
 11 12  2  0  0  0
 12 13  1  0  0  0
 13 14  2  0  0  0
 14 15  1  0  0  0
 15 16  2  0  0  0
 14 17  1  0  0  0
 17 18  1  0  0  0
 13 19  1  0  0  0
 19 20  3  0  0  0
  6  1  1  0  0  0
 28 23  1  0  0  0
 16 11  1  0  0  0
 10  4  1  0  0  0
 21 22  1  0  0  0
 32 34  1  0  0  0
 32 35  1  0  0  0
M  END
>  <minimizedAffinity>
0.42303

>  <minimizedRMSD>
2.65483

$$$$
CHEMBL3968313


 36 41  0  0  0  0  0  0  0  0999 V2000
   17.2914  -10.7218   16.5085 C   0  0  0  0  0  0  0  0  0  0  0  0
   16.2604  -10.0619   15.6124 C   0  0  0  0  0  0  0  0  0  0  0  0
   16.5868  -10.3987   14.1560 C   0  0  0  0  0  0  0  0  0  0  0  0
   15.8883   -9.4853   13.2522 N   0  0  0  0  0  0  0  0  0  0  0  0
   15.9231   -8.0385   13.4903 C   0  0  0  0  0  0  0  0  0  0  0  0
   16.6813   -7.7095   14.7731 C   0  0  0  0  0  0  0  0  0  0  0  0
   16.2393   -8.6082   15.8391 N   0  0  0  0  0  0  0  0  0  0  0  0
   15.6446   -8.0498   17.0241 C   0  0  0  0  0  0  0  0  0  0  0  0
   15.6185   -6.7997   17.1885 O   0  0  0  0  0  0  0  0  0  0  0  0
   14.9849  -10.0249   12.2798 C   0  0  0  0  0  0  0  0  0  0  0  0
   13.5466  -10.8070   12.6551 S   0  0  0  0  0  0  0  0  0  0  0  0
   13.0587  -10.9605   11.0517 C   0  0  0  0  0  0  0  0  0  0  0  0
   13.9897  -10.4218   10.2296 N   0  0  0  0  0  0  0  0  0  0  0  0
   15.0619   -9.9027   10.8896 C   0  0  0  0  0  0  0  0  0  0  0  0
   16.2074   -9.3543   10.1424 C   0  0  0  0  0  0  0  0  0  0  0  0
   16.1827   -9.1980    8.7916 N   0  0  0  0  0  0  0  0  0  0  0  0
   17.4100   -8.7285    8.5289 C   0  0  0  0  0  0  0  0  0  0  0  0
   17.9417   -8.3841    7.2888 C   0  0  0  0  0  0  0  0  0  0  0  0
   19.2686   -7.9152    7.2624 C   0  0  0  0  0  0  0  0  0  0  0  0
   20.0156   -7.8071    8.4572 C   0  0  0  0  0  0  0  0  0  0  0  0
   19.4445   -8.1666    9.6924 C   0  0  0  0  0  0  0  0  0  0  0  0
   18.1295   -8.6245    9.6792 C   0  0  0  0  0  0  0  0  0  0  0  0
   17.3916   -9.0235   10.7237 N   0  0  0  0  0  0  0  0  0  0  0  0
   17.6436   -9.0665   11.6744 H   0  0  0  0  0  0  0  0  0  0  0  0
   15.0311   -8.9281   18.0694 C   0  0  0  0  0  0  0  0  0  0  0  0
   14.4069   -8.1058   19.1454 C   0  0  0  0  0  0  0  0  0  0  0  0
   14.9481   -7.9904   20.3863 N   0  0  0  0  0  0  0  0  0  0  0  0
   14.0986   -7.1498   20.9926 C   0  0  0  0  0  0  0  0  0  0  0  0
   14.1631   -6.6722   22.2990 C   0  0  0  0  0  0  0  0  0  0  0  0
   13.1513   -5.7866   22.7148 C   0  0  0  0  0  0  0  0  0  0  0  0
   13.1709   -5.1489   24.3444 Cl  0  0  0  0  0  0  0  0  0  0  0  0
   12.1203   -5.4081   21.8255 C   0  0  0  0  0  0  0  0  0  0  0  0
   12.0885   -5.9101   20.5112 C   0  0  0  0  0  0  0  0  0  0  0  0
   13.1051   -6.7848   20.1363 C   0  0  0  0  0  0  0  0  0  0  0  0
   13.2776   -7.3768   18.9463 N   0  0  0  0  0  0  0  0  0  0  0  0
   12.7261   -7.3023   18.1342 H   0  0  0  0  0  0  0  0  0  0  0  0
  2  1  1  0  0  0
  2  3  1  0  0  0
  3  4  1  0  0  0
  4  5  1  0  0  0
  5  6  1  0  0  0
  6  7  1  0  0  0
  7  8  1  0  0  0
  8  9  2  0  0  0
  8 25  1  0  0  0
 25 26  1  0  0  0
 26 27  2  0  0  0
 27 28  1  0  0  0
 28 29  2  0  0  0
 29 30  1  0  0  0
 30 31  1  0  0  0
 30 32  2  0  0  0
 32 33  1  0  0  0
 33 34  2  0  0  0
 34 35  1  0  0  0
  4 10  1  0  0  0
 10 11  1  0  0  0
 11 12  1  0  0  0
 12 13  2  0  0  0
 13 14  1  0  0  0
 14 15  1  0  0  0
 15 16  2  0  0  0
 16 17  1  0  0  0
 17 18  2  0  0  0
 18 19  1  0  0  0
 19 20  2  0  0  0
 20 21  1  0  0  0
 21 22  2  0  0  0
 22 23  1  0  0  0
  7  2  1  0  0  0
 35 26  1  0  0  0
 14 10  2  0  0  0
 23 15  1  0  0  0
 34 28  1  0  0  0
 22 17  1  0  0  0
 35 36  1  0  0  0
 23 24  1  0  0  0
M  END
>  <minimizedAffinity>
-1.49657

>  <minimizedRMSD>
2.65732

$$$$
CHEMBL2037393 PubChem-60166502


 28 31  0  0  0  0  0  0  0  0999 V2000
   16.9715   -9.2124   14.1437 C   0  0  0  0  0  0  0  0  0  0  0  0
   15.6426   -9.2276   13.9316 N   0  0  0  0  0  0  0  0  0  0  0  0
   15.4741   -9.6267   12.6805 N   0  0  0  0  0  0  0  0  0  0  0  0
   16.7077   -9.8397   12.1855 C   0  0  0  0  0  0  0  0  0  0  0  0
   17.6342   -9.5828   13.0758 O   0  0  0  0  0  0  0  0  0  0  0  0
   17.7341   -8.7394   15.6908 S   0  0  0  0  0  0  0  0  0  0  0  0
   16.3963   -9.4657   16.6863 C   0  0  0  0  0  0  0  0  0  0  0  0
   15.1544   -7.4428   16.7621 O   0  0  0  0  0  0  0  0  0  0  0  0
   15.6546   -8.3982   17.4123 C   0  0  0  0  0  0  0  0  0  0  0  0
   15.5375   -8.4697   18.8393 N   0  0  0  0  0  0  0  0  0  0  0  0
   15.9456   -9.2514   19.2770 H   0  0  0  0  0  0  0  0  0  0  0  0
   14.8873   -7.5204   19.6950 C   0  0  0  0  0  0  0  0  0  0  0  0
   15.5032   -7.1699   20.9017 C   0  0  0  0  0  0  0  0  0  0  0  0
   14.9003   -6.2476   21.7624 C   0  0  0  0  0  0  0  0  0  0  0  0
   13.6755   -5.6687   21.4194 C   0  0  0  0  0  0  0  0  0  0  0  0
   13.0908   -4.7764   22.2542 F   0  0  0  0  0  0  0  0  0  0  0  0
   13.0531   -6.0131   20.2167 C   0  0  0  0  0  0  0  0  0  0  0  0
   13.6570   -6.9351   19.3569 C   0  0  0  0  0  0  0  0  0  0  0  0
   16.9827  -10.2755   10.7875 C   0  0  0  0  0  0  0  0  0  0  0  0
   17.9831   -9.4082   10.1837 N   0  0  0  0  0  0  0  0  0  0  0  0
   19.1238   -8.9615   10.7622 C   0  0  0  0  0  0  0  0  0  0  0  0
   19.8205   -8.1216    9.9488 N   0  0  0  0  0  0  0  0  0  0  0  0
   19.0618   -8.0549    8.8388 C   0  0  0  0  0  0  0  0  0  0  0  0
   19.3064   -7.3166    7.6836 C   0  0  0  0  0  0  0  0  0  0  0  0
   18.3523   -7.3955    6.6511 C   0  0  0  0  0  0  0  0  0  0  0  0
   17.1962   -8.1954    6.7992 C   0  0  0  0  0  0  0  0  0  0  0  0
   16.9795   -8.9283    7.9813 C   0  0  0  0  0  0  0  0  0  0  0  0
   17.9487   -8.8270    8.9782 C   0  0  0  0  0  0  0  0  0  0  0  0
  8  9  2  0  0  0
  9  7  1  0  0  0
  9 10  1  0  0  0
  7  6  1  0  0  0
  6  1  1  0  0  0
  1  2  2  0  0  0
  2  3  1  0  0  0
  3  4  2  0  0  0
  4 19  1  0  0  0
  4  5  1  0  0  0
 19 20  1  0  0  0
 20 21  1  0  0  0
 21 22  2  0  0  0
 22 23  1  0  0  0
 23 24  2  0  0  0
 24 25  1  0  0  0
 25 26  2  0  0  0
 26 27  1  0  0  0
 27 28  2  0  0  0
 28 20  1  0  0  0
 28 23  1  0  0  0
  5  1  1  0  0  0
 10 12  1  0  0  0
 12 13  2  0  0  0
 13 14  1  0  0  0
 14 15  2  0  0  0
 15 16  1  0  0  0
 15 17  1  0  0  0
 17 18  2  0  0  0
 18 12  1  0  0  0
 10 11  1  0  0  0
M  END
>  <minimizedAffinity>
-7.38868

>  <minimizedRMSD>
2.65750

$$$$
CHEMBL3326617 CHEMBL3545609 1060849 MCULE-3061195083 MolPort-002-280-786 PubChem-118711731 PubChem-1251060 ZINC000001060849


 29 32  0  0  0  0  0  0  0  0999 V2000
   15.8883   -9.8537   10.6020 N   0  0  0  0  0  0  0  0  0  0  0  0
   14.5889  -10.0238   10.7660 N   0  0  0  0  0  0  0  0  0  0  0  0
   14.3342  -10.1196   12.0631 N   0  0  0  0  0  0  0  0  0  0  0  0
   15.4621  -10.0344   12.7571 N   0  0  0  0  0  0  0  0  0  0  0  0
   16.4271   -9.8737   11.8341 C   0  0  0  0  0  0  0  0  0  0  0  0
   16.5489   -9.7971    9.3308 C   0  0  0  0  0  0  0  0  0  0  0  0
   16.1686  -10.7006    8.3299 C   0  0  0  0  0  0  0  0  0  0  0  0
   16.7925  -10.6851    7.0805 C   0  0  0  0  0  0  0  0  0  0  0  0
   17.8007   -9.7582    6.8114 C   0  0  0  0  0  0  0  0  0  0  0  0
   18.1826   -8.8363    7.7878 C   0  0  0  0  0  0  0  0  0  0  0  0
   19.1766   -7.8958    7.5026 C   0  0  0  0  0  0  0  0  0  0  0  0
   19.5438   -6.9509    8.4640 C   0  0  0  0  0  0  0  0  0  0  0  0
   18.9153   -6.9393    9.7117 C   0  0  0  0  0  0  0  0  0  0  0  0
   17.9223   -7.8776   10.0057 C   0  0  0  0  0  0  0  0  0  0  0  0
   17.5526   -8.8428    9.0572 C   0  0  0  0  0  0  0  0  0  0  0  0
   18.1802   -9.8310   12.2137 S   0  0  0  0  0  0  0  0  0  0  0  0
   18.2623  -11.6232   12.5303 C   0  0  0  0  0  0  0  0  0  0  0  0
   18.3653  -11.9061   13.9961 C   0  0  0  0  0  0  0  0  0  0  0  0
   18.9276  -12.9724   14.3627 O   0  0  0  0  0  0  0  0  0  0  0  0
   17.8457  -10.9616   15.0067 C   0  0  0  0  0  0  0  0  0  0  0  0
   17.5336  -11.4139   16.2972 C   0  0  0  0  0  0  0  0  0  0  0  0
   17.0451  -10.5265   17.2603 C   0  0  0  0  0  0  0  0  0  0  0  0
   16.8649   -9.1777   16.9428 C   0  0  0  0  0  0  0  0  0  0  0  0
   17.1760   -8.7156   15.6580 C   0  0  0  0  0  0  0  0  0  0  0  0
   17.0021   -7.3766   15.3313 O   0  0  0  0  0  0  0  0  0  0  0  0
   17.6650   -9.6049   14.6969 C   0  0  0  0  0  0  0  0  0  0  0  0
   16.3781   -8.3029   17.9059 O   0  0  0  0  0  0  0  0  0  0  0  0
   16.6746   -6.7767   15.9723 H   0  0  0  0  0  0  0  0  0  0  0  0
   16.1718   -8.6182   18.7638 H   0  0  0  0  0  0  0  0  0  0  0  0
  1  6  1  0  0  0
  6  7  2  0  0  0
  7  8  1  0  0  0
  8  9  2  0  0  0
  9 10  1  0  0  0
 10 11  2  0  0  0
 11 12  1  0  0  0
 12 13  2  0  0  0
 13 14  1  0  0  0
 14 15  2  0  0  0
  1  2  1  0  0  0
  2  3  2  0  0  0
  3  4  1  0  0  0
  4  5  2  0  0  0
  5 16  1  0  0  0
 16 17  1  0  0  0
 17 18  1  0  0  0
 18 19  2  0  0  0
 18 20  1  0  0  0
 20 21  2  0  0  0
 21 22  1  0  0  0
 22 23  2  0  0  0
 23 24  1  0  0  0
 24 25  1  0  0  0
 24 26  2  0  0  0
 23 27  1  0  0  0
  5  1  1  0  0  0
 26 20  1  0  0  0
 15  6  1  0  0  0
 15 10  1  0  0  0
 25 28  1  0  0  0
 27 29  1  0  0  0
M  END
>  <minimizedAffinity>
-3.37539

>  <minimizedRMSD>
2.66391

$$$$
CHEMBL3896725


 32 36  0  0  0  0  0  0  0  0999 V2000
   16.2263   -7.9813   15.6708 C   0  0  0  0  0  0  0  0  0  0  0  0
   17.6286   -8.4000   15.1933 C   0  0  0  0  0  0  0  0  0  0  0  0
   17.5665   -9.1938   13.8918 C   0  0  0  0  0  0  0  0  0  0  0  0
   16.9597   -8.3500   12.7623 C   0  0  0  0  0  0  0  0  0  0  0  0
   15.9090   -7.3364   13.2444 C   0  0  0  0  0  0  0  0  0  0  0  0
   15.2209   -7.8048   14.5248 C   0  0  0  0  0  0  0  0  0  0  0  0
   16.3881   -9.2398   11.7082 C   0  0  0  0  0  0  0  0  0  0  0  0
   16.7623   -9.3172   10.3892 C   0  0  0  0  0  0  0  0  0  0  0  0
   17.7161   -8.6685    9.6247 C   0  0  0  0  0  0  0  0  0  0  0  0
   18.6490   -7.7001    9.9025 C   0  0  0  0  0  0  0  0  0  0  0  0
   19.2868   -7.5041    8.6710 C   0  0  0  0  0  0  0  0  0  0  0  0
   18.7799   -8.3018    7.6945 N   0  0  0  0  0  0  0  0  0  0  0  0
   17.8182   -9.0039    8.3070 C   0  0  0  0  0  0  0  0  0  0  0  0
   17.0167   -9.9451    7.7251 N   0  0  0  0  0  0  0  0  0  0  0  0
   16.0747  -10.5773    8.4969 C   0  0  0  0  0  0  0  0  0  0  0  0
   15.9795  -10.2381    9.8147 N   0  0  0  0  0  0  0  0  0  0  0  0
   15.1508  -10.7230   10.7220 N   0  0  0  0  0  0  0  0  0  0  0  0
   15.3786  -10.1286   11.8920 N   0  0  0  0  0  0  0  0  0  0  0  0
   19.0568   -8.3520    6.7511 H   0  0  0  0  0  0  0  0  0  0  0  0
   15.6762   -8.9942   16.6596 C   0  0  0  0  0  0  0  0  0  0  0  0
   16.7671   -9.6491   17.3603 N   0  0  0  0  0  0  0  0  0  0  0  0
   17.6508   -9.4657   16.8851 H   0  0  0  0  0  0  0  0  0  0  0  0
   16.4758  -11.0737   17.3453 C   0  0  0  0  0  0  0  0  0  0  0  0
   17.7610  -11.8907   17.2570 C   0  0  0  0  0  0  0  0  0  0  0  0
   18.7222  -11.3982   18.1440 O   0  0  0  0  0  0  0  0  0  0  0  0
   18.9488  -10.4867   17.9019 H   0  0  0  0  0  0  0  0  0  0  0  0
   19.1942  -12.0286   13.2040 C   0  0  0  0  0  0  0  0  0  0  0  0
   19.7081  -11.0739   14.0860 C   0  0  0  0  0  0  0  0  0  0  0  0
   19.2569  -11.0297   15.4082 C   0  0  0  0  0  0  0  0  0  0  0  0
   18.2911  -11.9445   15.8558 C   0  0  0  0  0  0  0  0  0  0  0  0
   17.7745  -12.8932   14.9655 C   0  0  0  0  0  0  0  0  0  0  0  0
   18.2270  -12.9374   13.6431 C   0  0  0  0  0  0  0  0  0  0  0  0
 27 28  2  0  0  0
 28 29  1  0  0  0
 29 30  2  0  0  0
 30 31  1  0  0  0
 31 32  2  0  0  0
 24 30  1  0  0  0
 24 23  1  0  0  0
 23 21  1  0  0  0
 21 20  1  0  0  0
  1 20  1  0  0  0
  1  2  1  0  0  0
  2  3  1  0  0  0
  3  4  1  0  0  0
  4  5  1  0  0  0
  5  6  1  0  0  0
  4  7  1  0  0  0
  7  8  2  0  0  0
  8  9  1  0  0  0
  9 10  1  0  0  0
 10 11  2  0  0  0
 11 12  1  0  0  0
 12 13  1  0  0  0
 13 14  1  0  0  0
 14 15  2  0  0  0
 15 16  1  0  0  0
 16 17  1  0  0  0
 17 18  2  0  0  0
 24 25  1  0  0  0
 32 27  1  0  0  0
  6  1  1  0  0  0
 18  7  1  0  0  0
 16  8  1  0  0  0
 13  9  2  0  0  0
 21 22  1  0  0  0
 12 19  1  0  0  0
 25 26  1  0  0  0
M  END
>  <minimizedAffinity>
-0.61418

>  <minimizedRMSD>
2.66395

$$$$
CHEMBL1454071 8612273 ChemDiv-D103-1620 MCULE-7893789107 PubChem-4898889 ZINC000008612273


 30 32  0  0  0  0  0  0  0  0999 V2000
   17.8188   -9.2027   14.3518 N   0  0  0  0  0  0  0  0  0  0  0  0
   17.8212  -10.2516   13.3794 C   0  0  0  0  0  0  0  0  0  0  0  0
   18.0492  -11.4417   13.7306 O   0  0  0  0  0  0  0  0  0  0  0  0
   17.6849   -8.2769   14.0450 H   0  0  0  0  0  0  0  0  0  0  0  0
   17.5615   -9.9323   11.9687 C   0  0  0  0  0  0  0  0  0  0  0  0
   18.4903   -9.3002   11.2580 O   0  0  0  0  0  0  0  0  0  0  0  0
   18.3256   -8.9777    9.9792 C   0  0  0  0  0  0  0  0  0  0  0  0
   19.3566   -8.3134    9.3118 C   0  0  0  0  0  0  0  0  0  0  0  0
   19.2154   -7.9612    7.9711 C   0  0  0  0  0  0  0  0  0  0  0  0
   20.3179   -7.2544    7.2691 C   0  0  0  0  0  0  0  0  0  0  0  0
   18.0402   -8.2713    7.2876 C   0  0  0  0  0  0  0  0  0  0  0  0
   16.9921   -8.9359    7.9314 C   0  0  0  0  0  0  0  0  0  0  0  0
   15.7733   -9.2259    7.1203 C   0  0  0  0  0  0  0  0  0  0  0  0
   17.1226   -9.3009    9.2981 C   0  0  0  0  0  0  0  0  0  0  0  0
   16.1219   -9.9734   10.0360 C   0  0  0  0  0  0  0  0  0  0  0  0
   15.0217  -10.3016    9.5185 O   0  0  0  0  0  0  0  0  0  0  0  0
   16.3481  -10.2867   11.3739 C   0  0  0  0  0  0  0  0  0  0  0  0
   18.0056   -9.4441   15.7762 C   0  0  0  0  0  0  0  0  0  0  0  0
   14.7438   -7.7879   18.0200 C   0  0  0  0  0  0  0  0  0  0  0  0
   15.8293   -8.3697   18.6842 C   0  0  0  0  0  0  0  0  0  0  0  0
   16.8940   -8.9043   17.9530 C   0  0  0  0  0  0  0  0  0  0  0  0
   16.8767   -8.8587   16.5550 C   0  0  0  0  0  0  0  0  0  0  0  0
   15.7885   -8.2831   15.8896 C   0  0  0  0  0  0  0  0  0  0  0  0
   14.7238   -7.7486   16.6213 C   0  0  0  0  0  0  0  0  0  0  0  0
   13.4026   -7.1280   18.9373 S   0  0  0  0  0  0  0  0  0  0  0  0
   14.0024   -6.2617   20.3067 N   0  0  0  0  0  0  0  0  0  0  0  0
   12.6145   -6.1836   18.0738 O   0  0  0  0  0  0  0  0  0  0  0  0
   12.5124   -8.2455   19.4019 O   0  0  0  0  0  0  0  0  0  0  0  0
   13.2193   -5.8798   20.8371 H   0  0  0  0  0  0  0  0  0  0  0  0
   14.6028   -5.5000   19.9909 H   0  0  0  0  0  0  0  0  0  0  0  0
 25 26  1  0  0  0
 25 27  2  0  0  0
 25 28  2  0  0  0
 25 19  1  0  0  0
 19 20  2  0  0  0
 20 21  1  0  0  0
 21 22  2  0  0  0
 22 23  1  0  0  0
 23 24  2  0  0  0
 22 18  1  0  0  0
 18  1  1  0  0  0
  1  2  1  0  0  0
  2  3  2  0  0  0
  2  5  1  0  0  0
  5  6  1  0  0  0
  6  7  1  0  0  0
  7  8  2  0  0  0
  8  9  1  0  0  0
  9 10  1  0  0  0
  9 11  2  0  0  0
 11 12  1  0  0  0
 12 13  1  0  0  0
 12 14  2  0  0  0
 14 15  1  0  0  0
 15 16  2  0  0  0
 15 17  1  0  0  0
 24 19  1  0  0  0
 17  5  2  0  0  0
 14  7  1  0  0  0
 26 29  1  0  0  0
 26 30  1  0  0  0
  1  4  1  0  0  0
M  END
>  <minimizedAffinity>
-3.27134

>  <minimizedRMSD>
2.66481

$$$$
CHEMBL5092131 PubChem-156898966


 37 41  0  0  0  0  0  0  0  0999 V2000
   17.5651   -8.9525   14.5461 C   0  0  0  0  0  0  0  0  0  0  0  0
   18.0461   -9.6107   13.3277 N   0  0  0  0  0  0  0  0  0  0  0  0
   17.4244   -9.5678   12.1893 C   0  0  0  0  0  0  0  0  0  0  0  0
   16.1705   -8.8960   12.0900 N   0  0  0  0  0  0  0  0  0  0  0  0
   15.5466   -8.3188   13.2381 C   0  0  0  0  0  0  0  0  0  0  0  0
   16.1684   -8.3568   14.4348 C   0  0  0  0  0  0  0  0  0  0  0  0
   14.2213   -7.6579   13.0463 C   0  0  0  0  0  0  0  0  0  0  0  0
   15.7266   -8.8287   11.2139 H   0  0  0  0  0  0  0  0  0  0  0  0
   15.3580  -11.1824   15.0807 Cl  0  0  0  0  0  0  0  0  0  0  0  0
   16.7911  -10.8802   16.0517 C   0  0  0  0  0  0  0  0  0  0  0  0
   17.7238   -9.8677   15.7302 C   0  0  0  0  0  0  0  0  0  0  0  0
   18.8449   -9.6842   16.5480 C   0  0  0  0  0  0  0  0  0  0  0  0
   19.0431  -10.4883   17.6725 C   0  0  0  0  0  0  0  0  0  0  0  0
   18.1191  -11.4854   17.9890 C   0  0  0  0  0  0  0  0  0  0  0  0
   16.9974  -11.6795   17.1804 C   0  0  0  0  0  0  0  0  0  0  0  0
   15.5637   -7.7775   15.6560 C   0  0  0  0  0  0  0  0  0  0  0  0
   16.3042   -7.2254   16.5147 O   0  0  0  0  0  0  0  0  0  0  0  0
   14.1627   -7.9207   15.9080 N   0  0  0  0  0  0  0  0  0  0  0  0
   13.5728   -8.1912   15.1677 H   0  0  0  0  0  0  0  0  0  0  0  0
   13.5777   -7.6810   17.2190 C   0  0  0  0  0  0  0  0  0  0  0  0
   14.6406   -7.7405   18.2638 C   0  0  0  0  0  0  0  0  0  0  0  0
   15.7377   -8.5190   18.1729 N   0  0  0  0  0  0  0  0  0  0  0  0
   16.4534   -8.2115   19.2735 C   0  0  0  0  0  0  0  0  0  0  0  0
   15.8329   -7.2757   20.0127 N   0  0  0  0  0  0  0  0  0  0  0  0
   14.6877   -6.9530   19.3937 C   0  0  0  0  0  0  0  0  0  0  0  0
   16.3212   -6.7065   21.2540 C   0  0  0  0  0  0  0  0  0  0  0  0
   17.9628  -10.2176   11.0334 N   0  0  0  0  0  0  0  0  0  0  0  0
   18.1854  -11.1736   11.1105 H   0  0  0  0  0  0  0  0  0  0  0  0
   18.2019   -9.5817    9.7739 C   0  0  0  0  0  0  0  0  0  0  0  0
   18.9463   -8.4972    9.6258 O   0  0  0  0  0  0  0  0  0  0  0  0
   18.9238   -8.2321    8.3487 C   0  0  0  0  0  0  0  0  0  0  0  0
   18.1569   -9.1677    7.7204 C   0  0  0  0  0  0  0  0  0  0  0  0
   17.6776  -10.0514    8.6120 N   0  0  0  0  0  0  0  0  0  0  0  0
   17.9465   -9.1452    6.3441 C   0  0  0  0  0  0  0  0  0  0  0  0
   18.5606   -8.1097    5.6138 C   0  0  0  0  0  0  0  0  0  0  0  0
   19.3553   -7.1408    6.2684 C   0  0  0  0  0  0  0  0  0  0  0  0
   19.5468   -7.1942    7.6620 C   0  0  0  0  0  0  0  0  0  0  0  0
  9 10  1  0  0  0
 10 11  2  0  0  0
 11  1  1  0  0  0
  1  2  1  0  0  0
  2  3  2  0  0  0
  3  4  1  0  0  0
  4  5  1  0  0  0
  5  6  2  0  0  0
  6 16  1  0  0  0
 16 17  2  0  0  0
 16 18  1  0  0  0
 18 20  1  0  0  0
 20 21  1  0  0  0
 21 22  1  0  0  0
 22 23  2  0  0  0
 23 24  1  0  0  0
 24 25  1  0  0  0
 24 26  1  0  0  0
  5  7  1  0  0  0
  3 27  1  0  0  0
 27 29  1  0  0  0
 29 30  1  0  0  0
 30 31  1  0  0  0
 31 32  2  0  0  0
 32 33  1  0  0  0
 32 34  1  0  0  0
 34 35  2  0  0  0
 35 36  1  0  0  0
 36 37  2  0  0  0
 11 12  1  0  0  0
 12 13  2  0  0  0
 13 14  1  0  0  0
 14 15  2  0  0  0
 15 10  1  0  0  0
  6  1  1  0  0  0
 25 21  2  0  0  0
 33 29  2  0  0  0
 37 31  1  0  0  0
  4  8  1  0  0  0
 18 19  1  0  0  0
 27 28  1  0  0  0
M  END
>  <minimizedAffinity>
5.57394

>  <minimizedRMSD>
2.66627

$$$$
CHEMBL5086000 PubChem-156898989


 38 42  0  0  0  0  0  0  0  0999 V2000
   17.5804   -8.9571   14.5471 C   0  0  0  0  0  0  0  0  0  0  0  0
   18.0724   -9.6215   13.3364 N   0  0  0  0  0  0  0  0  0  0  0  0
   17.4607   -9.5850   12.1924 C   0  0  0  0  0  0  0  0  0  0  0  0
   16.2071   -8.9149   12.0787 N   0  0  0  0  0  0  0  0  0  0  0  0
   15.5724   -8.3330   13.2183 C   0  0  0  0  0  0  0  0  0  0  0  0
   16.1840   -8.3643   14.4206 C   0  0  0  0  0  0  0  0  0  0  0  0
   14.2476   -7.6754   13.0122 C   0  0  0  0  0  0  0  0  0  0  0  0
   15.7709   -8.8522   11.1983 H   0  0  0  0  0  0  0  0  0  0  0  0
   15.3726  -11.1884   15.0739 Cl  0  0  0  0  0  0  0  0  0  0  0  0
   16.7964  -10.8780   16.0561 C   0  0  0  0  0  0  0  0  0  0  0  0
   17.7301   -9.8656   15.7374 C   0  0  0  0  0  0  0  0  0  0  0  0
   18.8438   -9.6758   16.5640 C   0  0  0  0  0  0  0  0  0  0  0  0
   19.0333  -10.4736   17.6946 C   0  0  0  0  0  0  0  0  0  0  0  0
   18.1083  -11.4706   18.0082 C   0  0  0  0  0  0  0  0  0  0  0  0
   16.9940  -11.6708   17.1910 C   0  0  0  0  0  0  0  0  0  0  0  0
   15.5672   -7.7808   15.6335 C   0  0  0  0  0  0  0  0  0  0  0  0
   16.3003   -7.2397   16.5053 O   0  0  0  0  0  0  0  0  0  0  0  0
   14.1608   -7.9089   15.8629 N   0  0  0  0  0  0  0  0  0  0  0  0
   13.5803   -8.1726   15.1128 H   0  0  0  0  0  0  0  0  0  0  0  0
   13.5565   -7.6639   17.1644 C   0  0  0  0  0  0  0  0  0  0  0  0
   14.6016   -7.7233   18.2271 C   0  0  0  0  0  0  0  0  0  0  0  0
   14.6418   -6.9569   19.3720 C   0  0  0  0  0  0  0  0  0  0  0  0
   15.7861   -7.2831   19.9947 N   0  0  0  0  0  0  0  0  0  0  0  0
   16.4619   -8.1879   19.3064 N   0  0  0  0  0  0  0  0  0  0  0  0
   15.7572   -8.4806   18.1960 C   0  0  0  0  0  0  0  0  0  0  0  0
   16.2422   -6.7203   21.2513 C   0  0  0  0  0  0  0  0  0  0  0  0
   18.0097  -10.2406   11.0446 N   0  0  0  0  0  0  0  0  0  0  0  0
   18.2456  -11.1923   11.1331 H   0  0  0  0  0  0  0  0  0  0  0  0
   18.2413   -9.6160    9.7782 C   0  0  0  0  0  0  0  0  0  0  0  0
   19.0818   -8.6096    9.5959 O   0  0  0  0  0  0  0  0  0  0  0  0
   19.0152   -8.3276    8.3240 C   0  0  0  0  0  0  0  0  0  0  0  0
   18.1245   -9.1736    7.7335 C   0  0  0  0  0  0  0  0  0  0  0  0
   17.6090  -10.0161    8.6444 N   0  0  0  0  0  0  0  0  0  0  0  0
   17.8417   -9.1127    6.3716 C   0  0  0  0  0  0  0  0  0  0  0  0
   18.5157   -8.1347    5.6154 C   0  0  0  0  0  0  0  0  0  0  0  0
   19.4393   -7.2580    6.2302 C   0  0  0  0  0  0  0  0  0  0  0  0
   20.0774   -6.3239    5.4854 F   0  0  0  0  0  0  0  0  0  0  0  0
   19.7005   -7.3488    7.6105 C   0  0  0  0  0  0  0  0  0  0  0  0
  9 10  1  0  0  0
 10 11  2  0  0  0
 11  1  1  0  0  0
  1  2  1  0  0  0
  2  3  2  0  0  0
  3  4  1  0  0  0
  4  5  1  0  0  0
  5  6  2  0  0  0
  6 16  1  0  0  0
 16 17  2  0  0  0
 16 18  1  0  0  0
 18 20  1  0  0  0
 20 21  1  0  0  0
 21 22  2  0  0  0
 22 23  1  0  0  0
 23 24  1  0  0  0
 24 25  2  0  0  0
 23 26  1  0  0  0
  5  7  1  0  0  0
  3 27  1  0  0  0
 27 29  1  0  0  0
 29 30  1  0  0  0
 30 31  1  0  0  0
 31 32  2  0  0  0
 32 33  1  0  0  0
 32 34  1  0  0  0
 34 35  2  0  0  0
 35 36  1  0  0  0
 36 37  1  0  0  0
 36 38  2  0  0  0
 11 12  1  0  0  0
 12 13  2  0  0  0
 13 14  1  0  0  0
 14 15  2  0  0  0
 15 10  1  0  0  0
  6  1  1  0  0  0
 25 21  1  0  0  0
 33 29  2  0  0  0
 38 31  1  0  0  0
  4  8  1  0  0  0
 18 19  1  0  0  0
 27 28  1  0  0  0
M  END
>  <minimizedAffinity>
5.37989

>  <minimizedRMSD>
2.67175

$$$$
CHEMBL439428 PubChem-44454632


 34 38  0  0  0  0  0  0  0  0999 V2000
   18.0077   -9.0981    9.6274 C   0  0  0  0  0  0  0  0  0  0  0  0
   17.5886   -8.7989    8.3205 C   0  0  0  0  0  0  0  0  0  0  0  0
   16.2273   -9.0679    8.2325 C   0  0  0  0  0  0  0  0  0  0  0  0
   15.8293   -9.5160    9.4329 N   0  0  0  0  0  0  0  0  0  0  0  0
   14.5897   -9.8440    9.7876 N   0  0  0  0  0  0  0  0  0  0  0  0
   14.3538  -10.2381   11.0692 C   0  0  0  0  0  0  0  0  0  0  0  0
   15.3845  -10.2960   11.9620 N   0  0  0  0  0  0  0  0  0  0  0  0
   16.6569   -9.9741   11.5962 C   0  0  0  0  0  0  0  0  0  0  0  0
   16.8695   -9.5515   10.2770 C   0  0  0  0  0  0  0  0  0  0  0  0
   18.3829   -8.2675    7.1994 C   0  0  0  0  0  0  0  0  0  0  0  0
   18.9251   -9.0030    6.2153 N   0  0  0  0  0  0  0  0  0  0  0  0
   19.5499   -8.1497    5.4205 N   0  0  0  0  0  0  0  0  0  0  0  0
   19.3731   -6.9180    5.9390 C   0  0  0  0  0  0  0  0  0  0  0  0
   18.6537   -6.9958    7.0347 O   0  0  0  0  0  0  0  0  0  0  0  0
   20.2255  -10.1543   10.0866 C   0  0  0  0  0  0  0  0  0  0  0  0
   19.3644   -8.9151   10.2433 C   0  0  0  0  0  0  0  0  0  0  0  0
   20.0684   -7.6887    9.6951 C   0  0  0  0  0  0  0  0  0  0  0  0
   17.7112  -10.0661   12.5582 N   0  0  0  0  0  0  0  0  0  0  0  0
   18.6334   -9.9660   12.2283 H   0  0  0  0  0  0  0  0  0  0  0  0
   17.5365  -10.2923   13.9641 C   0  0  0  0  0  0  0  0  0  0  0  0
   16.8479   -9.3292   14.7065 C   0  0  0  0  0  0  0  0  0  0  0  0
   16.6450   -9.4772   16.0865 C   0  0  0  0  0  0  0  0  0  0  0  0
   17.1453  -10.6299   16.7263 C   0  0  0  0  0  0  0  0  0  0  0  0
   16.9825  -10.8300   18.0576 F   0  0  0  0  0  0  0  0  0  0  0  0
   17.8199  -11.6036   15.9866 C   0  0  0  0  0  0  0  0  0  0  0  0
   18.0170  -11.4465   14.6138 C   0  0  0  0  0  0  0  0  0  0  0  0
   18.6549  -12.4303   13.9337 F   0  0  0  0  0  0  0  0  0  0  0  0
   15.9156   -8.4173   16.8201 C   0  0  0  0  0  0  0  0  0  0  0  0
   15.2955   -7.5259   16.1769 O   0  0  0  0  0  0  0  0  0  0  0  0
   15.9050   -8.3908   18.2498 N   0  0  0  0  0  0  0  0  0  0  0  0
   16.3955   -9.0881   18.7421 H   0  0  0  0  0  0  0  0  0  0  0  0
   15.1947   -7.3691   19.0006 C   0  0  0  0  0  0  0  0  0  0  0  0
   13.8454   -7.9100   19.4261 C   0  0  0  0  0  0  0  0  0  0  0  0
   14.9851   -7.8521   20.4203 C   0  0  0  0  0  0  0  0  0  0  0  0
 15 16  1  0  0  0
 16 17  1  0  0  0
 16  1  1  0  0  0
  1  2  1  0  0  0
  2 10  1  0  0  0
  2  3  2  0  0  0
 10 11  2  0  0  0
 11 12  1  0  0  0
 12 13  2  0  0  0
 13 14  1  0  0  0
 14 10  1  0  0  0
  3  4  1  0  0  0
  4  5  1  0  0  0
  5  6  2  0  0  0
  6  7  1  0  0  0
  7  8  2  0  0  0
  8 18  1  0  0  0
  8  9  1  0  0  0
 18 20  1  0  0  0
 20 21  2  0  0  0
 21 22  1  0  0  0
 22 28  1  0  0  0
 22 23  2  0  0  0
 28 29  2  0  0  0
 28 30  1  0  0  0
 30 32  1  0  0  0
 32 33  1  0  0  0
 33 34  1  0  0  0
 34 32  1  0  0  0
 23 24  1  0  0  0
 23 25  1  0  0  0
 25 26  2  0  0  0
 26 27  1  0  0  0
 26 20  1  0  0  0
  9  1  2  0  0  0
  9  4  1  0  0  0
 18 19  1  0  0  0
 30 31  1  0  0  0
M  END
>  <minimizedAffinity>
-6.45373

>  <minimizedRMSD>
2.67442

$$$$
CHEMBL5094623 PubChem-156898568


 37 41  0  0  0  0  0  0  0  0999 V2000
   17.5586   -8.9493   14.5566 C   0  0  0  0  0  0  0  0  0  0  0  0
   18.0418   -9.6068   13.3387 N   0  0  0  0  0  0  0  0  0  0  0  0
   17.4212   -9.5647   12.1996 C   0  0  0  0  0  0  0  0  0  0  0  0
   16.1662   -8.8953   12.0990 N   0  0  0  0  0  0  0  0  0  0  0  0
   15.5399   -8.3198   13.2465 C   0  0  0  0  0  0  0  0  0  0  0  0
   16.1606   -8.3569   14.4439 C   0  0  0  0  0  0  0  0  0  0  0  0
   14.2131   -7.6623   13.0541 C   0  0  0  0  0  0  0  0  0  0  0  0
   15.7232   -8.8284   11.2224 H   0  0  0  0  0  0  0  0  0  0  0  0
   15.3578  -11.1869   15.0867 Cl  0  0  0  0  0  0  0  0  0  0  0  0
   16.7880  -10.8795   16.0607 C   0  0  0  0  0  0  0  0  0  0  0  0
   17.7179   -9.8640   15.7409 C   0  0  0  0  0  0  0  0  0  0  0  0
   18.8370   -9.6770   16.5607 C   0  0  0  0  0  0  0  0  0  0  0  0
   19.0357  -10.4806   17.6855 C   0  0  0  0  0  0  0  0  0  0  0  0
   18.1143  -11.4806   18.0003 C   0  0  0  0  0  0  0  0  0  0  0  0
   16.9946  -11.6781   17.1899 C   0  0  0  0  0  0  0  0  0  0  0  0
   15.5527   -7.7803   15.6646 C   0  0  0  0  0  0  0  0  0  0  0  0
   16.2935   -7.2571   16.5408 O   0  0  0  0  0  0  0  0  0  0  0  0
   14.1456   -7.8954   15.8955 N   0  0  0  0  0  0  0  0  0  0  0  0
   13.5607   -8.1441   15.1437 H   0  0  0  0  0  0  0  0  0  0  0  0
   13.5465   -7.6582   17.2009 C   0  0  0  0  0  0  0  0  0  0  0  0
   14.5965   -7.7208   18.2586 C   0  0  0  0  0  0  0  0  0  0  0  0
   14.6626   -6.9318   19.3868 C   0  0  0  0  0  0  0  0  0  0  0  0
   15.8025   -7.2729   20.0096 N   0  0  0  0  0  0  0  0  0  0  0  0
   16.4517   -8.2081   19.3366 N   0  0  0  0  0  0  0  0  0  0  0  0
   15.7331   -8.5067   18.2368 C   0  0  0  0  0  0  0  0  0  0  0  0
   16.2799   -6.6951   21.2515 C   0  0  0  0  0  0  0  0  0  0  0  0
   17.9621  -10.2136   11.0441 N   0  0  0  0  0  0  0  0  0  0  0  0
   18.1874  -11.1688   11.1218 H   0  0  0  0  0  0  0  0  0  0  0  0
   18.2000   -9.5776    9.7845 C   0  0  0  0  0  0  0  0  0  0  0  0
   18.9439   -8.4929    9.6358 O   0  0  0  0  0  0  0  0  0  0  0  0
   18.9202   -8.2278    8.3587 C   0  0  0  0  0  0  0  0  0  0  0  0
   18.1531   -9.1636    7.7310 C   0  0  0  0  0  0  0  0  0  0  0  0
   17.6748  -10.0475    8.6230 N   0  0  0  0  0  0  0  0  0  0  0  0
   17.9415   -9.1412    6.3549 C   0  0  0  0  0  0  0  0  0  0  0  0
   18.5547   -8.1055    5.6241 C   0  0  0  0  0  0  0  0  0  0  0  0
   19.3497   -7.1364    6.2780 C   0  0  0  0  0  0  0  0  0  0  0  0
   19.5424   -7.1897    7.6715 C   0  0  0  0  0  0  0  0  0  0  0  0
  9 10  1  0  0  0
 10 11  2  0  0  0
 11  1  1  0  0  0
  1  2  1  0  0  0
  2  3  2  0  0  0
  3  4  1  0  0  0
  4  5  1  0  0  0
  5  6  2  0  0  0
  6 16  1  0  0  0
 16 17  2  0  0  0
 16 18  1  0  0  0
 18 20  1  0  0  0
 20 21  1  0  0  0
 21 22  2  0  0  0
 22 23  1  0  0  0
 23 24  1  0  0  0
 24 25  2  0  0  0
 23 26  1  0  0  0
  5  7  1  0  0  0
  3 27  1  0  0  0
 27 29  1  0  0  0
 29 30  1  0  0  0
 30 31  1  0  0  0
 31 32  2  0  0  0
 32 33  1  0  0  0
 32 34  1  0  0  0
 34 35  2  0  0  0
 35 36  1  0  0  0
 36 37  2  0  0  0
 11 12  1  0  0  0
 12 13  2  0  0  0
 13 14  1  0  0  0
 14 15  2  0  0  0
 15 10  1  0  0  0
  6  1  1  0  0  0
 25 21  1  0  0  0
 33 29  2  0  0  0
 37 31  1  0  0  0
  4  8  1  0  0  0
 18 19  1  0  0  0
 27 28  1  0  0  0
M  END
>  <minimizedAffinity>
5.51617

>  <minimizedRMSD>
2.67752

$$$$
CHEMBL283651


 26 29  0  0  0  0  0  0  0  0999 V2000
   16.6500   -9.6061   13.3475 C   0  0  0  0  0  0  0  0  0  0  0  0
   17.9370   -9.5264   12.7988 C   0  0  0  0  0  0  0  0  0  0  0  0
   18.1158   -9.4951   11.4136 C   0  0  0  0  0  0  0  0  0  0  0  0
   17.0111   -9.5337   10.5495 C   0  0  0  0  0  0  0  0  0  0  0  0
   15.7227   -9.5970   11.1017 C   0  0  0  0  0  0  0  0  0  0  0  0
   15.5437   -9.6281   12.4868 C   0  0  0  0  0  0  0  0  0  0  0  0
   17.1833   -9.5039    9.1190 N   0  0  0  0  0  0  0  0  0  0  0  0
   16.5067  -10.2611    8.2159 C   0  0  0  0  0  0  0  0  0  0  0  0
   16.8841  -10.0149    6.9333 N   0  0  0  0  0  0  0  0  0  0  0  0
   17.8298   -9.0687    7.0601 C   0  0  0  0  0  0  0  0  0  0  0  0
   18.5537   -8.4549    6.0408 C   0  0  0  0  0  0  0  0  0  0  0  0
   19.5011   -7.4835    6.4127 C   0  0  0  0  0  0  0  0  0  0  0  0
   19.6974   -7.1559    7.7724 C   0  0  0  0  0  0  0  0  0  0  0  0
   18.9485   -7.7960    8.7765 C   0  0  0  0  0  0  0  0  0  0  0  0
   18.0169   -8.7548    8.3736 C   0  0  0  0  0  0  0  0  0  0  0  0
   16.4731   -9.6043   14.8151 C   0  0  0  0  0  0  0  0  0  0  0  0
   15.6466   -8.8044   15.3316 O   0  0  0  0  0  0  0  0  0  0  0  0
   18.2357  -12.1285   13.9734 C   0  0  0  0  0  0  0  0  0  0  0  0
   17.9462  -11.6407   15.3510 C   0  0  0  0  0  0  0  0  0  0  0  0
   18.4976  -12.1805   16.4511 N   0  0  0  0  0  0  0  0  0  0  0  0
   18.0651  -11.3759   17.4432 C   0  0  0  0  0  0  0  0  0  0  0  0
   18.4050  -11.5763   18.7742 O   0  0  0  0  0  0  0  0  0  0  0  0
   17.2846  -10.3542   17.0358 N   0  0  0  0  0  0  0  0  0  0  0  0
   17.1993  -10.5321   15.7050 C   0  0  0  0  0  0  0  0  0  0  0  0
   19.0779  -12.9730   16.5170 H   0  0  0  0  0  0  0  0  0  0  0  0
   18.9503  -12.2993   19.0148 H   0  0  0  0  0  0  0  0  0  0  0  0
 18 19  1  0  0  0
 19 20  1  0  0  0
 20 21  1  0  0  0
 21 22  1  0  0  0
 21 23  2  0  0  0
 23 24  1  0  0  0
 24 16  1  0  0  0
 24 19  2  0  0  0
 16 17  2  0  0  0
 16  1  1  0  0  0
  1  2  2  0  0  0
  2  3  1  0  0  0
  3  4  2  0  0  0
  4  7  1  0  0  0
  4  5  1  0  0  0
  7  8  1  0  0  0
  8  9  2  0  0  0
  9 10  1  0  0  0
 10 11  2  0  0  0
 11 12  1  0  0  0
 12 13  2  0  0  0
 13 14  1  0  0  0
 14 15  2  0  0  0
 15  7  1  0  0  0
 15 10  1  0  0  0
  5  6  2  0  0  0
  6  1  1  0  0  0
 20 25  1  0  0  0
 22 26  1  0  0  0
M  END
>  <minimizedAffinity>
-6.91639

>  <minimizedRMSD>
2.67768

$$$$
CHEMBL283651


 26 29  0  0  0  0  0  0  0  0999 V2000
   16.6498   -9.6061   13.3476 C   0  0  0  0  0  0  0  0  0  0  0  0
   15.5435   -9.6281   12.4869 C   0  0  0  0  0  0  0  0  0  0  0  0
   15.7226   -9.5969   11.1018 C   0  0  0  0  0  0  0  0  0  0  0  0
   17.0111   -9.5336   10.5496 C   0  0  0  0  0  0  0  0  0  0  0  0
   18.1156   -9.4950   11.4137 C   0  0  0  0  0  0  0  0  0  0  0  0
   17.9367   -9.5263   12.7990 C   0  0  0  0  0  0  0  0  0  0  0  0
   17.1833   -9.5039    9.1191 N   0  0  0  0  0  0  0  0  0  0  0  0
   16.5068  -10.2611    8.2160 C   0  0  0  0  0  0  0  0  0  0  0  0
   16.8841  -10.0151    6.9334 N   0  0  0  0  0  0  0  0  0  0  0  0
   17.8299   -9.0689    7.0601 C   0  0  0  0  0  0  0  0  0  0  0  0
   18.5538   -8.4551    6.0409 C   0  0  0  0  0  0  0  0  0  0  0  0
   19.5012   -7.4835    6.4127 C   0  0  0  0  0  0  0  0  0  0  0  0
   19.6973   -7.1559    7.7725 C   0  0  0  0  0  0  0  0  0  0  0  0
   18.9484   -7.7959    8.7766 C   0  0  0  0  0  0  0  0  0  0  0  0
   18.0168   -8.7548    8.3736 C   0  0  0  0  0  0  0  0  0  0  0  0
   16.4729   -9.6043   14.8152 C   0  0  0  0  0  0  0  0  0  0  0  0
   15.6466   -8.8043   15.3318 O   0  0  0  0  0  0  0  0  0  0  0  0
   18.2355  -12.1285   13.9733 C   0  0  0  0  0  0  0  0  0  0  0  0
   17.9461  -11.6407   15.3510 C   0  0  0  0  0  0  0  0  0  0  0  0
   18.4977  -12.1804   16.4510 N   0  0  0  0  0  0  0  0  0  0  0  0
   18.0652  -11.3760   17.4431 C   0  0  0  0  0  0  0  0  0  0  0  0
   18.4052  -11.5764   18.7741 O   0  0  0  0  0  0  0  0  0  0  0  0
   17.2845  -10.3543   17.0358 N   0  0  0  0  0  0  0  0  0  0  0  0
   17.1991  -10.5322   15.7050 C   0  0  0  0  0  0  0  0  0  0  0  0
   19.0782  -12.9728   16.5168 H   0  0  0  0  0  0  0  0  0  0  0  0
   18.9505  -12.2994   19.0146 H   0  0  0  0  0  0  0  0  0  0  0  0
 18 19  1  0  0  0
 19 20  1  0  0  0
 20 21  1  0  0  0
 21 22  1  0  0  0
 21 23  2  0  0  0
 23 24  1  0  0  0
 24 16  1  0  0  0
 24 19  2  0  0  0
 16 17  2  0  0  0
 16  1  1  0  0  0
  1  2  2  0  0  0
  2  3  1  0  0  0
  3  4  2  0  0  0
  4  7  1  0  0  0
  4  5  1  0  0  0
  7  8  1  0  0  0
  8  9  2  0  0  0
  9 10  1  0  0  0
 10 11  2  0  0  0
 11 12  1  0  0  0
 12 13  2  0  0  0
 13 14  1  0  0  0
 14 15  2  0  0  0
 15  7  1  0  0  0
 15 10  1  0  0  0
  5  6  2  0  0  0
  6  1  1  0  0  0
 20 25  1  0  0  0
 22 26  1  0  0  0
M  END
>  <minimizedAffinity>
-6.91669

>  <minimizedRMSD>
2.67779

$$$$
CHEMBL1445818 8607113 ChemDiv-G357-1280 MCULE-4445101629 MolPort-007-847-478 PubChem-16027472 ZINC000008607113 ZINC08607113


 36 40  0  0  0  0  0  0  0  0999 V2000
   16.3054   -8.7853   16.9250 C   0  0  0  0  0  0  0  0  0  0  0  0
   16.2394   -8.2199   15.6432 C   0  0  0  0  0  0  0  0  0  0  0  0
   16.7615   -8.9031   14.5415 C   0  0  0  0  0  0  0  0  0  0  0  0
   17.3548  -10.1615   14.7057 C   0  0  0  0  0  0  0  0  0  0  0  0
   17.4220  -10.7259   15.9874 C   0  0  0  0  0  0  0  0  0  0  0  0
   16.9021  -10.0396   17.0892 C   0  0  0  0  0  0  0  0  0  0  0  0
   14.4800   -7.5307   18.2138 C   0  0  0  0  0  0  0  0  0  0  0  0
   13.6209   -7.6351   17.2994 O   0  0  0  0  0  0  0  0  0  0  0  0
   15.7835   -8.1119   18.0787 N   0  0  0  0  0  0  0  0  0  0  0  0
   16.3815   -8.0416   18.8576 H   0  0  0  0  0  0  0  0  0  0  0  0
   14.1139   -6.8407   19.4835 C   0  0  0  0  0  0  0  0  0  0  0  0
   14.3775   -7.6904   20.5957 O   0  0  0  0  0  0  0  0  0  0  0  0
   17.8267   -6.2429   24.7105 F   0  0  0  0  0  0  0  0  0  0  0  0
   16.9805   -6.5975   23.7136 C   0  0  0  0  0  0  0  0  0  0  0  0
   15.7712   -7.2288   24.0160 C   0  0  0  0  0  0  0  0  0  0  0  0
   14.8985   -7.5971   22.9875 C   0  0  0  0  0  0  0  0  0  0  0  0
   15.2303   -7.3341   21.6479 C   0  0  0  0  0  0  0  0  0  0  0  0
   16.4456   -6.7045   21.3529 C   0  0  0  0  0  0  0  0  0  0  0  0
   17.3183   -6.3372   22.3825 C   0  0  0  0  0  0  0  0  0  0  0  0
   17.9030  -10.8747   13.5410 C   0  0  0  0  0  0  0  0  0  0  0  0
   18.2677  -12.0779   13.6493 O   0  0  0  0  0  0  0  0  0  0  0  0
   18.0210  -10.2101   12.3187 O   0  0  0  0  0  0  0  0  0  0  0  0
   16.8884   -9.7438   11.6007 C   0  0  0  0  0  0  0  0  0  0  0  0
   17.2808   -9.4523   10.1966 C   0  0  0  0  0  0  0  0  0  0  0  0
   16.6367  -10.1153    9.1387 C   0  0  0  0  0  0  0  0  0  0  0  0
   16.9963   -9.7928    7.8252 C   0  0  0  0  0  0  0  0  0  0  0  0
   16.4426  -10.3726    6.8552 O   0  0  0  0  0  0  0  0  0  0  0  0
   17.9462   -8.8418    7.6203 N   0  0  0  0  0  0  0  0  0  0  0  0
   18.3690   -8.4355    6.4258 N   0  0  0  0  0  0  0  0  0  0  0  0
   19.3177   -7.4661    6.5185 C   0  0  0  0  0  0  0  0  0  0  0  0
   19.6603   -7.0773    8.1338 S   0  0  0  0  0  0  0  0  0  0  0  0
   18.5405   -8.2135    8.6554 C   0  0  0  0  0  0  0  0  0  0  0  0
   18.2229   -8.5000    9.9414 N   0  0  0  0  0  0  0  0  0  0  0  0
   19.9780   -6.7970    5.3507 C   0  0  0  0  0  0  0  0  0  0  0  0
   20.1503   -7.7886    4.2157 C   0  0  0  0  0  0  0  0  0  0  0  0
   21.3432   -7.3928    5.0601 C   0  0  0  0  0  0  0  0  0  0  0  0
 13 14  1  0  0  0
 14 15  2  0  0  0
 15 16  1  0  0  0
 16 17  2  0  0  0
 17 12  1  0  0  0
 17 18  1  0  0  0
 12 11  1  0  0  0
 11  7  1  0  0  0
  7  8  2  0  0  0
  7  9  1  0  0  0
  9  1  1  0  0  0
  1  2  2  0  0  0
  2  3  1  0  0  0
  3  4  2  0  0  0
  4  5  1  0  0  0
  4 20  1  0  0  0
  5  6  2  0  0  0
  6  1  1  0  0  0
 20 21  2  0  0  0
 20 22  1  0  0  0
 22 23  1  0  0  0
 23 24  1  0  0  0
 24 25  2  0  0  0
 25 26  1  0  0  0
 26 27  2  0  0  0
 26 28  1  0  0  0
 28 29  1  0  0  0
 29 30  2  0  0  0
 30 31  1  0  0  0
 30 34  1  0  0  0
 31 32  1  0  0  0
 32 33  2  0  0  0
 32 28  1  0  0  0
 33 24  1  0  0  0
 34 35  1  0  0  0
 35 36  1  0  0  0
 36 34  1  0  0  0
 18 19  2  0  0  0
 19 14  1  0  0  0
  9 10  1  0  0  0
M  END
>  <minimizedAffinity>
-8.63067

>  <minimizedRMSD>
2.67972

$$$$
CHEMBL45446 PubChem-44291263


 34 37  0  0  0  0  0  0  0  0999 V2000
   17.4217  -10.0159   12.9293 C   0  0  0  0  0  0  0  0  0  0  0  0
   18.3813  -10.7525   13.6321 C   0  0  0  0  0  0  0  0  0  0  0  0
   18.2758  -10.9132   15.0165 C   0  0  0  0  0  0  0  0  0  0  0  0
   17.2049  -10.3391   15.7088 C   0  0  0  0  0  0  0  0  0  0  0  0
   16.2445   -9.5971   15.0140 C   0  0  0  0  0  0  0  0  0  0  0  0
   16.3516   -9.4380   13.6296 C   0  0  0  0  0  0  0  0  0  0  0  0
   16.5423  -10.0051   10.5146 C   0  0  0  0  0  0  0  0  0  0  0  0
   15.3647  -10.2966   10.8615 O   0  0  0  0  0  0  0  0  0  0  0  0
   17.5682   -9.8720   11.5101 N   0  0  0  0  0  0  0  0  0  0  0  0
   18.4716   -9.6585   11.1824 H   0  0  0  0  0  0  0  0  0  0  0  0
   16.8448   -9.8155    9.0683 C   0  0  0  0  0  0  0  0  0  0  0  0
   17.8325   -8.9264    8.5694 C   0  0  0  0  0  0  0  0  0  0  0  0
   18.0297   -8.8366    7.1671 C   0  0  0  0  0  0  0  0  0  0  0  0
   17.2818   -9.5899    6.3206 N   0  0  0  0  0  0  0  0  0  0  0  0
   16.3316  -10.4431    6.7780 C   0  0  0  0  0  0  0  0  0  0  0  0
   16.1008  -10.5668    8.1466 C   0  0  0  0  0  0  0  0  0  0  0  0
   18.9938   -7.9695    6.6443 C   0  0  0  0  0  0  0  0  0  0  0  0
   19.7689   -7.1831    7.4983 C   0  0  0  0  0  0  0  0  0  0  0  0
   19.5826   -7.2597    8.8795 C   0  0  0  0  0  0  0  0  0  0  0  0
   18.6216   -8.1241    9.4093 C   0  0  0  0  0  0  0  0  0  0  0  0
   17.1145  -10.4821   17.1911 C   0  0  0  0  0  0  0  0  0  0  0  0
   17.2020   -9.1228   17.8751 C   0  0  0  0  0  0  0  0  0  0  0  0
   16.0161   -8.3322   17.5778 N   0  0  0  0  0  0  0  0  0  0  0  0
   15.1492   -7.8509   18.6097 C   0  0  0  0  0  0  0  0  0  0  0  0
   15.4191   -8.0742   19.8198 O   0  0  0  0  0  0  0  0  0  0  0  0
   15.8044   -8.1226   16.6394 H   0  0  0  0  0  0  0  0  0  0  0  0
   13.8973   -7.1013   18.2706 C   0  0  0  0  0  0  0  0  0  0  0  0
   12.6756   -7.9982   18.3439 C   0  0  0  0  0  0  0  0  0  0  0  0
   12.1692   -7.2118   19.5375 C   0  0  0  0  0  0  0  0  0  0  0  0
   13.3940   -6.3203   19.4695 C   0  0  0  0  0  0  0  0  0  0  0  0
   18.4227   -8.3941   17.4224 C   0  0  0  0  0  0  0  0  0  0  0  0
   18.7156   -8.3314   16.1986 O   0  0  0  0  0  0  0  0  0  0  0  0
   19.2389   -7.7750   18.3589 O   0  0  0  0  0  0  0  0  0  0  0  0
   19.0241   -7.8195   19.2699 H   0  0  0  0  0  0  0  0  0  0  0  0
  7  8  2  0  0  0
  7 11  1  0  0  0
 11 12  2  0  0  0
 12 13  1  0  0  0
 13 14  2  0  0  0
 14 15  1  0  0  0
 15 16  2  0  0  0
 13 17  1  0  0  0
 17 18  2  0  0  0
 18 19  1  0  0  0
 19 20  2  0  0  0
  7  9  1  0  0  0
  9  1  1  0  0  0
  1  2  2  0  0  0
  2  3  1  0  0  0
  3  4  2  0  0  0
  4 21  1  0  0  0
 22 21  1  0  0  0
 22 23  1  0  0  0
 23 24  1  0  0  0
 24 25  2  0  0  0
 24 27  1  0  0  0
 27 28  1  0  0  0
 28 29  1  0  0  0
 29 30  1  0  0  0
 22 31  1  0  0  0
 31 32  2  0  0  0
 31 33  1  0  0  0
  4  5  1  0  0  0
  5  6  2  0  0  0
 16 11  1  0  0  0
  6  1  1  0  0  0
 20 12  1  0  0  0
 30 27  1  0  0  0
  9 10  1  0  0  0
 23 26  1  0  0  0
 33 34  1  0  0  0
M  END
>  <minimizedAffinity>
-3.58994

>  <minimizedRMSD>
2.68034

$$$$
CHEMBL1165182 PubChem-46907287


 38 42  0  0  0  0  0  0  0  0999 V2000
   16.4771  -10.6063    9.9702 C   0  0  0  0  0  0  0  0  0  0  0  0
   16.1882  -10.2193   11.3402 N   0  0  0  0  0  0  0  0  0  0  0  0
   17.2067  -10.1558   12.3407 C   0  0  0  0  0  0  0  0  0  0  0  0
   18.3982  -10.4414   12.0446 O   0  0  0  0  0  0  0  0  0  0  0  0
   15.2622   -9.9938   11.5870 H   0  0  0  0  0  0  0  0  0  0  0  0
   16.8527   -9.7548   13.7161 C   0  0  0  0  0  0  0  0  0  0  0  0
   17.2039  -10.4153   14.8427 N   0  0  0  0  0  0  0  0  0  0  0  0
   16.7002   -9.7490   15.8943 C   0  0  0  0  0  0  0  0  0  0  0  0
   16.0223   -8.6522   15.4079 C   0  0  0  0  0  0  0  0  0  0  0  0
   16.1037   -8.6320   14.0249 C   0  0  0  0  0  0  0  0  0  0  0  0
   17.9876  -11.6351   14.9485 C   0  0  0  0  0  0  0  0  0  0  0  0
   15.3469   -7.6974   16.2344 N   0  0  0  0  0  0  0  0  0  0  0  0
   15.1898   -7.7883   17.6545 C   0  0  0  0  0  0  0  0  0  0  0  0
   15.6637   -8.7684   18.2921 O   0  0  0  0  0  0  0  0  0  0  0  0
   14.9573   -6.9113   15.7878 H   0  0  0  0  0  0  0  0  0  0  0  0
   14.4999   -6.7684   18.3240 O   0  0  0  0  0  0  0  0  0  0  0  0
   13.2131   -6.9193   18.9289 C   0  0  0  0  0  0  0  0  0  0  0  0
   12.2876   -7.7220   18.0308 C   0  0  0  0  0  0  0  0  0  0  0  0
   12.6095   -5.5459   19.1325 C   0  0  0  0  0  0  0  0  0  0  0  0
   13.3318   -7.5972   20.2831 C   0  0  0  0  0  0  0  0  0  0  0  0
   15.8889   -9.5805    9.0217 C   0  0  0  0  0  0  0  0  0  0  0  0
   18.2860   -8.5762    2.5732 C   0  0  0  0  0  0  0  0  0  0  0  0
   19.5630   -8.0296    2.4039 C   0  0  0  0  0  0  0  0  0  0  0  0
   20.3334   -7.6737    3.5160 C   0  0  0  0  0  0  0  0  0  0  0  0
   19.8317   -7.8616    4.8096 C   0  0  0  0  0  0  0  0  0  0  0  0
   18.5287   -8.4190    4.9724 C   0  0  0  0  0  0  0  0  0  0  0  0
   18.0328   -8.6012    6.3454 C   0  0  0  0  0  0  0  0  0  0  0  0
   18.8017   -8.2484    7.3971 C   0  0  0  0  0  0  0  0  0  0  0  0
   20.0661   -7.7146    7.3629 C   0  0  0  0  0  0  0  0  0  0  0  0
   20.6488   -7.4875    6.0170 C   0  0  0  0  0  0  0  0  0  0  0  0
   21.8024   -6.9950    5.8929 O   0  0  0  0  0  0  0  0  0  0  0  0
   20.6761   -7.4546    8.6067 C   0  0  0  0  0  0  0  0  0  0  0  0
   19.9722   -7.7546    9.8090 C   0  0  0  0  0  0  0  0  0  0  0  0
   18.6670   -8.3136    9.7756 C   0  0  0  0  0  0  0  0  0  0  0  0
   18.1140   -8.5452    8.5140 C   0  0  0  0  0  0  0  0  0  0  0  0
   16.9271   -9.0716    8.1404 N   0  0  0  0  0  0  0  0  0  0  0  0
   16.8672   -9.1202    6.8048 N   0  0  0  0  0  0  0  0  0  0  0  0
   17.7666   -8.7720    3.8562 C   0  0  0  0  0  0  0  0  0  0  0  0
 22 23  2  0  0  0
 23 24  1  0  0  0
 24 25  2  0  0  0
 25 26  1  0  0  0
 26 27  1  0  0  0
 27 28  1  0  0  0
 28 29  2  0  0  0
 29 30  1  0  0  0
 30 31  2  0  0  0
 29 32  1  0  0  0
 32 33  2  0  0  0
 33 34  1  0  0  0
 34 35  2  0  0  0
 35 36  1  0  0  0
 36 37  1  0  0  0
 36 21  1  0  0  0
 21  1  1  0  0  0
  1  2  1  0  0  0
  2  3  1  0  0  0
  3  4  2  0  0  0
  3  6  1  0  0  0
  6  7  1  0  0  0
  7  8  1  0  0  0
  8  9  2  0  0  0
  9 10  1  0  0  0
  9 12  1  0  0  0
 12 13  1  0  0  0
 13 14  2  0  0  0
 13 16  1  0  0  0
 16 17  1  0  0  0
 17 18  1  0  0  0
 17 19  1  0  0  0
 17 20  1  0  0  0
  7 11  1  0  0  0
 26 38  2  0  0  0
 38 22  1  0  0  0
 30 25  1  0  0  0
 10  6  2  0  0  0
 37 27  2  0  0  0
 35 28  1  0  0  0
  2  5  1  0  0  0
 12 15  1  0  0  0
M  END
>  <minimizedAffinity>
-5.96400

>  <minimizedRMSD>
2.69135

$$$$
CHEMBL1395810 8607154 ChemDiv-G357-0270 MCULE-5020119775 MolPort-007-847-120 PubChem-16027488 ZINC000008607154


 33 36  0  0  0  0  0  0  0  0999 V2000
   17.3749   -9.0559   15.4234 C   0  0  0  0  0  0  0  0  0  0  0  0
   18.6070   -9.1758   15.6703 O   0  0  0  0  0  0  0  0  0  0  0  0
   16.4563   -8.5795   16.4698 C   0  0  0  0  0  0  0  0  0  0  0  0
   16.8072   -8.6722   17.8237 C   0  0  0  0  0  0  0  0  0  0  0  0
   15.9305   -8.2177   18.8129 C   0  0  0  0  0  0  0  0  0  0  0  0
   14.6938   -7.6657   18.4640 C   0  0  0  0  0  0  0  0  0  0  0  0
   14.3424   -7.5728   17.1092 C   0  0  0  0  0  0  0  0  0  0  0  0
   15.2179   -8.0266   16.1191 C   0  0  0  0  0  0  0  0  0  0  0  0
   13.8221   -7.2109   19.5079 N   0  0  0  0  0  0  0  0  0  0  0  0
   12.6682   -6.3742   19.3583 C   0  0  0  0  0  0  0  0  0  0  0  0
   12.3128   -5.9501   18.2249 O   0  0  0  0  0  0  0  0  0  0  0  0
   14.0389   -7.5040   20.4224 H   0  0  0  0  0  0  0  0  0  0  0  0
   11.8811   -6.0066   20.5723 C   0  0  0  0  0  0  0  0  0  0  0  0
   11.4895   -4.5196   20.5447 C   0  0  0  0  0  0  0  0  0  0  0  0
   12.4215   -3.6754   21.4113 C   0  0  0  0  0  0  0  0  0  0  0  0
   12.3861   -4.1288   22.8770 C   0  0  0  0  0  0  0  0  0  0  0  0
   12.1372   -5.6337   23.0519 C   0  0  0  0  0  0  0  0  0  0  0  0
   12.6298   -6.4269   21.8454 C   0  0  0  0  0  0  0  0  0  0  0  0
   16.8766   -9.3738   14.1579 O   0  0  0  0  0  0  0  0  0  0  0  0
   17.4380  -10.4120   13.3684 C   0  0  0  0  0  0  0  0  0  0  0  0
   17.2877   -9.2601    9.3148 N   0  0  0  0  0  0  0  0  0  0  0  0
   16.2387   -9.9650    9.8151 C   0  0  0  0  0  0  0  0  0  0  0  0
   15.2503  -10.2555    9.0902 O   0  0  0  0  0  0  0  0  0  0  0  0
   16.2715  -10.3640   11.1558 C   0  0  0  0  0  0  0  0  0  0  0  0
   17.3915  -10.0262   11.9334 C   0  0  0  0  0  0  0  0  0  0  0  0
   18.4164   -9.3103   11.3902 N   0  0  0  0  0  0  0  0  0  0  0  0
   18.3477   -8.9424   10.0875 C   0  0  0  0  0  0  0  0  0  0  0  0
   19.5010   -8.0677    9.2367 S   0  0  0  0  0  0  0  0  0  0  0  0
   18.5313   -8.1436    7.8394 C   0  0  0  0  0  0  0  0  0  0  0  0
   17.3789   -8.8208    8.0618 N   0  0  0  0  0  0  0  0  0  0  0  0
   18.8757   -7.5487    6.5141 C   0  0  0  0  0  0  0  0  0  0  0  0
   18.3915   -8.4402    5.3873 C   0  0  0  0  0  0  0  0  0  0  0  0
   20.3724   -7.3348    6.3980 C   0  0  0  0  0  0  0  0  0  0  0  0
 21 22  1  0  0  0
 22 23  2  0  0  0
 22 24  1  0  0  0
 24 25  2  0  0  0
 25 26  1  0  0  0
 26 27  2  0  0  0
 27 28  1  0  0  0
 28 29  1  0  0  0
 29 31  1  0  0  0
 31 32  1  0  0  0
 31 33  1  0  0  0
 29 30  2  0  0  0
 25 20  1  0  0  0
 20 19  1  0  0  0
 19  1  1  0  0  0
  1  2  2  0  0  0
  1  3  1  0  0  0
  3  4  2  0  0  0
  4  5  1  0  0  0
  5  6  2  0  0  0
  6  7  1  0  0  0
  7  8  2  0  0  0
  6  9  1  0  0  0
  9 10  1  0  0  0
 10 13  1  0  0  0
 13 14  1  0  0  0
 14 15  1  0  0  0
 15 16  1  0  0  0
 16 17  1  0  0  0
 17 18  1  0  0  0
 10 11  2  0  0  0
 27 21  1  0  0  0
  8  3  1  0  0  0
 18 13  1  0  0  0
 30 21  1  0  0  0
  9 12  1  0  0  0
M  END
>  <minimizedAffinity>
-7.15026

>  <minimizedRMSD>
2.69356

$$$$
CHEMBL2235539 PubChem-25108332


 28 31  0  0  0  0  0  0  0  0999 V2000
   16.9686   -9.2303   14.1447 C   0  0  0  0  0  0  0  0  0  0  0  0
   15.6405   -9.2658   13.9296 N   0  0  0  0  0  0  0  0  0  0  0  0
   15.4811   -9.6651   12.6776 N   0  0  0  0  0  0  0  0  0  0  0  0
   16.7187   -9.8582   12.1851 C   0  0  0  0  0  0  0  0  0  0  0  0
   17.6393   -9.5890   13.0777 O   0  0  0  0  0  0  0  0  0  0  0  0
   17.7198   -8.7468   15.6941 S   0  0  0  0  0  0  0  0  0  0  0  0
   16.3751   -9.4626   16.6895 C   0  0  0  0  0  0  0  0  0  0  0  0
   15.1436   -7.4353   16.7871 O   0  0  0  0  0  0  0  0  0  0  0  0
   15.6494   -8.3931   17.4289 C   0  0  0  0  0  0  0  0  0  0  0  0
   15.5578   -8.4627   18.8579 N   0  0  0  0  0  0  0  0  0  0  0  0
   15.9800   -9.2399   19.2902 H   0  0  0  0  0  0  0  0  0  0  0  0
   14.9142   -7.5164   19.7225 C   0  0  0  0  0  0  0  0  0  0  0  0
   15.5527   -7.1491   20.9128 C   0  0  0  0  0  0  0  0  0  0  0  0
   14.9580   -6.2275   21.7798 C   0  0  0  0  0  0  0  0  0  0  0  0
   13.7174   -5.6682   21.4613 C   0  0  0  0  0  0  0  0  0  0  0  0
   12.9070   -4.4117   22.6422 Br  0  0  0  0  0  0  0  0  0  0  0  0
   13.0717   -6.0307   20.2766 C   0  0  0  0  0  0  0  0  0  0  0  0
   13.6681   -6.9511   19.4099 C   0  0  0  0  0  0  0  0  0  0  0  0
   17.0024  -10.2902   10.7882 C   0  0  0  0  0  0  0  0  0  0  0  0
   17.9966   -9.4127   10.1899 N   0  0  0  0  0  0  0  0  0  0  0  0
   19.0985   -8.9860   10.7986 N   0  0  0  0  0  0  0  0  0  0  0  0
   19.7791   -8.1478   10.0166 N   0  0  0  0  0  0  0  0  0  0  0  0
   19.0634   -8.0464    8.8809 C   0  0  0  0  0  0  0  0  0  0  0  0
   19.3292   -7.2850    7.7474 C   0  0  0  0  0  0  0  0  0  0  0  0
   18.3921   -7.3541    6.6967 C   0  0  0  0  0  0  0  0  0  0  0  0
   17.2371   -8.1651    6.8103 C   0  0  0  0  0  0  0  0  0  0  0  0
   17.0014   -8.9208    7.9755 C   0  0  0  0  0  0  0  0  0  0  0  0
   17.9547   -8.8271    8.9866 C   0  0  0  0  0  0  0  0  0  0  0  0
  8  9  2  0  0  0
  9  7  1  0  0  0
  9 10  1  0  0  0
  7  6  1  0  0  0
  6  1  1  0  0  0
  1  2  2  0  0  0
  2  3  1  0  0  0
  3  4  2  0  0  0
  4 19  1  0  0  0
  4  5  1  0  0  0
 19 20  1  0  0  0
 20 21  1  0  0  0
 21 22  2  0  0  0
 22 23  1  0  0  0
 23 24  2  0  0  0
 24 25  1  0  0  0
 25 26  2  0  0  0
 26 27  1  0  0  0
 27 28  2  0  0  0
 28 20  1  0  0  0
 28 23  1  0  0  0
  5  1  1  0  0  0
 10 12  1  0  0  0
 12 13  2  0  0  0
 13 14  1  0  0  0
 14 15  2  0  0  0
 15 16  1  0  0  0
 15 17  1  0  0  0
 17 18  2  0  0  0
 18 12  1  0  0  0
 10 11  1  0  0  0
M  END
>  <minimizedAffinity>
-7.62969

>  <minimizedRMSD>
2.69382

$$$$
CHEMBL1271529 PubChem-52946970


 32 35  0  0  0  0  0  0  0  0999 V2000
   18.5472  -10.1515    9.3634 C   0  0  0  0  0  0  0  0  0  0  0  0
   17.9158   -9.2611    8.3962 N   0  0  0  0  0  0  0  0  0  0  0  0
   16.6993   -8.6651    8.4768 C   0  0  0  0  0  0  0  0  0  0  0  0
   16.4226   -7.8557    7.4204 N   0  0  0  0  0  0  0  0  0  0  0  0
   17.5358   -7.9538    6.6689 C   0  0  0  0  0  0  0  0  0  0  0  0
   17.8016   -7.3156    5.4602 C   0  0  0  0  0  0  0  0  0  0  0  0
   19.0467   -7.5687    4.8538 C   0  0  0  0  0  0  0  0  0  0  0  0
   19.9796   -8.4393    5.4616 C   0  0  0  0  0  0  0  0  0  0  0  0
   19.6800   -9.0694    6.6836 C   0  0  0  0  0  0  0  0  0  0  0  0
   18.4375   -8.7956    7.2537 C   0  0  0  0  0  0  0  0  0  0  0  0
   15.7268   -8.9044    9.5837 C   0  0  0  0  0  0  0  0  0  0  0  0
   15.0822  -10.1995    9.4074 N   0  0  0  0  0  0  0  0  0  0  0  0
   15.8235  -11.2098   10.1833 C   0  0  0  0  0  0  0  0  0  0  0  0
   15.3528  -11.3279   11.6412 C   0  0  0  0  0  0  0  0  0  0  0  0
   14.6212  -10.1947   12.0186 O   0  0  0  0  0  0  0  0  0  0  0  0
   13.4219  -10.2775   11.2991 C   0  0  0  0  0  0  0  0  0  0  0  0
   13.6674  -10.0713    9.7951 C   0  0  0  0  0  0  0  0  0  0  0  0
   18.8245   -9.4182   10.6378 C   0  0  0  0  0  0  0  0  0  0  0  0
   19.2328   -8.2271   10.5787 O   0  0  0  0  0  0  0  0  0  0  0  0
   17.7821   -9.9502   14.2373 C   0  0  0  0  0  0  0  0  0  0  0  0
   17.9961   -9.3539   12.9888 C   0  0  0  0  0  0  0  0  0  0  0  0
   18.6101  -10.0624   11.9476 C   0  0  0  0  0  0  0  0  0  0  0  0
   19.0163  -11.3841   12.1699 C   0  0  0  0  0  0  0  0  0  0  0  0
   18.8083  -11.9886   13.4107 C   0  0  0  0  0  0  0  0  0  0  0  0
   18.1929  -11.2817   14.4471 C   0  0  0  0  0  0  0  0  0  0  0  0
   17.9597  -12.1029   15.9832 Cl  0  0  0  0  0  0  0  0  0  0  0  0
   18.0960   -8.7979   16.8278 N   0  0  0  0  0  0  0  0  0  0  0  0
   17.0038   -9.0078   15.5062 S   0  0  0  0  0  0  0  0  0  0  0  0
   15.7660   -9.7176   15.9770 O   0  0  0  0  0  0  0  0  0  0  0  0
   16.6182   -7.6560   14.9737 O   0  0  0  0  0  0  0  0  0  0  0  0
   17.6424   -8.2520   17.5604 H   0  0  0  0  0  0  0  0  0  0  0  0
   18.9300   -8.3071   16.5051 H   0  0  0  0  0  0  0  0  0  0  0  0
 27 28  1  0  0  0
 28 29  2  0  0  0
 28 30  2  0  0  0
 28 20  1  0  0  0
 20 21  2  0  0  0
 21 22  1  0  0  0
 22 18  1  0  0  0
 22 23  2  0  0  0
 18 19  2  0  0  0
 18  1  1  0  0  0
  1  2  1  0  0  0
  2  3  1  0  0  0
  3 11  1  0  0  0
  3  4  2  0  0  0
 11 12  1  0  0  0
 12 13  1  0  0  0
 13 14  1  0  0  0
 14 15  1  0  0  0
 15 16  1  0  0  0
 16 17  1  0  0  0
 17 12  1  0  0  0
  4  5  1  0  0  0
  5  6  2  0  0  0
  6  7  1  0  0  0
  7  8  2  0  0  0
  8  9  1  0  0  0
  9 10  2  0  0  0
 10  2  1  0  0  0
 10  5  1  0  0  0
 23 24  1  0  0  0
 24 25  2  0  0  0
 25 26  1  0  0  0
 25 20  1  0  0  0
 27 31  1  0  0  0
 27 32  1  0  0  0
M  END
>  <minimizedAffinity>
4.36074

>  <minimizedRMSD>
2.69696

$$$$
CHEMBL1486216 LN00729741 MolPort-002-649-957


 35 38  0  0  0  0  0  0  0  0999 V2000
   18.0345  -10.2719   12.5133 N   0  0  0  0  0  0  0  0  0  0  0  0
   18.9498   -9.4733   13.7599 S   0  0  0  0  0  0  0  0  0  0  0  0
   20.0310  -10.3909   14.2603 O   0  0  0  0  0  0  0  0  0  0  0  0
   19.6032   -8.2443   13.1912 O   0  0  0  0  0  0  0  0  0  0  0  0
   16.2595   -8.2967   17.2571 C   0  0  0  0  0  0  0  0  0  0  0  0
   17.5316   -8.8302   17.4914 C   0  0  0  0  0  0  0  0  0  0  0  0
   18.3576   -9.1866   16.4216 C   0  0  0  0  0  0  0  0  0  0  0  0
   17.9171   -9.0100   15.1060 C   0  0  0  0  0  0  0  0  0  0  0  0
   16.6459   -8.4789   14.8650 C   0  0  0  0  0  0  0  0  0  0  0  0
   15.8211   -8.1231   15.9354 C   0  0  0  0  0  0  0  0  0  0  0  0
   13.4280   -7.0660   19.6137 C   0  0  0  0  0  0  0  0  0  0  0  0
   14.1300   -7.3679   18.3395 C   0  0  0  0  0  0  0  0  0  0  0  0
   13.5606   -7.1130   17.2457 O   0  0  0  0  0  0  0  0  0  0  0  0
   15.4417   -7.9437   18.3811 N   0  0  0  0  0  0  0  0  0  0  0  0
   15.8205   -8.1146   19.2736 H   0  0  0  0  0  0  0  0  0  0  0  0
   17.2152  -11.2952   13.1452 C   0  0  0  0  0  0  0  0  0  0  0  0
   17.9957  -11.9793   14.2538 C   0  0  0  0  0  0  0  0  0  0  0  0
   17.1905  -11.9575   15.5303 C   0  0  0  0  0  0  0  0  0  0  0  0
   17.4379  -13.3066   16.1342 C   0  0  0  0  0  0  0  0  0  0  0  0
   18.3450  -13.9917   15.1390 C   0  0  0  0  0  0  0  0  0  0  0  0
   18.2498  -13.3163   13.9141 O   0  0  0  0  0  0  0  0  0  0  0  0
   17.1117   -9.3060   11.9315 C   0  0  0  0  0  0  0  0  0  0  0  0
   17.2856   -9.2384   10.4486 C   0  0  0  0  0  0  0  0  0  0  0  0
   16.4440   -9.9467    9.5733 C   0  0  0  0  0  0  0  0  0  0  0  0
   15.4148  -10.7386   10.0685 O   0  0  0  0  0  0  0  0  0  0  0  0
   16.6312   -9.8581    8.2282 N   0  0  0  0  0  0  0  0  0  0  0  0
   17.6182   -9.0911    7.6939 C   0  0  0  0  0  0  0  0  0  0  0  0
   17.7847   -9.0223    6.3080 C   0  0  0  0  0  0  0  0  0  0  0  0
   18.8010   -8.2287    5.7654 C   0  0  0  0  0  0  0  0  0  0  0  0
   18.9778   -8.1563    4.2919 C   0  0  0  0  0  0  0  0  0  0  0  0
   19.6513   -7.5025    6.6070 C   0  0  0  0  0  0  0  0  0  0  0  0
   19.4900   -7.5666    7.9949 C   0  0  0  0  0  0  0  0  0  0  0  0
   18.4766   -8.3583    8.5408 C   0  0  0  0  0  0  0  0  0  0  0  0
   18.3002   -8.4367    9.9209 C   0  0  0  0  0  0  0  0  0  0  0  0
   15.2785  -10.8055   10.9931 H   0  0  0  0  0  0  0  0  0  0  0  0
 11 12  1  0  0  0
 12 13  2  0  0  0
 12 14  1  0  0  0
 14  5  1  0  0  0
  5  6  2  0  0  0
  6  7  1  0  0  0
  7  8  2  0  0  0
  8  9  1  0  0  0
  8  2  1  0  0  0
  9 10  2  0  0  0
 10  5  1  0  0  0
  2  3  2  0  0  0
  2  4  2  0  0  0
  2  1  1  0  0  0
  1 16  1  0  0  0
  1 22  1  0  0  0
 17 16  1  0  0  0
 17 18  1  0  0  0
 18 19  1  0  0  0
 19 20  1  0  0  0
 20 21  1  0  0  0
 21 17  1  0  0  0
 22 23  1  0  0  0
 23 24  2  0  0  0
 24 25  1  0  0  0
 24 26  1  0  0  0
 26 27  2  0  0  0
 27 28  1  0  0  0
 28 29  2  0  0  0
 29 30  1  0  0  0
 29 31  1  0  0  0
 31 32  2  0  0  0
 32 33  1  0  0  0
 33 34  2  0  0  0
 33 27  1  0  0  0
 34 23  1  0  0  0
 14 15  1  0  0  0
 25 35  1  0  0  0
M  END
>  <minimizedAffinity>
-1.62641

>  <minimizedRMSD>
2.69755

$$$$
CHEMBL4446722 PubChem-56592816


 34 38  0  0  0  0  0  0  0  0999 V2000
   16.6075  -10.2161   15.9572 N   0  0  0  0  0  0  0  0  0  0  0  0
   16.0976   -9.5561   14.9069 C   0  0  0  0  0  0  0  0  0  0  0  0
   16.0450   -9.9718   13.6247 N   0  0  0  0  0  0  0  0  0  0  0  0
   15.5253   -9.1183   12.6873 C   0  0  0  0  0  0  0  0  0  0  0  0
   15.0781   -7.8762   13.0579 N   0  0  0  0  0  0  0  0  0  0  0  0
   15.1332   -7.4505   14.3513 C   0  0  0  0  0  0  0  0  0  0  0  0
   15.6669   -8.3272   15.2857 C   0  0  0  0  0  0  0  0  0  0  0  0
   15.8827   -8.1660   16.6026 N   0  0  0  0  0  0  0  0  0  0  0  0
   16.4719   -9.3315   16.9809 C   0  0  0  0  0  0  0  0  0  0  0  0
   16.8506   -9.5702   18.1564 O   0  0  0  0  0  0  0  0  0  0  0  0
   15.4944   -9.5231   11.2636 C   0  0  0  0  0  0  0  0  0  0  0  0
   14.4468  -10.1822   10.6323 C   0  0  0  0  0  0  0  0  0  0  0  0
   14.8086  -10.4527    9.3543 N   0  0  0  0  0  0  0  0  0  0  0  0
   16.0569   -9.9598    9.2469 C   0  0  0  0  0  0  0  0  0  0  0  0
   16.4964   -9.3895   10.3774 N   0  0  0  0  0  0  0  0  0  0  0  0
   17.7213   -8.8119   10.4997 C   0  0  0  0  0  0  0  0  0  0  0  0
   18.5694   -8.8267    9.3822 C   0  0  0  0  0  0  0  0  0  0  0  0
   18.1302   -9.4247    8.1861 C   0  0  0  0  0  0  0  0  0  0  0  0
   16.8516  -10.0003    8.1037 C   0  0  0  0  0  0  0  0  0  0  0  0
   19.8707   -8.2254    9.4534 C   0  0  0  0  0  0  0  0  0  0  0  0
   20.9205   -7.7400    9.5129 N   0  0  0  0  0  0  0  0  0  0  0  0
   17.7427  -11.9058   14.5773 C   0  0  0  0  0  0  0  0  0  0  0  0
   18.7060  -13.1049   14.6287 C   0  0  0  0  0  0  0  0  0  0  0  0
   18.6357  -13.7670   15.8839 O   0  0  0  0  0  0  0  0  0  0  0  0
   19.1899  -12.8710   16.8228 C   0  0  0  0  0  0  0  0  0  0  0  0
   18.2175  -11.7197   17.0941 C   0  0  0  0  0  0  0  0  0  0  0  0
   17.1817  -11.5561   15.9618 C   0  0  0  0  0  0  0  0  0  0  0  0
   15.4941   -7.0371   17.4490 C   0  0  0  0  0  0  0  0  0  0  0  0
   14.1849   -7.3246   18.1869 C   0  0  0  0  0  0  0  0  0  0  0  0
   13.4655   -8.3275   17.5299 O   0  0  0  0  0  0  0  0  0  0  0  0
   13.9823   -9.1484   17.5291 H   0  0  0  0  0  0  0  0  0  0  0  0
   14.4260   -7.7341   19.6319 C   0  0  0  0  0  0  0  0  0  0  0  0
   15.7664   -7.5100   19.9745 O   0  0  0  0  0  0  0  0  0  0  0  0
   16.3403   -8.0360   19.3959 H   0  0  0  0  0  0  0  0  0  0  0  0
 22 23  1  0  0  0
 23 24  1  0  0  0
 24 25  1  0  0  0
 25 26  1  0  0  0
 26 27  1  0  0  0
 27  1  1  0  0  0
 27 22  1  0  0  0
  1  2  1  0  0  0
  2  3  2  0  0  0
  3  4  1  0  0  0
  4  5  2  0  0  0
  4 11  1  0  0  0
  5  6  1  0  0  0
  6  7  2  0  0  0
  7  8  1  0  0  0
  7  2  1  0  0  0
  8  9  1  0  0  0
  8 28  1  0  0  0
  9 10  2  0  0  0
  9  1  1  0  0  0
 29 28  1  0  0  0
 29 32  1  0  0  0
 29 30  1  0  0  0
 32 33  1  0  0  0
 11 12  2  0  0  0
 12 13  1  0  0  0
 13 14  2  0  0  0
 14 15  1  0  0  0
 15 16  1  0  0  0
 15 11  1  0  0  0
 16 17  2  0  0  0
 17 18  1  0  0  0
 17 20  1  0  0  0
 18 19  2  0  0  0
 19 14  1  0  0  0
 20 21  3  0  0  0
 33 34  1  0  0  0
 30 31  1  0  0  0
M  END
>  <minimizedAffinity>
5.12969

>  <minimizedRMSD>
2.69756

$$$$
CHEMBL14100 PubChem-10407614


 29 32  0  0  0  0  0  0  0  0999 V2000
   16.4725   -8.9404   10.6143 C   0  0  0  0  0  0  0  0  0  0  0  0
   17.6741   -9.1767   11.5358 C   0  0  0  0  0  0  0  0  0  0  0  0
   17.2604   -9.2787   13.0092 C   0  0  0  0  0  0  0  0  0  0  0  0
   15.9627   -8.6406   13.2251 N   0  0  0  0  0  0  0  0  0  0  0  0
   14.9323   -9.4540   12.5737 C   0  0  0  0  0  0  0  0  0  0  0  0
   15.2362   -9.7076   11.0866 C   0  0  0  0  0  0  0  0  0  0  0  0
   16.2366  -10.2822    8.4860 N   0  0  0  0  0  0  0  0  0  0  0  0
   16.8123   -9.2867    9.2033 C   0  0  0  0  0  0  0  0  0  0  0  0
   17.7614   -8.6780    8.4191 C   0  0  0  0  0  0  0  0  0  0  0  0
   17.7093   -9.3488    7.2322 C   0  0  0  0  0  0  0  0  0  0  0  0
   16.7993  -10.2891    7.3052 O   0  0  0  0  0  0  0  0  0  0  0  0
   18.5337   -9.0177    6.1607 C   0  0  0  0  0  0  0  0  0  0  0  0
   19.4362   -7.9523    6.3462 C   0  0  0  0  0  0  0  0  0  0  0  0
   19.4883   -7.2601    7.5787 C   0  0  0  0  0  0  0  0  0  0  0  0
   18.6398   -7.6213    8.6423 C   0  0  0  0  0  0  0  0  0  0  0  0
   20.2611   -7.5867    5.3356 F   0  0  0  0  0  0  0  0  0  0  0  0
   15.6898   -8.6749   14.6538 C   0  0  0  0  0  0  0  0  0  0  0  0
   15.4624  -10.1072   15.1093 C   0  0  0  0  0  0  0  0  0  0  0  0
   15.7636  -10.2396   16.5931 C   0  0  0  0  0  0  0  0  0  0  0  0
   17.0147  -10.8907   16.7837 O   0  0  0  0  0  0  0  0  0  0  0  0
   17.9280  -11.1165   15.7450 C   0  0  0  0  0  0  0  0  0  0  0  0
   18.9031  -10.1459   15.4617 C   0  0  0  0  0  0  0  0  0  0  0  0
   19.8201  -10.3652   14.4219 C   0  0  0  0  0  0  0  0  0  0  0  0
   19.7672  -11.5399   13.6681 C   0  0  0  0  0  0  0  0  0  0  0  0
   18.7980  -12.5046   13.9471 C   0  0  0  0  0  0  0  0  0  0  0  0
   17.8822  -12.2945   14.9799 C   0  0  0  0  0  0  0  0  0  0  0  0
   18.9510   -8.9448   16.2386 N   0  0  0  0  0  0  0  0  0  0  0  0
   20.1356   -8.1059   16.3313 C   0  0  0  0  0  0  0  0  0  0  0  0
   18.1442   -8.6737   16.7335 H   0  0  0  0  0  0  0  0  0  0  0  0
  7  8  2  0  0  0
  8  9  1  0  0  0
  9 10  2  0  0  0
 10 11  1  0  0  0
 10 12  1  0  0  0
 12 13  2  0  0  0
 13 14  1  0  0  0
 14 15  2  0  0  0
 13 16  1  0  0  0
  8  1  1  0  0  0
  1  2  1  0  0  0
  2  3  1  0  0  0
  3  4  1  0  0  0
  4  5  1  0  0  0
  5  6  1  0  0  0
  4 17  1  0  0  0
 17 18  1  0  0  0
 18 19  1  0  0  0
 19 20  1  0  0  0
 20 21  1  0  0  0
 21 22  2  0  0  0
 22 27  1  0  0  0
 27 28  1  0  0  0
 22 23  1  0  0  0
 23 24  2  0  0  0
 24 25  1  0  0  0
 25 26  2  0  0  0
 11  7  1  0  0  0
  6  1  1  0  0  0
 26 21  1  0  0  0
 15  9  1  0  0  0
 27 29  1  0  0  0
M  END
>  <minimizedAffinity>
-4.29569

>  <minimizedRMSD>
2.69968

$$$$
CHEMBL3593311 PubChem-122181817


 36 39  0  0  0  0  0  0  0  0999 V2000
   15.2256   -7.8143   18.4101 C   0  0  0  0  0  0  0  0  0  0  0  0
   16.3401   -8.6597   18.3108 C   0  0  0  0  0  0  0  0  0  0  0  0
   16.6881   -9.2294   17.0829 C   0  0  0  0  0  0  0  0  0  0  0  0
   15.9226   -8.9607   15.9436 C   0  0  0  0  0  0  0  0  0  0  0  0
   14.8121   -8.1162   16.0352 C   0  0  0  0  0  0  0  0  0  0  0  0
   14.4645   -7.5457   17.2627 C   0  0  0  0  0  0  0  0  0  0  0  0
   15.7344   -7.3573   20.8319 N   0  0  0  0  0  0  0  0  0  0  0  0
   14.8609   -7.2123   19.7044 C   0  0  0  0  0  0  0  0  0  0  0  0
   13.7613   -6.6065   19.8289 O   0  0  0  0  0  0  0  0  0  0  0  0
   16.4701   -8.0067   20.7537 H   0  0  0  0  0  0  0  0  0  0  0  0
   18.0253   -6.0476   22.0816 N   0  0  0  0  0  0  0  0  0  0  0  0
   16.7243   -5.9769   22.6569 C   0  0  0  0  0  0  0  0  0  0  0  0
   16.5597   -5.3021   23.8709 C   0  0  0  0  0  0  0  0  0  0  0  0
   15.3158   -5.2846   24.5059 C   0  0  0  0  0  0  0  0  0  0  0  0
   14.2323   -5.9554   23.9358 C   0  0  0  0  0  0  0  0  0  0  0  0
   13.0294   -5.9511   24.5584 F   0  0  0  0  0  0  0  0  0  0  0  0
   14.3893   -6.6327   22.7239 C   0  0  0  0  0  0  0  0  0  0  0  0
   15.6233   -6.6331   22.0637 C   0  0  0  0  0  0  0  0  0  0  0  0
   18.7794   -5.5827   22.5111 H   0  0  0  0  0  0  0  0  0  0  0  0
   18.1705   -6.5613   21.2544 H   0  0  0  0  0  0  0  0  0  0  0  0
   16.3031   -9.5569   14.6306 C   0  0  0  0  0  0  0  0  0  0  0  0
   17.4022  -10.4978   14.8035 N   0  0  0  0  0  0  0  0  0  0  0  0
   18.2848  -10.9464   13.7645 C   0  0  0  0  0  0  0  0  0  0  0  0
   19.3593  -11.5128   14.0918 O   0  0  0  0  0  0  0  0  0  0  0  0
   17.5518  -10.8556   15.7084 H   0  0  0  0  0  0  0  0  0  0  0  0
   17.9946  -10.7927   12.3277 C   0  0  0  0  0  0  0  0  0  0  0  0
   17.4428   -9.7071   11.7977 C   0  0  0  0  0  0  0  0  0  0  0  0
   17.1753   -9.5773   10.3591 C   0  0  0  0  0  0  0  0  0  0  0  0
   16.1205  -10.1735    9.6810 C   0  0  0  0  0  0  0  0  0  0  0  0
   16.1857   -9.8239    8.3680 N   0  0  0  0  0  0  0  0  0  0  0  0
   17.2710   -9.0293    8.2907 C   0  0  0  0  0  0  0  0  0  0  0  0
   17.7636   -8.4098    7.1484 C   0  0  0  0  0  0  0  0  0  0  0  0
   18.9128   -7.6184    7.2987 C   0  0  0  0  0  0  0  0  0  0  0  0
   19.5125   -7.4813    8.5654 C   0  0  0  0  0  0  0  0  0  0  0  0
   18.9713   -8.1204    9.6414 N   0  0  0  0  0  0  0  0  0  0  0  0
   17.8806   -8.8650    9.4682 N   0  0  0  0  0  0  0  0  0  0  0  0
 11 12  1  0  0  0
 12 13  2  0  0  0
 13 14  1  0  0  0
 14 15  2  0  0  0
 15 16  1  0  0  0
 15 17  1  0  0  0
 17 18  2  0  0  0
 18  7  1  0  0  0
  7  8  1  0  0  0
  8  9  2  0  0  0
  8  1  1  0  0  0
  1  2  2  0  0  0
  2  3  1  0  0  0
  3  4  2  0  0  0
  4 21  1  0  0  0
 21 22  1  0  0  0
 22 23  1  0  0  0
 23 24  2  0  0  0
 23 26  1  0  0  0
 26 27  2  0  0  0
 27 28  1  0  0  0
 28 29  2  0  0  0
 29 30  1  0  0  0
 30 31  2  0  0  0
 31 32  1  0  0  0
 32 33  2  0  0  0
 33 34  1  0  0  0
 34 35  2  0  0  0
 35 36  1  0  0  0
  4  5  1  0  0  0
  5  6  2  0  0  0
 18 12  1  0  0  0
  6  1  1  0  0  0
 36 28  1  0  0  0
 36 31  1  0  0  0
 11 19  1  0  0  0
 11 20  1  0  0  0
  7 10  1  0  0  0
 22 25  1  0  0  0
M  END
>  <minimizedAffinity>
-8.57550

>  <minimizedRMSD>
2.70062

$$$$
CHEMBL2170980 PubChem-70677814


 37 40  0  0  0  0  0  0  0  0999 V2000
   18.0158   -8.7321   12.0550 C   0  0  0  0  0  0  0  0  0  0  0  0
   18.7349   -9.8156   12.5984 O   0  0  0  0  0  0  0  0  0  0  0  0
   17.8358  -10.5202   13.4150 C   0  0  0  0  0  0  0  0  0  0  0  0
   16.4465  -10.3131   12.8738 C   0  0  0  0  0  0  0  0  0  0  0  0
   15.5074  -10.3548   13.9083 O   0  0  0  0  0  0  0  0  0  0  0  0
   16.5245   -8.9550   12.2279 C   0  0  0  0  0  0  0  0  0  0  0  0
   16.0136   -7.9587   13.0646 O   0  0  0  0  0  0  0  0  0  0  0  0
   15.7320   -9.6880   14.5760 H   0  0  0  0  0  0  0  0  0  0  0  0
   16.4983   -7.9622   13.9048 H   0  0  0  0  0  0  0  0  0  0  0  0
   18.5513   -8.6655    6.0096 N   0  0  0  0  0  0  0  0  0  0  0  0
   17.9008   -9.0691    7.2093 C   0  0  0  0  0  0  0  0  0  0  0  0
   16.7929   -9.8673    7.1681 N   0  0  0  0  0  0  0  0  0  0  0  0
   16.1581  -10.2632    8.3190 C   0  0  0  0  0  0  0  0  0  0  0  0
   16.6236   -9.8643    9.5418 N   0  0  0  0  0  0  0  0  0  0  0  0
   17.7228   -9.0720    9.5719 C   0  0  0  0  0  0  0  0  0  0  0  0
   18.3654   -8.6709    8.4547 C   0  0  0  0  0  0  0  0  0  0  0  0
   19.4216   -7.8982    8.7708 N   0  0  0  0  0  0  0  0  0  0  0  0
   19.3808   -7.8567   10.1336 C   0  0  0  0  0  0  0  0  0  0  0  0
   18.3466   -8.5712   10.6446 N   0  0  0  0  0  0  0  0  0  0  0  0
   18.2030   -8.9608    5.1374 H   0  0  0  0  0  0  0  0  0  0  0  0
   19.3497   -8.0909    6.0519 H   0  0  0  0  0  0  0  0  0  0  0  0
   18.1752  -11.9985   13.4064 C   0  0  0  0  0  0  0  0  0  0  0  0
   18.8740  -12.4838   15.0126 S   0  0  0  0  0  0  0  0  0  0  0  0
   17.3462  -12.0761   15.9164 C   0  0  0  0  0  0  0  0  0  0  0  0
   17.6273  -11.0854   17.0335 C   0  0  0  0  0  0  0  0  0  0  0  0
   18.3795   -9.8770   16.5011 C   0  0  0  0  0  0  0  0  0  0  0  0
   17.5406   -8.6918   16.5944 N   0  0  0  0  0  0  0  0  0  0  0  0
   16.1134   -8.7654   16.6446 C   0  0  0  0  0  0  0  0  0  0  0  0
   15.5228   -9.8730   16.5307 O   0  0  0  0  0  0  0  0  0  0  0  0
   17.9713   -7.8070   16.6241 H   0  0  0  0  0  0  0  0  0  0  0  0
   15.3175   -7.5266   16.8729 C   0  0  0  0  0  0  0  0  0  0  0  0
   14.6454   -7.5819   18.2025 C   0  0  0  0  0  0  0  0  0  0  0  0
   13.2500   -7.5055   18.2884 C   0  0  0  0  0  0  0  0  0  0  0  0
   12.6202   -7.5829   19.5345 C   0  0  0  0  0  0  0  0  0  0  0  0
   13.3838   -7.7408   20.6957 C   0  0  0  0  0  0  0  0  0  0  0  0
   14.7773   -7.8224   20.6108 C   0  0  0  0  0  0  0  0  0  0  0  0
   15.4078   -7.7454   19.3652 C   0  0  0  0  0  0  0  0  0  0  0  0
 10 11  1  0  0  0
 11 12  2  0  0  0
 12 13  1  0  0  0
 13 14  2  0  0  0
 14 15  1  0  0  0
 15 16  2  0  0  0
 16 17  1  0  0  0
 16 11  1  0  0  0
 17 18  2  0  0  0
 18 19  1  0  0  0
 19 15  1  0  0  0
  1 19  1  0  0  0
  1  2  1  0  0  0
  2  3  1  0  0  0
  3 22  1  0  0  0
  3  4  1  0  0  0
 22 23  1  0  0  0
 23 24  1  0  0  0
 24 25  1  0  0  0
 25 26  1  0  0  0
 26 27  1  0  0  0
 27 28  1  0  0  0
 28 29  2  0  0  0
 28 31  1  0  0  0
 31 32  1  0  0  0
 32 33  2  0  0  0
 33 34  1  0  0  0
 34 35  2  0  0  0
 35 36  1  0  0  0
 36 37  2  0  0  0
 37 32  1  0  0  0
  4  5  1  0  0  0
  4  6  1  0  0  0
  6  7  1  0  0  0
  6  1  1  0  0  0
 10 20  1  0  0  0
 10 21  1  0  0  0
 27 30  1  0  0  0
  5  8  1  0  0  0
  7  9  1  0  0  0
M  END
>  <minimizedAffinity>
-3.15275

>  <minimizedRMSD>
2.70392

$$$$
CHEMBL4516048 PubChem-155540196


 36 38  0  0  0  0  0  0  0  0999 V2000
   17.2658   -8.3010   15.2123 C   0  0  0  0  0  0  0  0  0  0  0  0
   15.9937   -8.7305   15.9328 C   0  0  0  0  0  0  0  0  0  0  0  0
   16.2463   -8.9794   17.4153 C   0  0  0  0  0  0  0  0  0  0  0  0
   15.5556   -8.0919   19.6760 N   0  0  0  0  0  0  0  0  0  0  0  0
   15.4972   -7.9989   18.2516 C   0  0  0  0  0  0  0  0  0  0  0  0
   14.7969   -7.1124   17.6947 O   0  0  0  0  0  0  0  0  0  0  0  0
   16.1821   -8.7337   20.0820 H   0  0  0  0  0  0  0  0  0  0  0  0
   14.7259   -7.2759   20.5520 C   0  0  0  0  0  0  0  0  0  0  0  0
   11.0233   -6.3601   18.5830 C   0  0  0  0  0  0  0  0  0  0  0  0
   11.3480   -7.6966   18.8634 C   0  0  0  0  0  0  0  0  0  0  0  0
   12.5585   -7.9873   19.5148 C   0  0  0  0  0  0  0  0  0  0  0  0
   13.4314   -6.9562   19.8828 C   0  0  0  0  0  0  0  0  0  0  0  0
   13.1022   -5.6278   19.5940 C   0  0  0  0  0  0  0  0  0  0  0  0
   11.8997   -5.3306   18.9467 C   0  0  0  0  0  0  0  0  0  0  0  0
    9.8300   -6.0498   17.9418 O   0  0  0  0  0  0  0  0  0  0  0  0
    9.2388   -6.7339   17.6956 H   0  0  0  0  0  0  0  0  0  0  0  0
   10.4616   -8.7126   18.4865 O   0  0  0  0  0  0  0  0  0  0  0  0
   10.5721  -10.0472   18.9656 C   0  0  0  0  0  0  0  0  0  0  0  0
   18.4655   -9.1124   15.6827 C   0  0  0  0  0  0  0  0  0  0  0  0
   19.0064   -9.9948   14.5649 C   0  0  0  0  0  0  0  0  0  0  0  0
   17.8996  -10.8395   13.9498 C   0  0  0  0  0  0  0  0  0  0  0  0
   17.8686  -10.6485   12.5076 N   0  0  0  0  0  0  0  0  0  0  0  0
   16.7422  -10.0676   11.8452 C   0  0  0  0  0  0  0  0  0  0  0  0
   15.7342   -9.7055   12.5103 O   0  0  0  0  0  0  0  0  0  0  0  0
   18.6461  -10.9275   11.9720 H   0  0  0  0  0  0  0  0  0  0  0  0
   16.7536   -9.8834   10.3872 C   0  0  0  0  0  0  0  0  0  0  0  0
   15.8322  -10.4111    9.5441 N   0  0  0  0  0  0  0  0  0  0  0  0
   16.2058  -10.0080    8.3001 C   0  0  0  0  0  0  0  0  0  0  0  0
   17.3210   -9.2552    8.3576 N   0  0  0  0  0  0  0  0  0  0  0  0
   17.6615   -9.1773    9.6375 C   0  0  0  0  0  0  0  0  0  0  0  0
   18.7591   -8.4912   10.0275 N   0  0  0  0  0  0  0  0  0  0  0  0
   19.4920   -7.8841    9.0868 N   0  0  0  0  0  0  0  0  0  0  0  0
   19.1613   -7.9473    7.7875 N   0  0  0  0  0  0  0  0  0  0  0  0
   18.0520   -8.6464    7.3976 C   0  0  0  0  0  0  0  0  0  0  0  0
   17.7176   -8.7251    6.1831 O   0  0  0  0  0  0  0  0  0  0  0  0
   19.9964   -7.2623    6.8132 C   0  0  0  0  0  0  0  0  0  0  0  0
  9 10  2  0  0  0
 10 11  1  0  0  0
 11 12  2  0  0  0
 12 13  1  0  0  0
 13 14  2  0  0  0
 12  8  1  0  0  0
  8  4  1  0  0  0
  4  5  1  0  0  0
  5  6  2  0  0  0
  5  3  1  0  0  0
  3  2  1  0  0  0
  2  1  1  0  0  0
  1 19  1  0  0  0
 19 20  1  0  0  0
 20 21  1  0  0  0
 21 22  1  0  0  0
 22 23  1  0  0  0
 23 24  2  0  0  0
 23 26  1  0  0  0
 26 27  1  0  0  0
 27 28  2  0  0  0
 28 29  1  0  0  0
 29 30  1  0  0  0
 30 31  1  0  0  0
 31 32  2  0  0  0
 32 33  1  0  0  0
 33 34  1  0  0  0
 34 35  2  0  0  0
 33 36  1  0  0  0
 10 17  1  0  0  0
 17 18  1  0  0  0
  9 15  1  0  0  0
 14  9  1  0  0  0
 30 26  2  0  0  0
 34 29  1  0  0  0
  4  7  1  0  0  0
 22 25  1  0  0  0
 15 16  1  0  0  0
M  END
>  <minimizedAffinity>
-7.19899

>  <minimizedRMSD>
2.70652

$$$$
CHEMBL185279 PubChem-18002736


 35 38  0  0  0  0  0  0  0  0999 V2000
   19.0329  -10.7471   12.8985 C   0  0  0  0  0  0  0  0  0  0  0  0
   19.2966   -9.7058   13.7942 C   0  0  0  0  0  0  0  0  0  0  0  0
   18.9569   -9.8328   15.1441 C   0  0  0  0  0  0  0  0  0  0  0  0
   18.3534  -11.0057   15.6086 C   0  0  0  0  0  0  0  0  0  0  0  0
   18.0832  -12.0488   14.7169 C   0  0  0  0  0  0  0  0  0  0  0  0
   18.4211  -11.9209   13.3674 C   0  0  0  0  0  0  0  0  0  0  0  0
   17.8993  -11.1486   17.2975 S   0  0  0  0  0  0  0  0  0  0  0  0
   19.0468  -11.7268   18.0767 O   0  0  0  0  0  0  0  0  0  0  0  0
   16.7140  -12.0639   17.4303 O   0  0  0  0  0  0  0  0  0  0  0  0
   17.4906   -9.5430   17.9483 C   0  0  0  0  0  0  0  0  0  0  0  0
   16.0603   -9.1865   17.5902 C   0  0  0  0  0  0  0  0  0  0  0  0
   15.5009   -8.3101   18.6077 N   0  0  0  0  0  0  0  0  0  0  0  0
   14.5814   -7.4317   17.9006 C   0  0  0  0  0  0  0  0  0  0  0  0
   15.0872   -7.2801   16.4826 C   0  0  0  0  0  0  0  0  0  0  0  0
   16.0234   -8.4458   16.2689 C   0  0  0  0  0  0  0  0  0  0  0  0
   16.2390   -7.7673   19.0558 H   0  0  0  0  0  0  0  0  0  0  0  0
   15.5320   -9.3345   15.1713 C   0  0  0  0  0  0  0  0  0  0  0  0
   14.8931  -10.3890   15.4378 O   0  0  0  0  0  0  0  0  0  0  0  0
   15.7936   -8.9799   13.8159 N   0  0  0  0  0  0  0  0  0  0  0  0
   15.3579   -9.7586   12.7983 O   0  0  0  0  0  0  0  0  0  0  0  0
   16.2978   -8.1580   13.6173 H   0  0  0  0  0  0  0  0  0  0  0  0
   14.8823  -10.5239   13.1575 H   0  0  0  0  0  0  0  0  0  0  0  0
   19.3805  -10.5858   11.5531 O   0  0  0  0  0  0  0  0  0  0  0  0
   19.4030   -9.3225   10.8946 C   0  0  0  0  0  0  0  0  0  0  0  0
   14.6860  -10.3397    9.6540 C   0  0  0  0  0  0  0  0  0  0  0  0
   15.9998   -9.7377    9.3089 C   0  0  0  0  0  0  0  0  0  0  0  0
   17.0523   -9.7952   10.2240 C   0  0  0  0  0  0  0  0  0  0  0  0
   18.2878   -9.2303    9.8986 C   0  0  0  0  0  0  0  0  0  0  0  0
   18.4548   -8.6089    8.6473 C   0  0  0  0  0  0  0  0  0  0  0  0
   19.6729   -8.0247    8.2681 C   0  0  0  0  0  0  0  0  0  0  0  0
   19.8026   -7.4164    7.0164 C   0  0  0  0  0  0  0  0  0  0  0  0
   18.7183   -7.3863    6.1349 C   0  0  0  0  0  0  0  0  0  0  0  0
   17.4994   -7.9640    6.5011 C   0  0  0  0  0  0  0  0  0  0  0  0
   17.3607   -8.5743    7.7509 C   0  0  0  0  0  0  0  0  0  0  0  0
   16.1736   -9.1349    8.1029 N   0  0  0  0  0  0  0  0  0  0  0  0
 25 26  1  0  0  0
 26 27  2  0  0  0
 27 28  1  0  0  0
 28 24  1  0  0  0
 28 29  2  0  0  0
 24 23  1  0  0  0
 23  1  1  0  0  0
  1  2  2  0  0  0
  2  3  1  0  0  0
  3  4  2  0  0  0
  4  7  1  0  0  0
  4  5  1  0  0  0
  7  8  2  0  0  0
  7  9  2  0  0  0
  7 10  1  0  0  0
 11 10  1  0  0  0
 11 12  1  0  0  0
 12 13  1  0  0  0
 13 14  1  0  0  0
 14 15  1  0  0  0
 15 17  1  0  0  0
 15 11  1  0  0  0
 17 18  2  0  0  0
 17 19  1  0  0  0
 19 20  1  0  0  0
  5  6  2  0  0  0
  6  1  1  0  0  0
 29 30  1  0  0  0
 30 31  2  0  0  0
 31 32  1  0  0  0
 32 33  2  0  0  0
 33 34  1  0  0  0
 34 35  2  0  0  0
 34 29  1  0  0  0
 35 26  1  0  0  0
 12 16  1  0  0  0
 19 21  1  0  0  0
 20 22  1  0  0  0
M  END
>  <minimizedAffinity>
-0.20863

>  <minimizedRMSD>
2.70764

$$$$
CHEMBL4173279 PubChem-145951001


 29 32  0  0  0  0  0  0  0  0999 V2000
   17.5085  -10.7305   12.1711 C   0  0  0  0  0  0  0  0  0  0  0  0
   19.5887   -7.5613    8.5903 C   0  0  0  0  0  0  0  0  0  0  0  0
   20.2590   -8.2949    9.5950 C   0  0  0  0  0  0  0  0  0  0  0  0
   19.5405   -9.1268   10.4732 C   0  0  0  0  0  0  0  0  0  0  0  0
   18.1579   -9.1908   10.3034 C   0  0  0  0  0  0  0  0  0  0  0  0
   17.5094   -8.4819    9.3347 C   0  0  0  0  0  0  0  0  0  0  0  0
   18.1907   -7.6491    8.4508 C   0  0  0  0  0  0  0  0  0  0  0  0
   16.1837   -8.7067    9.3919 N   0  0  0  0  0  0  0  0  0  0  0  0
   16.0640   -9.5771   10.4309 C   0  0  0  0  0  0  0  0  0  0  0  0
   17.2566   -9.8942   11.0029 N   0  0  0  0  0  0  0  0  0  0  0  0
   14.7628  -10.1068   10.8715 C   0  0  0  0  0  0  0  0  0  0  0  0
   14.5155  -10.5534   12.0764 O   0  0  0  0  0  0  0  0  0  0  0  0
   13.2678  -10.9508   12.1372 C   0  0  0  0  0  0  0  0  0  0  0  0
   12.6707  -10.7533   10.9042 C   0  0  0  0  0  0  0  0  0  0  0  0
   13.6383  -10.2061   10.0798 C   0  0  0  0  0  0  0  0  0  0  0  0
   17.0472  -10.0359   13.4060 C   0  0  0  0  0  0  0  0  0  0  0  0
   16.4109   -8.4776   13.4505 S   0  0  0  0  0  0  0  0  0  0  0  0
   16.1226   -8.6249   15.1020 C   0  0  0  0  0  0  0  0  0  0  0  0
   16.5013   -9.8340   15.5683 N   0  0  0  0  0  0  0  0  0  0  0  0
   17.0099  -10.6217   14.6226 N   0  0  0  0  0  0  0  0  0  0  0  0
   15.3999   -7.3513   16.1245 S   0  0  0  0  0  0  0  0  0  0  0  0
   15.5882   -8.3541   17.6344 C   0  0  0  0  0  0  0  0  0  0  0  0
   14.9996   -7.7010   18.8463 C   0  0  0  0  0  0  0  0  0  0  0  0
   13.8465   -7.2016   18.7660 O   0  0  0  0  0  0  0  0  0  0  0  0
   15.7197   -7.6367   20.0791 N   0  0  0  0  0  0  0  0  0  0  0  0
   15.1643   -7.0242   21.2094 N   0  0  0  0  0  0  0  0  0  0  0  0
   16.6208   -8.0293   20.1346 H   0  0  0  0  0  0  0  0  0  0  0  0
   14.2339   -6.6727   20.9831 H   0  0  0  0  0  0  0  0  0  0  0  0
   15.7587   -6.2489   21.5027 H   0  0  0  0  0  0  0  0  0  0  0  0
  2  3  2  0  0  0
  3  4  1  0  0  0
  4  5  2  0  0  0
  5  6  1  0  0  0
  6  7  2  0  0  0
  6  8  1  0  0  0
  8  9  2  0  0  0
  9 10  1  0  0  0
 10  1  1  0  0  0
  1 16  1  0  0  0
 16 17  1  0  0  0
 17 18  1  0  0  0
 18 19  2  0  0  0
 19 20  1  0  0  0
 18 21  1  0  0  0
 21 22  1  0  0  0
 22 23  1  0  0  0
 23 24  2  0  0  0
 23 25  1  0  0  0
 25 26  1  0  0  0
  9 11  1  0  0  0
 11 12  1  0  0  0
 12 13  1  0  0  0
 13 14  2  0  0  0
 14 15  1  0  0  0
  7  2  1  0  0  0
 20 16  2  0  0  0
 15 11  2  0  0  0
 10  5  1  0  0  0
 25 27  1  0  0  0
 26 28  1  0  0  0
 26 29  1  0  0  0
M  END
>  <minimizedAffinity>
-0.09807

>  <minimizedRMSD>
2.70776

$$$$
CHEMBL1455612 873754 MCULE-7691542463 MolPort-000-007-302 PubChem-1132911 ZINC000000873754 ZINC00873754


 28 31  0  0  0  0  0  0  0  0999 V2000
   17.0714   -8.9274   14.5152 C   0  0  0  0  0  0  0  0  0  0  0  0
   15.9430   -8.4588   13.9509 N   0  0  0  0  0  0  0  0  0  0  0  0
   15.9380   -8.9117   12.7069 N   0  0  0  0  0  0  0  0  0  0  0  0
   17.0620   -9.6389   12.5680 C   0  0  0  0  0  0  0  0  0  0  0  0
   17.7672   -9.6502   13.6724 O   0  0  0  0  0  0  0  0  0  0  0  0
   17.5591   -8.5967   16.2037 S   0  0  0  0  0  0  0  0  0  0  0  0
   16.0128   -9.2664   16.8897 C   0  0  0  0  0  0  0  0  0  0  0  0
   15.4277   -8.4470   19.2034 N   0  0  0  0  0  0  0  0  0  0  0  0
   15.3659   -8.2660   17.7827 C   0  0  0  0  0  0  0  0  0  0  0  0
   14.7871   -7.2696   17.2748 O   0  0  0  0  0  0  0  0  0  0  0  0
   15.8730   -9.2638   19.5256 H   0  0  0  0  0  0  0  0  0  0  0  0
   12.9071   -4.3563   20.5089 C   0  0  0  0  0  0  0  0  0  0  0  0
   13.6847   -5.5693   20.8720 C   0  0  0  0  0  0  0  0  0  0  0  0
   13.9310   -5.8659   22.2150 C   0  0  0  0  0  0  0  0  0  0  0  0
   14.6636   -7.0067   22.5547 C   0  0  0  0  0  0  0  0  0  0  0  0
   15.1501   -7.8500   21.5512 C   0  0  0  0  0  0  0  0  0  0  0  0
   14.9077   -7.5608   20.2035 C   0  0  0  0  0  0  0  0  0  0  0  0
   14.1718   -6.4132   19.8696 C   0  0  0  0  0  0  0  0  0  0  0  0
   17.4700  -10.3112   11.3027 C   0  0  0  0  0  0  0  0  0  0  0  0
   18.2908   -9.4132   10.5047 N   0  0  0  0  0  0  0  0  0  0  0  0
   19.4386   -8.8062   10.8912 C   0  0  0  0  0  0  0  0  0  0  0  0
   19.9346   -7.9796    9.9304 N   0  0  0  0  0  0  0  0  0  0  0  0
   19.0423   -8.0890    8.9285 C   0  0  0  0  0  0  0  0  0  0  0  0
   19.0609   -7.4384    7.6974 C   0  0  0  0  0  0  0  0  0  0  0  0
   18.0017   -7.7050    6.8087 C   0  0  0  0  0  0  0  0  0  0  0  0
   16.9672   -8.5985    7.1692 C   0  0  0  0  0  0  0  0  0  0  0  0
   16.9785   -9.2379    8.4228 C   0  0  0  0  0  0  0  0  0  0  0  0
   18.0456   -8.9507    9.2729 C   0  0  0  0  0  0  0  0  0  0  0  0
 12 13  1  0  0  0
 13 14  2  0  0  0
 14 15  1  0  0  0
 15 16  2  0  0  0
 16 17  1  0  0  0
 17  8  1  0  0  0
 17 18  2  0  0  0
  8  9  1  0  0  0
  9 10  2  0  0  0
  9  7  1  0  0  0
  7  6  1  0  0  0
  6  1  1  0  0  0
  1  2  2  0  0  0
  2  3  1  0  0  0
  3  4  2  0  0  0
  4 19  1  0  0  0
  4  5  1  0  0  0
 19 20  1  0  0  0
 20 21  1  0  0  0
 21 22  2  0  0  0
 22 23  1  0  0  0
 23 24  2  0  0  0
 24 25  1  0  0  0
 25 26  2  0  0  0
 26 27  1  0  0  0
 27 28  2  0  0  0
 28 20  1  0  0  0
 28 23  1  0  0  0
  5  1  1  0  0  0
 18 13  1  0  0  0
  8 11  1  0  0  0
M  END
>  <minimizedAffinity>
-6.23371

>  <minimizedRMSD>
2.70952

$$$$
CHEMBL2235542 PubChem-25108334


 29 32  0  0  0  0  0  0  0  0999 V2000
   17.0221   -9.0580   14.2758 C   0  0  0  0  0  0  0  0  0  0  0  0
   15.7612   -8.7383   13.9307 N   0  0  0  0  0  0  0  0  0  0  0  0
   15.6113   -9.1339   12.6762 N   0  0  0  0  0  0  0  0  0  0  0  0
   16.7865   -9.6800   12.3124 C   0  0  0  0  0  0  0  0  0  0  0  0
   17.6611   -9.6333   13.2872 O   0  0  0  0  0  0  0  0  0  0  0  0
   17.7340   -8.7318   15.8837 S   0  0  0  0  0  0  0  0  0  0  0  0
   16.3042   -9.4246   16.7703 C   0  0  0  0  0  0  0  0  0  0  0  0
   15.0870   -7.3899   16.9034 O   0  0  0  0  0  0  0  0  0  0  0  0
   15.5973   -8.3564   17.5293 C   0  0  0  0  0  0  0  0  0  0  0  0
   15.5260   -8.4384   18.9589 N   0  0  0  0  0  0  0  0  0  0  0  0
   15.9343   -9.2308   19.3765 H   0  0  0  0  0  0  0  0  0  0  0  0
   14.9213   -7.4851   19.8430 C   0  0  0  0  0  0  0  0  0  0  0  0
   13.6730   -6.9072   19.5711 C   0  0  0  0  0  0  0  0  0  0  0  0
   13.1170   -5.9792   20.4547 C   0  0  0  0  0  0  0  0  0  0  0  0
   13.8014   -5.6179   21.6184 C   0  0  0  0  0  0  0  0  0  0  0  0
   13.0656   -4.4472   22.7008 Cl  0  0  0  0  0  0  0  0  0  0  0  0
   15.0529   -6.1927   21.8972 C   0  0  0  0  0  0  0  0  0  0  0  0
   15.9557   -5.7726   23.3432 Cl  0  0  0  0  0  0  0  0  0  0  0  0
   15.6037   -7.1211   21.0080 C   0  0  0  0  0  0  0  0  0  0  0  0
   17.0665  -10.2311   10.9574 C   0  0  0  0  0  0  0  0  0  0  0  0
   18.0222   -9.3808   10.2651 N   0  0  0  0  0  0  0  0  0  0  0  0
   19.1476   -8.9142   10.7962 N   0  0  0  0  0  0  0  0  0  0  0  0
   19.7824   -8.1150    9.9384 N   0  0  0  0  0  0  0  0  0  0  0  0
   19.0126   -8.0802    8.8347 C   0  0  0  0  0  0  0  0  0  0  0  0
   19.2166   -7.3791    7.6505 C   0  0  0  0  0  0  0  0  0  0  0  0
   18.2310   -7.5108    6.6517 C   0  0  0  0  0  0  0  0  0  0  0  0
   17.0904   -8.3224    6.8640 C   0  0  0  0  0  0  0  0  0  0  0  0
   16.9178   -9.0160    8.0779 C   0  0  0  0  0  0  0  0  0  0  0  0
   17.9170   -8.8610    9.0356 C   0  0  0  0  0  0  0  0  0  0  0  0
  8  9  2  0  0  0
  9  7  1  0  0  0
  9 10  1  0  0  0
  7  6  1  0  0  0
  6  1  1  0  0  0
  1  2  2  0  0  0
  2  3  1  0  0  0
  3  4  2  0  0  0
  4 20  1  0  0  0
  4  5  1  0  0  0
 20 21  1  0  0  0
 21 22  1  0  0  0
 22 23  2  0  0  0
 23 24  1  0  0  0
 24 25  2  0  0  0
 25 26  1  0  0  0
 26 27  2  0  0  0
 27 28  1  0  0  0
 28 29  2  0  0  0
 29 21  1  0  0  0
 29 24  1  0  0  0
  5  1  1  0  0  0
 10 12  1  0  0  0
 12 13  2  0  0  0
 13 14  1  0  0  0
 14 15  2  0  0  0
 15 16  1  0  0  0
 15 17  1  0  0  0
 17 18  1  0  0  0
 17 19  2  0  0  0
 19 12  1  0  0  0
 10 11  1  0  0  0
M  END
>  <minimizedAffinity>
-7.53490

>  <minimizedRMSD>
2.71876

$$$$
CHEMBL2037391 873588 MCULE-6499410159 MolPort-000-007-124 PubChem-1132763 ZINC000000873588 ZINC00873588


 28 31  0  0  0  0  0  0  0  0999 V2000
   17.1971   -9.0411   14.4534 C   0  0  0  0  0  0  0  0  0  0  0  0
   16.0410   -8.5413   13.9788 N   0  0  0  0  0  0  0  0  0  0  0  0
   15.9594   -8.9362   12.7178 N   0  0  0  0  0  0  0  0  0  0  0  0
   17.0678   -9.6616   12.4795 C   0  0  0  0  0  0  0  0  0  0  0  0
   17.8366   -9.7275   13.5387 O   0  0  0  0  0  0  0  0  0  0  0  0
   17.7858   -8.7917   16.1236 S   0  0  0  0  0  0  0  0  0  0  0  0
   16.2527   -9.4290   16.8671 C   0  0  0  0  0  0  0  0  0  0  0  0
   15.4721   -8.4024   19.0358 N   0  0  0  0  0  0  0  0  0  0  0  0
   15.5457   -8.3463   17.6052 C   0  0  0  0  0  0  0  0  0  0  0  0
   15.0388   -7.3902   16.9611 O   0  0  0  0  0  0  0  0  0  0  0  0
   15.8809   -9.1866   19.4685 H   0  0  0  0  0  0  0  0  0  0  0  0
   13.0398   -4.3607   22.7256 Cl  0  0  0  0  0  0  0  0  0  0  0  0
   13.7400   -5.5412   21.6400 C   0  0  0  0  0  0  0  0  0  0  0  0
   14.9815   -6.1113   21.9340 C   0  0  0  0  0  0  0  0  0  0  0  0
   15.5407   -7.0543   21.0664 C   0  0  0  0  0  0  0  0  0  0  0  0
   14.8645   -7.4340   19.9015 C   0  0  0  0  0  0  0  0  0  0  0  0
   13.6183   -6.8566   19.6122 C   0  0  0  0  0  0  0  0  0  0  0  0
   13.0581   -5.9136   20.4787 C   0  0  0  0  0  0  0  0  0  0  0  0
   17.3945  -10.2781   11.1632 C   0  0  0  0  0  0  0  0  0  0  0  0
   18.2490   -9.3858   10.3944 N   0  0  0  0  0  0  0  0  0  0  0  0
   19.4036   -8.8122   10.8106 C   0  0  0  0  0  0  0  0  0  0  0  0
   19.9361   -7.9832    9.8716 N   0  0  0  0  0  0  0  0  0  0  0  0
   19.0593   -8.0559    8.8526 C   0  0  0  0  0  0  0  0  0  0  0  0
   19.1157   -7.3879    7.6320 C   0  0  0  0  0  0  0  0  0  0  0  0
   18.0667   -7.6155    6.7208 C   0  0  0  0  0  0  0  0  0  0  0  0
   17.0049   -8.4892    7.0494 C   0  0  0  0  0  0  0  0  0  0  0  0
   16.9786   -9.1476    8.2929 C   0  0  0  0  0  0  0  0  0  0  0  0
   18.0365   -8.8986    9.1661 C   0  0  0  0  0  0  0  0  0  0  0  0
 12 13  1  0  0  0
 13 14  2  0  0  0
 14 15  1  0  0  0
 15 16  2  0  0  0
 16  8  1  0  0  0
 16 17  1  0  0  0
  8  9  1  0  0  0
  9 10  2  0  0  0
  9  7  1  0  0  0
  7  6  1  0  0  0
  6  1  1  0  0  0
  1  2  2  0  0  0
  2  3  1  0  0  0
  3  4  2  0  0  0
  4 19  1  0  0  0
  4  5  1  0  0  0
 19 20  1  0  0  0
 20 21  1  0  0  0
 21 22  2  0  0  0
 22 23  1  0  0  0
 23 24  2  0  0  0
 24 25  1  0  0  0
 25 26  2  0  0  0
 26 27  1  0  0  0
 27 28  2  0  0  0
 28 20  1  0  0  0
 28 23  1  0  0  0
  5  1  1  0  0  0
 17 18  2  0  0  0
 18 13  1  0  0  0
  8 11  1  0  0  0
M  END
>  <minimizedAffinity>
-7.02042

>  <minimizedRMSD>
2.71989

$$$$
CHEMBL1783006 PubChem-136000556


 41 43  0  0  0  0  0  0  0  0999 V2000
   17.6490  -11.5871   14.7240 C   0  0  0  0  0  0  0  0  0  0  0  0
   16.7477  -10.7329   13.9610 N   0  0  0  0  0  0  0  0  0  0  0  0
   16.7322  -10.7290   12.5336 C   0  0  0  0  0  0  0  0  0  0  0  0
   17.4725  -11.5126   11.8812 O   0  0  0  0  0  0  0  0  0  0  0  0
   16.1295  -10.1395   14.4457 H   0  0  0  0  0  0  0  0  0  0  0  0
   15.8497   -9.7688   11.8122 C   0  0  0  0  0  0  0  0  0  0  0  0
   15.7904  -10.0826   10.3231 C   0  0  0  0  0  0  0  0  0  0  0  0
   16.8925   -9.4124    9.5719 C   0  0  0  0  0  0  0  0  0  0  0  0
   16.8425   -9.3556    8.2147 N   0  0  0  0  0  0  0  0  0  0  0  0
   17.8449   -8.7783    7.5029 C   0  0  0  0  0  0  0  0  0  0  0  0
   17.7780   -8.7318    6.1073 C   0  0  0  0  0  0  0  0  0  0  0  0
   18.8143   -8.1403    5.3766 C   0  0  0  0  0  0  0  0  0  0  0  0
   19.9184   -7.5929    6.0383 C   0  0  0  0  0  0  0  0  0  0  0  0
   19.9917   -7.6358    7.4344 C   0  0  0  0  0  0  0  0  0  0  0  0
   18.9575   -8.2288    8.1733 C   0  0  0  0  0  0  0  0  0  0  0  0
   18.9883   -8.3027    9.5726 C   0  0  0  0  0  0  0  0  0  0  0  0
   19.9586   -7.8300   10.2234 O   0  0  0  0  0  0  0  0  0  0  0  0
   17.9614   -8.8953   10.2367 N   0  0  0  0  0  0  0  0  0  0  0  0
   17.9914   -8.9518   11.2191 H   0  0  0  0  0  0  0  0  0  0  0  0
   17.4386  -11.4429   16.2007 C   0  0  0  0  0  0  0  0  0  0  0  0
   16.4030  -10.8886   16.6555 O   0  0  0  0  0  0  0  0  0  0  0  0
   18.4043  -11.9148   17.0788 O   0  0  0  0  0  0  0  0  0  0  0  0
   19.1771  -12.3281   16.7472 H   0  0  0  0  0  0  0  0  0  0  0  0
   19.1045  -11.3599   14.3123 C   0  0  0  0  0  0  0  0  0  0  0  0
   19.4306   -9.8958   14.0180 C   0  0  0  0  0  0  0  0  0  0  0  0
   18.6233   -8.9492   14.8918 C   0  0  0  0  0  0  0  0  0  0  0  0
   19.4128   -8.5614   16.1304 C   0  0  0  0  0  0  0  0  0  0  0  0
   16.4457   -8.2305   18.5208 N   0  0  0  0  0  0  0  0  0  0  0  0
   17.2274   -8.0966   17.3266 C   0  0  0  0  0  0  0  0  0  0  0  0
   16.7605   -7.5187   16.3075 O   0  0  0  0  0  0  0  0  0  0  0  0
   18.5561   -8.6234   17.3066 N   0  0  0  0  0  0  0  0  0  0  0  0
   16.8799   -8.6756   19.2840 H   0  0  0  0  0  0  0  0  0  0  0  0
   18.9073   -9.0465   18.1233 H   0  0  0  0  0  0  0  0  0  0  0  0
   12.4644   -6.9159   19.1954 C   0  0  0  0  0  0  0  0  0  0  0  0
   13.3547   -7.0889   20.2607 C   0  0  0  0  0  0  0  0  0  0  0  0
   14.6629   -7.5210   20.0242 C   0  0  0  0  0  0  0  0  0  0  0  0
   15.0981   -7.7841   18.7202 C   0  0  0  0  0  0  0  0  0  0  0  0
   14.2055   -7.6125   17.6509 C   0  0  0  0  0  0  0  0  0  0  0  0
   12.8974   -7.1811   17.8857 C   0  0  0  0  0  0  0  0  0  0  0  0
   10.0365   -6.9134   18.7117 C   0  0  0  0  0  0  0  0  0  0  0  0
   11.1631   -6.4811   19.4650 O   0  0  0  0  0  0  0  0  0  0  0  0
 40 41  1  0  0  0
 41 34  1  0  0  0
 34 35  2  0  0  0
 35 36  1  0  0  0
 36 37  2  0  0  0
 37 28  1  0  0  0
 37 38  1  0  0  0
 28 29  1  0  0  0
 29 30  2  0  0  0
 29 31  1  0  0  0
 31 27  1  0  0  0
 27 26  1  0  0  0
 26 25  1  0  0  0
 25 24  1  0  0  0
  1 24  1  0  0  0
  1  2  1  0  0  0
  1 20  1  0  0  0
  2  3  1  0  0  0
  3  4  2  0  0  0
  3  6  1  0  0  0
  6  7  1  0  0  0
  7  8  1  0  0  0
  8  9  2  0  0  0
  9 10  1  0  0  0
 10 11  2  0  0  0
 11 12  1  0  0  0
 12 13  2  0  0  0
 13 14  1  0  0  0
 14 15  2  0  0  0
 15 16  1  0  0  0
 15 10  1  0  0  0
 16 17  2  0  0  0
 16 18  1  0  0  0
 18  8  1  0  0  0
 20 21  2  0  0  0
 20 22  1  0  0  0
 38 39  2  0  0  0
 39 34  1  0  0  0
 28 32  1  0  0  0
 31 33  1  0  0  0
  2  5  1  0  0  0
 18 19  1  0  0  0
 22 23  1  0  0  0
M  END
>  <minimizedAffinity>
-4.46603

>  <minimizedRMSD>
2.72144

$$$$
CHEMBL195771 PubChem-11464544


 33 36  0  0  0  0  0  0  0  0999 V2000
   16.6754   -9.9904   11.5693 C   0  0  0  0  0  0  0  0  0  0  0  0
   15.4003  -10.3051   11.9318 N   0  0  0  0  0  0  0  0  0  0  0  0
   14.3699  -10.2286   11.0399 C   0  0  0  0  0  0  0  0  0  0  0  0
   14.6092   -9.8229    9.7626 N   0  0  0  0  0  0  0  0  0  0  0  0
   15.8515   -9.5024    9.4110 N   0  0  0  0  0  0  0  0  0  0  0  0
   16.2525   -9.0424    8.2161 C   0  0  0  0  0  0  0  0  0  0  0  0
   17.6158   -8.7845    8.3071 C   0  0  0  0  0  0  0  0  0  0  0  0
   18.0335   -9.1049    9.6094 C   0  0  0  0  0  0  0  0  0  0  0  0
   16.8914   -9.5554   10.2544 C   0  0  0  0  0  0  0  0  0  0  0  0
   18.4119   -8.2368    7.1951 C   0  0  0  0  0  0  0  0  0  0  0  0
   19.0102   -8.9641    6.2376 N   0  0  0  0  0  0  0  0  0  0  0  0
   19.6158   -8.0972    5.4425 N   0  0  0  0  0  0  0  0  0  0  0  0
   19.3720   -6.8661    5.9344 C   0  0  0  0  0  0  0  0  0  0  0  0
   18.6302   -6.9573    7.0141 O   0  0  0  0  0  0  0  0  0  0  0  0
   19.3882   -8.9259   10.2305 C   0  0  0  0  0  0  0  0  0  0  0  0
   20.2512  -10.1637   10.0729 C   0  0  0  0  0  0  0  0  0  0  0  0
   20.0927   -7.6937    9.6962 C   0  0  0  0  0  0  0  0  0  0  0  0
   17.7289  -10.1037   12.5300 N   0  0  0  0  0  0  0  0  0  0  0  0
   18.6526  -10.0295   12.1975 H   0  0  0  0  0  0  0  0  0  0  0  0
   16.6418   -9.4897   16.0476 C   0  0  0  0  0  0  0  0  0  0  0  0
   16.8478   -9.3542   14.6668 C   0  0  0  0  0  0  0  0  0  0  0  0
   17.5519  -10.3163   13.9377 C   0  0  0  0  0  0  0  0  0  0  0  0
   18.0449  -11.4569   14.6017 C   0  0  0  0  0  0  0  0  0  0  0  0
   18.6972  -12.4401   13.9346 F   0  0  0  0  0  0  0  0  0  0  0  0
   17.8453  -11.6012   15.9755 C   0  0  0  0  0  0  0  0  0  0  0  0
   17.1554  -10.6281   16.7021 C   0  0  0  0  0  0  0  0  0  0  0  0
   16.9920  -10.8143   18.0352 F   0  0  0  0  0  0  0  0  0  0  0  0
   16.0062   -8.2889   18.1857 N   0  0  0  0  0  0  0  0  0  0  0  0
   15.8966   -8.4311   16.7668 C   0  0  0  0  0  0  0  0  0  0  0  0
   15.1528   -7.6411   16.1237 O   0  0  0  0  0  0  0  0  0  0  0  0
   16.5761   -8.9140   18.6896 H   0  0  0  0  0  0  0  0  0  0  0  0
   14.9080   -7.9157   20.0338 C   0  0  0  0  0  0  0  0  0  0  0  0
   15.3429   -7.3129   18.8521 O   0  0  0  0  0  0  0  0  0  0  0  0
 32 33  1  0  0  0
 33 28  1  0  0  0
 28 29  1  0  0  0
 29 30  2  0  0  0
 29 20  1  0  0  0
 20 21  2  0  0  0
 21 22  1  0  0  0
 22 18  1  0  0  0
 22 23  2  0  0  0
 18  1  1  0  0  0
  1  2  2  0  0  0
  2  3  1  0  0  0
  3  4  2  0  0  0
  4  5  1  0  0  0
  5  6  1  0  0  0
  6  7  2  0  0  0
  7 10  1  0  0  0
  7  8  1  0  0  0
 10 11  2  0  0  0
 11 12  1  0  0  0
 12 13  2  0  0  0
 13 14  1  0  0  0
 14 10  1  0  0  0
  8 15  1  0  0  0
  8  9  2  0  0  0
 15 16  1  0  0  0
 15 17  1  0  0  0
  9  1  1  0  0  0
  9  5  1  0  0  0
 23 24  1  0  0  0
 23 25  1  0  0  0
 25 26  2  0  0  0
 26 27  1  0  0  0
 26 20  1  0  0  0
 28 31  1  0  0  0
 18 19  1  0  0  0
M  END
>  <minimizedAffinity>
-6.17469

>  <minimizedRMSD>
2.72527

$$$$
CHEMBL4864700 PubChem-164621721


 41 45  0  0  0  0  0  0  0  0999 V2000
   17.2169  -10.0487   11.2843 C   0  0  0  0  0  0  0  0  0  0  0  0
   15.9715  -10.4124   10.8745 N   0  0  0  0  0  0  0  0  0  0  0  0
   15.4733  -10.0380    9.6636 C   0  0  0  0  0  0  0  0  0  0  0  0
   16.2398   -9.2774    8.8347 N   0  0  0  0  0  0  0  0  0  0  0  0
   17.4890   -8.8853    9.1911 C   0  0  0  0  0  0  0  0  0  0  0  0
   18.2541   -8.1043    8.3202 C   0  0  0  0  0  0  0  0  0  0  0  0
   19.5411   -7.7017    8.6901 C   0  0  0  0  0  0  0  0  0  0  0  0
   20.0660   -8.0786    9.9306 C   0  0  0  0  0  0  0  0  0  0  0  0
   19.3056   -8.8598   10.8063 C   0  0  0  0  0  0  0  0  0  0  0  0
   18.0150   -9.2667   10.4414 C   0  0  0  0  0  0  0  0  0  0  0  0
   14.1456  -10.4448    9.2655 N   0  0  0  0  0  0  0  0  0  0  0  0
   13.7936  -11.5206    8.5088 C   0  0  0  0  0  0  0  0  0  0  0  0
   12.4160  -11.6050    8.3229 C   0  0  0  0  0  0  0  0  0  0  0  0
   11.9232  -10.5138    9.0107 C   0  0  0  0  0  0  0  0  0  0  0  0
   10.6023  -10.0883    9.1731 C   0  0  0  0  0  0  0  0  0  0  0  0
   10.3838   -8.9235    9.9361 C   0  0  0  0  0  0  0  0  0  0  0  0
   11.4657   -8.2248   10.5075 C   0  0  0  0  0  0  0  0  0  0  0  0
   12.7820   -8.6789   10.3256 C   0  0  0  0  0  0  0  0  0  0  0  0
   12.9797   -9.8356    9.5661 C   0  0  0  0  0  0  0  0  0  0  0  0
   14.7454  -12.5127    7.9309 C   0  0  0  0  0  0  0  0  0  0  0  0
    9.5283  -10.8287    8.5743 N   0  0  0  0  0  0  0  0  0  0  0  0
    9.2219  -10.9091    7.1770 C   0  0  0  0  0  0  0  0  0  0  0  0
    9.9134  -10.2995    6.3191 O   0  0  0  0  0  0  0  0  0  0  0  0
    8.9432  -11.3321    9.1854 H   0  0  0  0  0  0  0  0  0  0  0  0
    8.1043  -11.7001    6.7478 C   0  0  0  0  0  0  0  0  0  0  0  0
    7.1653  -12.3649    6.3879 C   0  0  0  0  0  0  0  0  0  0  0  0
    6.0259  -13.1717    5.9514 C   0  0  0  0  0  0  0  0  0  0  0  0
   17.7014  -10.4635   12.5644 N   0  0  0  0  0  0  0  0  0  0  0  0
   18.6701  -10.5865   12.6903 H   0  0  0  0  0  0  0  0  0  0  0  0
   16.8091  -10.7094   13.6861 C   0  0  0  0  0  0  0  0  0  0  0  0
   16.7298   -8.5624   16.8048 C   0  0  0  0  0  0  0  0  0  0  0  0
   16.3123   -9.3239   15.7069 C   0  0  0  0  0  0  0  0  0  0  0  0
   17.2567   -9.9216   14.8656 C   0  0  0  0  0  0  0  0  0  0  0  0
   18.6221   -9.7473   15.1139 C   0  0  0  0  0  0  0  0  0  0  0  0
   19.0423   -8.9873   16.2093 C   0  0  0  0  0  0  0  0  0  0  0  0
   18.0974   -8.3965   17.0539 C   0  0  0  0  0  0  0  0  0  0  0  0
   15.6724   -7.8978   17.7472 B   0  0  0  0  0  0  0  0  0  0  0  0
   14.4268   -7.3685   17.1971 O   0  0  0  0  0  0  0  0  0  0  0  0
   15.9241   -7.8019   19.1831 O   0  0  0  0  0  0  0  0  0  0  0  0
   14.4121   -7.5082   16.2373 H   0  0  0  0  0  0  0  0  0  0  0  0
   16.7869   -8.1956   19.3871 H   0  0  0  0  0  0  0  0  0  0  0  0
 37 31  1  0  0  0
 31 32  2  0  0  0
 32 33  1  0  0  0
 33 34  2  0  0  0
 34 35  1  0  0  0
 35 36  2  0  0  0
 33 30  1  0  0  0
 30 28  1  0  0  0
 28  1  1  0  0  0
  1  2  2  0  0  0
  2  3  1  0  0  0
  3  4  2  0  0  0
  4  5  1  0  0  0
  5  6  2  0  0  0
  6  7  1  0  0  0
  7  8  2  0  0  0
  8  9  1  0  0  0
  9 10  2  0  0  0
  3 11  1  0  0  0
 11 12  1  0  0  0
 12 13  2  0  0  0
 13 14  1  0  0  0
 14 15  2  0  0  0
 15 16  1  0  0  0
 16 17  2  0  0  0
 17 18  1  0  0  0
 18 19  2  0  0  0
 15 21  1  0  0  0
 21 22  1  0  0  0
 22 23  2  0  0  0
 22 25  1  0  0  0
 25 26  3  0  0  0
 26 27  1  0  0  0
 12 20  1  0  0  0
 37 38  1  0  0  0
 37 39  1  0  0  0
 36 31  1  0  0  0
 10  1  1  0  0  0
 10  5  1  0  0  0
 19 11  1  0  0  0
 19 14  1  0  0  0
 28 29  1  0  0  0
 21 24  1  0  0  0
 38 40  1  0  0  0
 39 41  1  0  0  0
M  END
>  <minimizedAffinity>
28.43654

>  <minimizedRMSD>
2.72851

$$$$
CHEMBL2235538 PubChem-25108388


 29 32  0  0  0  0  0  0  0  0999 V2000
   16.9785  -10.2575   13.8199 C   0  0  0  0  0  0  0  0  0  0  0  0
   17.9288  -10.7842   13.0253 N   0  0  0  0  0  0  0  0  0  0  0  0
   17.4966  -10.6314   11.7829 N   0  0  0  0  0  0  0  0  0  0  0  0
   16.3046  -10.0134   11.8744 C   0  0  0  0  0  0  0  0  0  0  0  0
   15.9756   -9.7849   13.1222 O   0  0  0  0  0  0  0  0  0  0  0  0
   17.0750  -10.2143   15.6051 S   0  0  0  0  0  0  0  0  0  0  0  0
   15.8679   -8.8607   15.7344 C   0  0  0  0  0  0  0  0  0  0  0  0
   14.5767   -7.7637   17.6029 N   0  0  0  0  0  0  0  0  0  0  0  0
   15.7873   -8.3759   17.1394 C   0  0  0  0  0  0  0  0  0  0  0  0
   16.7835   -8.5103   17.8978 O   0  0  0  0  0  0  0  0  0  0  0  0
   13.8702   -7.6160   16.9334 H   0  0  0  0  0  0  0  0  0  0  0  0
   13.6657   -6.4976   21.5530 C   0  0  0  0  0  0  0  0  0  0  0  0
   14.6421   -7.4768   21.3464 C   0  0  0  0  0  0  0  0  0  0  0  0
   14.9545   -7.8990   20.0512 C   0  0  0  0  0  0  0  0  0  0  0  0
   14.2924   -7.3450   18.9446 C   0  0  0  0  0  0  0  0  0  0  0  0
   13.3109   -6.3702   19.1518 C   0  0  0  0  0  0  0  0  0  0  0  0
   12.9996   -5.9451   20.4462 C   0  0  0  0  0  0  0  0  0  0  0  0
   13.2052   -4.7299   23.2204 C   0  0  0  0  0  0  0  0  0  0  0  0
   13.3801   -6.0931   22.8599 O   0  0  0  0  0  0  0  0  0  0  0  0
   15.4526   -9.6654   10.7040 C   0  0  0  0  0  0  0  0  0  0  0  0
   16.2455   -9.7012    9.4850 N   0  0  0  0  0  0  0  0  0  0  0  0
   16.0816  -10.5758    8.4974 N   0  0  0  0  0  0  0  0  0  0  0  0
   16.9946  -10.3914    7.5435 N   0  0  0  0  0  0  0  0  0  0  0  0
   17.7606   -9.3678    7.9650 C   0  0  0  0  0  0  0  0  0  0  0  0
   18.8634   -8.7902    7.3441 C   0  0  0  0  0  0  0  0  0  0  0  0
   19.4970   -7.7302    8.0235 C   0  0  0  0  0  0  0  0  0  0  0  0
   19.0197   -7.2894    9.2814 C   0  0  0  0  0  0  0  0  0  0  0  0
   17.9002   -7.9005    9.8792 C   0  0  0  0  0  0  0  0  0  0  0  0
   17.3015   -8.9401    9.1719 C   0  0  0  0  0  0  0  0  0  0  0  0
 18 19  1  0  0  0
 19 12  1  0  0  0
 12 13  2  0  0  0
 13 14  1  0  0  0
 14 15  2  0  0  0
 15  8  1  0  0  0
 15 16  1  0  0  0
  8  9  1  0  0  0
  9 10  2  0  0  0
  9  7  1  0  0  0
  7  6  1  0  0  0
  6  1  1  0  0  0
  1  2  2  0  0  0
  2  3  1  0  0  0
  3  4  2  0  0  0
  4 20  1  0  0  0
  4  5  1  0  0  0
 20 21  1  0  0  0
 21 22  1  0  0  0
 22 23  2  0  0  0
 23 24  1  0  0  0
 24 25  2  0  0  0
 25 26  1  0  0  0
 26 27  2  0  0  0
 27 28  1  0  0  0
 28 29  2  0  0  0
 29 21  1  0  0  0
 29 24  1  0  0  0
  5  1  1  0  0  0
 16 17  2  0  0  0
 17 12  1  0  0  0
  8 11  1  0  0  0
M  END
>  <minimizedAffinity>
-6.46576

>  <minimizedRMSD>
2.74318

$$$$
CHEMBL2111999 PubChem-71457984


 33 35  0  0  0  0  0  0  0  0999 V2000
   16.7224   -9.1993   10.5746 C   0  0  0  0  0  0  0  0  0  0  0  0
   17.9904   -9.4068   11.3848 C   0  0  0  0  0  0  0  0  0  0  0  0
   17.6289  -10.3120   12.5564 C   0  0  0  0  0  0  0  0  0  0  0  0
   16.1384  -10.5876   12.4651 C   0  0  0  0  0  0  0  0  0  0  0  0
   15.4691   -9.7442   13.3563 O   0  0  0  0  0  0  0  0  0  0  0  0
   15.7548  -10.2700   11.0280 C   0  0  0  0  0  0  0  0  0  0  0  0
   14.4374   -9.8163   10.9293 O   0  0  0  0  0  0  0  0  0  0  0  0
   15.6829   -8.8208   13.1501 H   0  0  0  0  0  0  0  0  0  0  0  0
   14.3295   -9.0170   11.4680 H   0  0  0  0  0  0  0  0  0  0  0  0
   18.6260   -8.3751    6.1839 C   0  0  0  0  0  0  0  0  0  0  0  0
   19.4590   -7.3862    6.6266 N   0  0  0  0  0  0  0  0  0  0  0  0
   19.4923   -7.0079    7.9446 C   0  0  0  0  0  0  0  0  0  0  0  0
   18.6839   -7.6170    8.8625 N   0  0  0  0  0  0  0  0  0  0  0  0
   17.8586   -8.5980    8.4254 C   0  0  0  0  0  0  0  0  0  0  0  0
   17.8048   -8.9900    7.1323 C   0  0  0  0  0  0  0  0  0  0  0  0
   16.8960   -9.9737    6.9843 N   0  0  0  0  0  0  0  0  0  0  0  0
   16.4109  -10.1504    8.2454 C   0  0  0  0  0  0  0  0  0  0  0  0
   16.9928   -9.3156    9.1461 N   0  0  0  0  0  0  0  0  0  0  0  0
   19.2268   -7.9252    3.7443 C   0  0  0  0  0  0  0  0  0  0  0  0
   18.6290   -8.7312    4.7964 N   0  0  0  0  0  0  0  0  0  0  0  0
   18.1979   -9.5778    4.5381 H   0  0  0  0  0  0  0  0  0  0  0  0
   18.3940  -11.6223   12.4554 C   0  0  0  0  0  0  0  0  0  0  0  0
   19.8464  -11.6097   13.5550 S   0  0  0  0  0  0  0  0  0  0  0  0
   18.9547  -10.7767   14.9019 C   0  0  0  0  0  0  0  0  0  0  0  0
   17.9245  -11.7212   15.5065 C   0  0  0  0  0  0  0  0  0  0  0  0
   17.2614  -11.1426   16.7552 C   0  0  0  0  0  0  0  0  0  0  0  0
   18.0615  -11.3997   17.9420 N   0  0  0  0  0  0  0  0  0  0  0  0
   18.9623  -10.9294   17.8532 H   0  0  0  0  0  0  0  0  0  0  0  0
   18.2105  -12.4039   18.0407 H   0  0  0  0  0  0  0  0  0  0  0  0
   16.9762   -9.6815   16.6187 C   0  0  0  0  0  0  0  0  0  0  0  0
   15.9416   -9.3042   16.0105 O   0  0  0  0  0  0  0  0  0  0  0  0
   17.8361   -8.7364   17.1658 O   0  0  0  0  0  0  0  0  0  0  0  0
   18.6080   -9.0124   17.6197 H   0  0  0  0  0  0  0  0  0  0  0  0
 19 20  1  0  0  0
 20 10  1  0  0  0
 10 11  2  0  0  0
 11 12  1  0  0  0
 12 13  2  0  0  0
 13 14  1  0  0  0
 14 15  2  0  0  0
 15 16  1  0  0  0
 15 10  1  0  0  0
 16 17  2  0  0  0
 17 18  1  0  0  0
 18 14  1  0  0  0
  1 18  1  0  0  0
  1  2  1  0  0  0
  2  3  1  0  0  0
  3 22  1  0  0  0
  3  4  1  0  0  0
 22 23  1  0  0  0
 23 24  1  0  0  0
 24 25  1  0  0  0
 26 25  1  0  0  0
 26 27  1  0  0  0
 26 30  1  0  0  0
 30 31  2  0  0  0
 30 32  1  0  0  0
  4  5  1  0  0  0
  4  6  1  0  0  0
  6  7  1  0  0  0
  6  1  1  0  0  0
 20 21  1  0  0  0
 27 28  1  0  0  0
 27 29  1  0  0  0
 32 33  1  0  0  0
  5  8  1  0  0  0
  7  9  1  0  0  0
M  END
>  <minimizedAffinity>
-4.49966

>  <minimizedRMSD>
2.74422

$$$$
CHEMBL3928129 PubChem-89743543


 34 38  0  0  0  0  0  0  0  0999 V2000
   18.2347  -12.4947   15.9266 C   0  0  0  0  0  0  0  0  0  0  0  0
   17.9339  -11.3061   15.1438 N   0  0  0  0  0  0  0  0  0  0  0  0
   16.9423  -10.3714   15.6230 C   0  0  0  0  0  0  0  0  0  0  0  0
   15.9306   -9.8879   14.7788 C   0  0  0  0  0  0  0  0  0  0  0  0
   14.9880   -8.9863   15.2717 C   0  0  0  0  0  0  0  0  0  0  0  0
   15.0543   -8.5712   16.6020 C   0  0  0  0  0  0  0  0  0  0  0  0
   16.0734   -9.0648   17.4180 C   0  0  0  0  0  0  0  0  0  0  0  0
   16.9820   -9.9445   16.9181 N   0  0  0  0  0  0  0  0  0  0  0  0
   13.8996   -7.4100   17.2346 S   0  0  0  0  0  0  0  0  0  0  0  0
   14.4571   -6.0181   17.1159 O   0  0  0  0  0  0  0  0  0  0  0  0
   12.6304   -7.4890   16.4339 O   0  0  0  0  0  0  0  0  0  0  0  0
   13.5514   -7.7631   18.8950 N   0  0  0  0  0  0  0  0  0  0  0  0
   13.9414   -8.6720   19.1445 H   0  0  0  0  0  0  0  0  0  0  0  0
   14.1583   -6.7237   19.7145 C   0  0  0  0  0  0  0  0  0  0  0  0
   15.2826   -7.3263   20.5704 C   0  0  0  0  0  0  0  0  0  0  0  0
   14.7693   -7.8988   21.9006 C   0  0  0  0  0  0  0  0  0  0  0  0
   13.3742   -8.0635   21.8819 O   0  0  0  0  0  0  0  0  0  0  0  0
   12.8380   -6.7646   21.9008 C   0  0  0  0  0  0  0  0  0  0  0  0
   13.0769   -6.0436   20.5646 C   0  0  0  0  0  0  0  0  0  0  0  0
   18.6812  -11.1398   13.8953 C   0  0  0  0  0  0  0  0  0  0  0  0
   19.4572   -9.8285   13.8700 C   0  0  0  0  0  0  0  0  0  0  0  0
   19.2248   -9.2258   12.4968 C   0  0  0  0  0  0  0  0  0  0  0  0
   18.1750  -10.0160   11.8789 N   0  0  0  0  0  0  0  0  0  0  0  0
   17.7675  -11.1510   12.6830 C   0  0  0  0  0  0  0  0  0  0  0  0
   17.5845   -9.7346   10.5975 C   0  0  0  0  0  0  0  0  0  0  0  0
   16.3790  -10.2892   10.2656 N   0  0  0  0  0  0  0  0  0  0  0  0
   15.7803  -10.0442    9.0590 C   0  0  0  0  0  0  0  0  0  0  0  0
   16.3772   -9.2263    8.1441 N   0  0  0  0  0  0  0  0  0  0  0  0
   17.5706   -8.6685    8.4590 C   0  0  0  0  0  0  0  0  0  0  0  0
   18.2776   -7.8457    7.6735 N   0  0  0  0  0  0  0  0  0  0  0  0
   19.3808   -7.5503    8.4048 C   0  0  0  0  0  0  0  0  0  0  0  0
   19.3662   -8.1871    9.6481 C   0  0  0  0  0  0  0  0  0  0  0  0
   18.1867   -8.8988    9.6487 C   0  0  0  0  0  0  0  0  0  0  0  0
   18.0485   -7.5275    6.7705 H   0  0  0  0  0  0  0  0  0  0  0  0
  1  2  1  0  0  0
 20  2  1  0  0  0
 20 21  1  0  0  0
 21 22  1  0  0  0
 22 23  1  0  0  0
 23 24  1  0  0  0
 23 25  1  0  0  0
 25 26  2  0  0  0
 26 27  1  0  0  0
 27 28  2  0  0  0
 28 29  1  0  0  0
 29 30  1  0  0  0
 30 31  1  0  0  0
 31 32  2  0  0  0
 32 33  1  0  0  0
  2  3  1  0  0  0
  3  4  2  0  0  0
  4  5  1  0  0  0
  5  6  2  0  0  0
  6  7  1  0  0  0
  7  8  2  0  0  0
  6  9  1  0  0  0
  9 10  2  0  0  0
  9 11  2  0  0  0
  9 12  1  0  0  0
 12 14  1  0  0  0
 14 15  1  0  0  0
 15 16  1  0  0  0
 16 17  1  0  0  0
 17 18  1  0  0  0
 18 19  1  0  0  0
 24 20  1  0  0  0
 33 25  1  0  0  0
  8  3  1  0  0  0
 19 14  1  0  0  0
 33 29  2  0  0  0
 30 34  1  0  0  0
 12 13  1  0  0  0
M  END
>  <minimizedAffinity>
-0.57604

>  <minimizedRMSD>
2.74515

$$$$
CHEMBL4163188 PubChem-145956797


 30 34  0  0  0  0  0  0  0  0999 V2000
   17.0643   -9.9316   12.2081 C   0  0  0  0  0  0  0  0  0  0  0  0
   16.3461   -9.0369   13.0248 C   0  0  0  0  0  0  0  0  0  0  0  0
   16.4986   -9.1491   14.4039 C   0  0  0  0  0  0  0  0  0  0  0  0
   17.3182  -10.0842   14.9654 C   0  0  0  0  0  0  0  0  0  0  0  0
   18.0521  -10.9861   14.1980 C   0  0  0  0  0  0  0  0  0  0  0  0
   17.9205  -10.8967   12.8009 C   0  0  0  0  0  0  0  0  0  0  0  0
   17.2636   -9.9667   16.2986 N   0  0  0  0  0  0  0  0  0  0  0  0
   16.3929   -8.9417   16.5051 C   0  0  0  0  0  0  0  0  0  0  0  0
   15.8949   -8.4142   15.3563 N   0  0  0  0  0  0  0  0  0  0  0  0
   17.9185  -10.8260   17.2737 C   0  0  0  0  0  0  0  0  0  0  0  0
   15.9942   -8.4531   17.7917 N   0  0  0  0  0  0  0  0  0  0  0  0
   16.5785   -8.6521   18.5587 H   0  0  0  0  0  0  0  0  0  0  0  0
   14.7851   -7.6829   18.0428 C   0  0  0  0  0  0  0  0  0  0  0  0
   14.5746   -7.5273   19.5107 C   0  0  0  0  0  0  0  0  0  0  0  0
   15.6503   -7.1860   20.3386 C   0  0  0  0  0  0  0  0  0  0  0  0
   15.4604   -7.0609   21.7183 C   0  0  0  0  0  0  0  0  0  0  0  0
   14.1956   -7.2812   22.2727 C   0  0  0  0  0  0  0  0  0  0  0  0
   13.1211   -7.6279   21.4478 C   0  0  0  0  0  0  0  0  0  0  0  0
   13.3110   -7.7529   20.0683 C   0  0  0  0  0  0  0  0  0  0  0  0
   16.9432   -9.8145   10.8176 O   0  0  0  0  0  0  0  0  0  0  0  0
   18.9039   -8.4735   10.5329 N   0  0  0  0  0  0  0  0  0  0  0  0
   19.8157   -7.8053    9.7557 C   0  0  0  0  0  0  0  0  0  0  0  0
   19.7015   -7.8066    8.3938 N   0  0  0  0  0  0  0  0  0  0  0  0
   18.6667   -8.4880    7.8463 C   0  0  0  0  0  0  0  0  0  0  0  0
   17.7523   -9.1563    8.5913 C   0  0  0  0  0  0  0  0  0  0  0  0
   17.8646   -9.1693    9.9822 C   0  0  0  0  0  0  0  0  0  0  0  0
   16.8206   -9.6554    7.6955 C   0  0  0  0  0  0  0  0  0  0  0  0
   17.2206   -9.2797    6.4502 N   0  0  0  0  0  0  0  0  0  0  0  0
   18.3400   -8.5732    6.5532 N   0  0  0  0  0  0  0  0  0  0  0  0
   19.0458   -7.9820    5.4302 C   0  0  0  0  0  0  0  0  0  0  0  0
 21 22  2  0  0  0
 22 23  1  0  0  0
 23 24  2  0  0  0
 24 25  1  0  0  0
 25 26  2  0  0  0
 26 20  1  0  0  0
 20  1  1  0  0  0
  1  2  2  0  0  0
  2  3  1  0  0  0
  3  4  2  0  0  0
  4  5  1  0  0  0
  5  6  2  0  0  0
  4  7  1  0  0  0
  7  8  1  0  0  0
  8  9  2  0  0  0
  8 11  1  0  0  0
 11 13  1  0  0  0
 13 14  1  0  0  0
 14 15  2  0  0  0
 15 16  1  0  0  0
 16 17  2  0  0  0
 17 18  1  0  0  0
 18 19  2  0  0  0
  7 10  1  0  0  0
 25 27  1  0  0  0
 27 28  2  0  0  0
 28 29  1  0  0  0
 29 30  1  0  0  0
 26 21  1  0  0  0
  6  1  1  0  0  0
 19 14  1  0  0  0
 29 24  1  0  0  0
  9  3  1  0  0  0
 11 12  1  0  0  0
M  END
>  <minimizedAffinity>
-8.95027

>  <minimizedRMSD>
2.74892

$$$$
CHEMBL608796 PubChem-46877113


 35 39  0  0  0  0  0  0  0  0999 V2000
   15.9380   -9.0851   18.0101 N   0  0  0  0  0  0  0  0  0  0  0  0
   16.1542   -8.6895   16.7491 C   0  0  0  0  0  0  0  0  0  0  0  0
   16.9240   -9.6029   16.1204 C   0  0  0  0  0  0  0  0  0  0  0  0
   17.2239  -10.6180   16.9519 N   0  0  0  0  0  0  0  0  0  0  0  0
   16.5943  -10.2687   18.1099 C   0  0  0  0  0  0  0  0  0  0  0  0
   17.2835   -9.4130   14.7940 C   0  0  0  0  0  0  0  0  0  0  0  0
   16.8282   -8.2841   14.1693 N   0  0  0  0  0  0  0  0  0  0  0  0
   16.0433   -7.3716   14.8286 C   0  0  0  0  0  0  0  0  0  0  0  0
   15.6965   -7.5705   16.1363 N   0  0  0  0  0  0  0  0  0  0  0  0
   15.1290   -8.4541   19.0509 C   0  0  0  0  0  0  0  0  0  0  0  0
   13.8250   -7.8885   18.5196 C   0  0  0  0  0  0  0  0  0  0  0  0
   13.5415   -6.8343   19.5500 C   0  0  0  0  0  0  0  0  0  0  0  0
   14.9186   -6.4303   20.0390 C   0  0  0  0  0  0  0  0  0  0  0  0
   15.8478   -7.4382   19.7103 O   0  0  0  0  0  0  0  0  0  0  0  0
   12.8704   -5.7368   19.0044 O   0  0  0  0  0  0  0  0  0  0  0  0
   14.0159   -7.3061   17.2601 O   0  0  0  0  0  0  0  0  0  0  0  0
   13.4001   -5.3589   18.2850 H   0  0  0  0  0  0  0  0  0  0  0  0
   14.7172   -6.6382   17.3157 H   0  0  0  0  0  0  0  0  0  0  0  0
   14.9097   -6.2100   21.5424 C   0  0  0  0  0  0  0  0  0  0  0  0
   14.1973   -5.0510   21.8516 O   0  0  0  0  0  0  0  0  0  0  0  0
   14.6181   -4.2890   21.4237 H   0  0  0  0  0  0  0  0  0  0  0  0
   18.1019  -10.3648   14.1098 N   0  0  0  0  0  0  0  0  0  0  0  0
   18.7827  -10.8558   14.6243 H   0  0  0  0  0  0  0  0  0  0  0  0
   17.9732  -10.6406   12.6846 C   0  0  0  0  0  0  0  0  0  0  0  0
   16.8455   -9.8148   12.0749 C   0  0  0  0  0  0  0  0  0  0  0  0
   17.0718   -9.5729   10.6195 C   0  0  0  0  0  0  0  0  0  0  0  0
   18.0975   -8.7180   10.2096 C   0  0  0  0  0  0  0  0  0  0  0  0
   18.3061   -8.4907    8.8497 C   0  0  0  0  0  0  0  0  0  0  0  0
   17.4694   -9.1283    7.9075 C   0  0  0  0  0  0  0  0  0  0  0  0
   16.4736   -9.9513    8.3321 N   0  0  0  0  0  0  0  0  0  0  0  0
   16.2595  -10.1830    9.6558 C   0  0  0  0  0  0  0  0  0  0  0  0
   17.6683   -8.9092    6.5416 C   0  0  0  0  0  0  0  0  0  0  0  0
   18.6944   -8.0604    6.1131 C   0  0  0  0  0  0  0  0  0  0  0  0
   19.5227   -7.4293    7.0480 C   0  0  0  0  0  0  0  0  0  0  0  0
   19.3293   -7.6436    8.4167 C   0  0  0  0  0  0  0  0  0  0  0  0
  1 10  1  0  0  0
 10 11  1  0  0  0
 11 12  1  0  0  0
 12 13  1  0  0  0
 13 14  1  0  0  0
 13 19  1  0  0  0
 19 20  1  0  0  0
 12 15  1  0  0  0
 11 16  1  0  0  0
  1  2  1  0  0  0
  2  3  2  0  0  0
  3  4  1  0  0  0
  4  5  2  0  0  0
  3  6  1  0  0  0
  6  7  2  0  0  0
  7  8  1  0  0  0
  8  9  2  0  0  0
  6 22  1  0  0  0
 22 24  1  0  0  0
 24 25  1  0  0  0
 25 26  1  0  0  0
 26 27  2  0  0  0
 27 28  1  0  0  0
 28 29  2  0  0  0
 29 30  1  0  0  0
 30 31  2  0  0  0
 29 32  1  0  0  0
 32 33  2  0  0  0
 33 34  1  0  0  0
 34 35  2  0  0  0
  5  1  1  0  0  0
 31 26  1  0  0  0
 14 10  1  0  0  0
  9  2  1  0  0  0
 35 28  1  0  0  0
 20 21  1  0  0  0
 15 17  1  0  0  0
 16 18  1  0  0  0
 22 23  1  0  0  0
M  END
>  <minimizedAffinity>
-5.81848

>  <minimizedRMSD>
2.75111

$$$$
CHEMBL5078554


 37 42  0  0  0  0  0  0  0  0999 V2000
   18.3159   -9.2993   10.7784 N   0  0  0  0  0  0  0  0  0  0  0  0
   19.3712   -8.6005   10.2480 C   0  0  0  0  0  0  0  0  0  0  0  0
   19.3299   -8.2455    8.9268 N   0  0  0  0  0  0  0  0  0  0  0  0
   18.3032   -8.5476    8.1221 C   0  0  0  0  0  0  0  0  0  0  0  0
   18.4766   -8.0889    6.8709 N   0  0  0  0  0  0  0  0  0  0  0  0
   19.6924   -7.4876    6.9875 C   0  0  0  0  0  0  0  0  0  0  0  0
   20.2257   -7.5730    8.2332 N   0  0  0  0  0  0  0  0  0  0  0  0
   17.2333   -9.2520    8.6400 C   0  0  0  0  0  0  0  0  0  0  0  0
   17.2735   -9.6095    9.9526 C   0  0  0  0  0  0  0  0  0  0  0  0
   16.1475  -10.2606   10.2622 N   0  0  0  0  0  0  0  0  0  0  0  0
   15.3853  -10.3192    9.1736 N   0  0  0  0  0  0  0  0  0  0  0  0
   16.0281   -9.7059    8.1407 C   0  0  0  0  0  0  0  0  0  0  0  0
   20.4838   -8.2498   11.0640 N   0  0  0  0  0  0  0  0  0  0  0  0
   20.5004   -8.5118   12.0129 H   0  0  0  0  0  0  0  0  0  0  0  0
   21.2367   -7.7454   10.6793 H   0  0  0  0  0  0  0  0  0  0  0  0
   20.3585   -6.8109    5.8711 C   0  0  0  0  0  0  0  0  0  0  0  0
   21.5700   -7.1747    5.3233 C   0  0  0  0  0  0  0  0  0  0  0  0
   21.7882   -6.2570    4.3104 C   0  0  0  0  0  0  0  0  0  0  0  0
   20.7000   -5.4008    4.3104 C   0  0  0  0  0  0  0  0  0  0  0  0
   19.8689   -5.7647    5.2567 O   0  0  0  0  0  0  0  0  0  0  0  0
   15.7551  -10.7599   11.5717 C   0  0  0  0  0  0  0  0  0  0  0  0
   15.1427   -9.6432   12.4048 C   0  0  0  0  0  0  0  0  0  0  0  0
   16.1721   -8.9744   13.1866 N   0  0  0  0  0  0  0  0  0  0  0  0
   16.7770   -9.9909   14.0650 C   0  0  0  0  0  0  0  0  0  0  0  0
   16.4972   -9.5522   15.4441 C   0  0  0  0  0  0  0  0  0  0  0  0
   15.7695   -8.4061   15.4343 C   0  0  0  0  0  0  0  0  0  0  0  0
   15.4967   -7.9870   14.0486 C   0  0  0  0  0  0  0  0  0  0  0  0
   15.3666   -7.7855   16.6160 C   0  0  0  0  0  0  0  0  0  0  0  0
   15.7339   -8.3716   17.8435 C   0  0  0  0  0  0  0  0  0  0  0  0
   16.4911   -9.5639   17.8444 C   0  0  0  0  0  0  0  0  0  0  0  0
   16.8788  -10.1652   16.6363 C   0  0  0  0  0  0  0  0  0  0  0  0
   15.3303   -7.7475   19.1154 C   0  0  0  0  0  0  0  0  0  0  0  0
   14.1139   -7.7145   19.4466 O   0  0  0  0  0  0  0  0  0  0  0  0
   16.3138   -7.1768   19.9793 N   0  0  0  0  0  0  0  0  0  0  0  0
   15.9589   -6.5996   21.1510 O   0  0  0  0  0  0  0  0  0  0  0  0
   17.2629   -7.2035   19.7191 H   0  0  0  0  0  0  0  0  0  0  0  0
   14.9966   -6.6542   21.2599 H   0  0  0  0  0  0  0  0  0  0  0  0
  1  2  2  0  0  0
  2  3  1  0  0  0
  3  4  1  0  0  0
  4  5  2  0  0  0
  5  6  1  0  0  0
  6  7  2  0  0  0
  6 16  1  0  0  0
 16 17  2  0  0  0
 17 18  1  0  0  0
 18 19  2  0  0  0
 19 20  1  0  0  0
  4  8  1  0  0  0
  8  9  2  0  0  0
  9 10  1  0  0  0
 10 11  1  0  0  0
 11 12  2  0  0  0
 10 21  1  0  0  0
 21 22  1  0  0  0
 22 23  1  0  0  0
 23 24  1  0  0  0
 24 25  1  0  0  0
 25 26  2  0  0  0
 26 27  1  0  0  0
 26 28  1  0  0  0
 28 29  2  0  0  0
 29 30  1  0  0  0
 30 31  2  0  0  0
 29 32  1  0  0  0
 32 33  2  0  0  0
 32 34  1  0  0  0
 34 35  1  0  0  0
  2 13  1  0  0  0
  9  1  1  0  0  0
 27 23  1  0  0  0
  7  3  1  0  0  0
 20 16  1  0  0  0
 12  8  1  0  0  0
 31 25  1  0  0  0
 34 36  1  0  0  0
 35 37  1  0  0  0
 13 14  1  0  0  0
 13 15  1  0  0  0
M  END
>  <minimizedAffinity>
-2.73364

>  <minimizedRMSD>
2.75894

$$$$
CHEMBL157775


 40 42  0  0  0  0  0  0  0  0999 V2000
   17.9409   -9.2839   15.5637 C   0  0  0  0  0  0  0  0  0  0  0  0
   17.9654   -9.6830   16.9022 C   0  0  0  0  0  0  0  0  0  0  0  0
   17.0247   -9.1732   17.8015 C   0  0  0  0  0  0  0  0  0  0  0  0
   16.0470   -8.2650   17.3679 C   0  0  0  0  0  0  0  0  0  0  0  0
   16.0219   -7.8775   16.0198 C   0  0  0  0  0  0  0  0  0  0  0  0
   16.9639   -8.3853   15.1209 C   0  0  0  0  0  0  0  0  0  0  0  0
   15.0591   -7.7242   18.3165 C   0  0  0  0  0  0  0  0  0  0  0  0
   15.3751   -7.5514   19.5254 O   0  0  0  0  0  0  0  0  0  0  0  0
   13.7435   -7.3884   17.8633 N   0  0  0  0  0  0  0  0  0  0  0  0
   13.5460   -7.4671   16.9021 H   0  0  0  0  0  0  0  0  0  0  0  0
   12.6819   -6.9360   18.7529 C   0  0  0  0  0  0  0  0  0  0  0  0
   11.5726   -6.3553   17.9450 C   0  0  0  0  0  0  0  0  0  0  0  0
   11.3122   -5.1272   18.0315 O   0  0  0  0  0  0  0  0  0  0  0  0
   10.8273   -7.1623   17.0931 O   0  0  0  0  0  0  0  0  0  0  0  0
   11.0193   -8.0770   17.0271 H   0  0  0  0  0  0  0  0  0  0  0  0
   12.1524   -8.1029   19.5785 C   0  0  0  0  0  0  0  0  0  0  0  0
   12.5112   -7.9486   21.0480 C   0  0  0  0  0  0  0  0  0  0  0  0
   12.7360   -6.5162   21.3954 C   0  0  0  0  0  0  0  0  0  0  0  0
   11.7578   -5.7335   21.5225 O   0  0  0  0  0  0  0  0  0  0  0  0
   14.0267   -6.0510   21.6011 O   0  0  0  0  0  0  0  0  0  0  0  0
   14.7550   -6.6329   21.5067 H   0  0  0  0  0  0  0  0  0  0  0  0
   18.9376   -9.8387   14.6027 C   0  0  0  0  0  0  0  0  0  0  0  0
   18.3003  -10.7969   13.7045 N   0  0  0  0  0  0  0  0  0  0  0  0
   18.1620  -12.1384   14.1907 C   0  0  0  0  0  0  0  0  0  0  0  0
   17.7740  -13.0758   13.4454 O   0  0  0  0  0  0  0  0  0  0  0  0
   16.8384   -7.9865    6.5788 N   0  0  0  0  0  0  0  0  0  0  0  0
   17.3159   -8.3930    7.8549 C   0  0  0  0  0  0  0  0  0  0  0  0
   18.5586   -8.0210    8.2642 N   0  0  0  0  0  0  0  0  0  0  0  0
   19.0389   -8.3904    9.4809 C   0  0  0  0  0  0  0  0  0  0  0  0
   20.3187   -8.0047    9.8606 O   0  0  0  0  0  0  0  0  0  0  0  0
   18.2437   -9.1659   10.3301 C   0  0  0  0  0  0  0  0  0  0  0  0
   18.6827   -9.5849   11.5875 C   0  0  0  0  0  0  0  0  0  0  0  0
   17.8557  -10.3773   12.3965 C   0  0  0  0  0  0  0  0  0  0  0  0
   16.5816  -10.7186   11.9143 C   0  0  0  0  0  0  0  0  0  0  0  0
   16.1665  -10.2990   10.6885 N   0  0  0  0  0  0  0  0  0  0  0  0
   16.9614   -9.5378    9.8917 C   0  0  0  0  0  0  0  0  0  0  0  0
   16.5267   -9.1468    8.6657 N   0  0  0  0  0  0  0  0  0  0  0  0
   17.4089   -7.4407    5.9907 H   0  0  0  0  0  0  0  0  0  0  0  0
   15.9372   -8.2509    6.2833 H   0  0  0  0  0  0  0  0  0  0  0  0
   20.8422   -7.4850    9.2829 H   0  0  0  0  0  0  0  0  0  0  0  0
 26 27  1  0  0  0
 27 28  2  0  0  0
 28 29  1  0  0  0
 29 30  1  0  0  0
 29 31  2  0  0  0
 31 32  1  0  0  0
 32 33  2  0  0  0
 33 23  1  0  0  0
 33 34  1  0  0  0
 23 24  1  0  0  0
 23 22  1  0  0  0
 24 25  2  0  0  0
 22  1  1  0  0  0
  1  2  2  0  0  0
  2  3  1  0  0  0
  3  4  2  0  0  0
  4  7  1  0  0  0
  4  5  1  0  0  0
  7  8  2  0  0  0
  7  9  1  0  0  0
 11  9  1  0  0  0
 11 16  1  0  0  0
 11 12  1  0  0  0
 16 17  1  0  0  0
 17 18  1  0  0  0
 18 19  2  0  0  0
 18 20  1  0  0  0
 12 13  2  0  0  0
 12 14  1  0  0  0
  5  6  2  0  0  0
  6  1  1  0  0  0
 34 35  2  0  0  0
 35 36  1  0  0  0
 36 37  2  0  0  0
 36 31  1  0  0  0
 37 27  1  0  0  0
 26 38  1  0  0  0
 26 39  1  0  0  0
 30 40  1  0  0  0
  9 10  1  0  0  0
 20 21  1  0  0  0
 14 15  1  0  0  0
M  END
>  <minimizedAffinity>
-7.15863

>  <minimizedRMSD>
2.76328

$$$$
CHEMBL2037408 PubChem-60166878


 33 37  0  0  0  0  0  0  0  0999 V2000
   18.5232   -9.8037   15.8805 C   0  0  0  0  0  0  0  0  0  0  0  0
   16.8724   -9.0738   17.6364 N   0  0  0  0  0  0  0  0  0  0  0  0
   17.4125   -8.9163   16.3197 C   0  0  0  0  0  0  0  0  0  0  0  0
   16.9483   -8.0619   15.5190 O   0  0  0  0  0  0  0  0  0  0  0  0
   17.2653   -9.7830   18.1948 H   0  0  0  0  0  0  0  0  0  0  0  0
   12.3976   -5.7286   20.2337 C   0  0  0  0  0  0  0  0  0  0  0  0
   13.3005   -5.9459   21.3020 C   0  0  0  0  0  0  0  0  0  0  0  0
   14.4768   -6.6889   21.1104 C   0  0  0  0  0  0  0  0  0  0  0  0
   14.7363   -7.2093   19.8432 C   0  0  0  0  0  0  0  0  0  0  0  0
   15.8362   -7.9381   19.5272 N   0  0  0  0  0  0  0  0  0  0  0  0
   15.8169   -8.3019   18.2222 C   0  0  0  0  0  0  0  0  0  0  0  0
   14.4363   -7.7306   17.4142 S   0  0  0  0  0  0  0  0  0  0  0  0
   13.8496   -6.9929   18.8008 C   0  0  0  0  0  0  0  0  0  0  0  0
   12.6774   -6.2604   18.9642 C   0  0  0  0  0  0  0  0  0  0  0  0
   11.2233   -4.9914   20.4104 O   0  0  0  0  0  0  0  0  0  0  0  0
    9.1958   -5.7398   21.4476 C   0  0  0  0  0  0  0  0  0  0  0  0
   10.4960   -4.9855   21.6315 C   0  0  0  0  0  0  0  0  0  0  0  0
   17.8551  -11.3419   15.1800 S   0  0  0  0  0  0  0  0  0  0  0  0
   17.7754  -10.6544   13.5320 C   0  0  0  0  0  0  0  0  0  0  0  0
   18.7929  -10.6897   12.6517 N   0  0  0  0  0  0  0  0  0  0  0  0
   18.3546  -10.0854   11.5586 N   0  0  0  0  0  0  0  0  0  0  0  0
   17.0906   -9.7047   11.8211 C   0  0  0  0  0  0  0  0  0  0  0  0
   16.7244  -10.0535   13.0300 O   0  0  0  0  0  0  0  0  0  0  0  0
   16.2115   -9.0033   10.8437 C   0  0  0  0  0  0  0  0  0  0  0  0
   16.6333   -9.3073    9.4849 N   0  0  0  0  0  0  0  0  0  0  0  0
   16.1938  -10.3282    8.7106 C   0  0  0  0  0  0  0  0  0  0  0  0
   16.8195  -10.3666    7.5026 N   0  0  0  0  0  0  0  0  0  0  0  0
   17.6779   -9.3308    7.5584 C   0  0  0  0  0  0  0  0  0  0  0  0
   18.5791   -8.9184    6.5800 C   0  0  0  0  0  0  0  0  0  0  0  0
   19.3879   -7.8035    6.8739 C   0  0  0  0  0  0  0  0  0  0  0  0
   19.2771   -7.1424    8.1187 C   0  0  0  0  0  0  0  0  0  0  0  0
   18.3560   -7.5861    9.0856 C   0  0  0  0  0  0  0  0  0  0  0  0
   17.5720   -8.6910    8.7560 C   0  0  0  0  0  0  0  0  0  0  0  0
 16 17  1  0  0  0
 17 15  1  0  0  0
 15  6  1  0  0  0
  6  7  2  0  0  0
  7  8  1  0  0  0
  8  9  2  0  0  0
  9 10  1  0  0  0
 10 11  2  0  0  0
 11  2  1  0  0  0
 11 12  1  0  0  0
  2  3  1  0  0  0
  3  4  2  0  0  0
  3  1  1  0  0  0
  1 18  1  0  0  0
 18 19  1  0  0  0
 19 20  2  0  0  0
 20 21  1  0  0  0
 21 22  2  0  0  0
 22 24  1  0  0  0
 22 23  1  0  0  0
 24 25  1  0  0  0
 25 26  1  0  0  0
 26 27  2  0  0  0
 27 28  1  0  0  0
 28 29  2  0  0  0
 29 30  1  0  0  0
 30 31  2  0  0  0
 31 32  1  0  0  0
 32 33  2  0  0  0
 33 25  1  0  0  0
 33 28  1  0  0  0
 23 19  1  0  0  0
 12 13  1  0  0  0
 13 14  2  0  0  0
 13  9  1  0  0  0
 14  6  1  0  0  0
  2  5  1  0  0  0
M  END
>  <minimizedAffinity>
-4.96144

>  <minimizedRMSD>
2.76888

$$$$
CHEMBL573053 PubChem-44612959 PubChem-44612960


 36 38  0  0  0  0  0  0  0  0999 V2000
   17.4964   -8.8033   15.3047 C   0  0  0  0  0  0  0  0  0  0  0  0
   17.3406   -9.3366   14.0218 C   0  0  0  0  0  0  0  0  0  0  0  0
   18.4134   -9.9625   13.3710 C   0  0  0  0  0  0  0  0  0  0  0  0
   19.6533  -10.0333   14.0140 C   0  0  0  0  0  0  0  0  0  0  0  0
   19.8196   -9.4972   15.2936 C   0  0  0  0  0  0  0  0  0  0  0  0
   18.7459   -8.8817   15.9425 C   0  0  0  0  0  0  0  0  0  0  0  0
   18.9315   -8.3495   17.2129 O   0  0  0  0  0  0  0  0  0  0  0  0
   19.7696   -8.4082   17.6276 H   0  0  0  0  0  0  0  0  0  0  0  0
   18.2909  -10.5137   12.0513 N   0  0  0  0  0  0  0  0  0  0  0  0
   18.8990  -11.2585   11.8401 H   0  0  0  0  0  0  0  0  0  0  0  0
   17.3944  -10.1186   10.9968 C   0  0  0  0  0  0  0  0  0  0  0  0
   17.8722   -9.3309    9.9350 C   0  0  0  0  0  0  0  0  0  0  0  0
   19.2075   -8.9047    9.8855 C   0  0  0  0  0  0  0  0  0  0  0  0
   19.6569   -8.1201    8.8198 C   0  0  0  0  0  0  0  0  0  0  0  0
   18.7771   -7.7555    7.7965 C   0  0  0  0  0  0  0  0  0  0  0  0
   17.4444   -8.1747    7.8340 C   0  0  0  0  0  0  0  0  0  0  0  0
   16.9865   -8.9598    8.8959 C   0  0  0  0  0  0  0  0  0  0  0  0
   15.6912   -9.3682    8.9266 N   0  0  0  0  0  0  0  0  0  0  0  0
   15.2123  -10.1352    9.9408 C   0  0  0  0  0  0  0  0  0  0  0  0
   16.0524  -10.5227   10.9857 C   0  0  0  0  0  0  0  0  0  0  0  0
   19.3458   -6.7727    6.4648 Cl  0  0  0  0  0  0  0  0  0  0  0  0
   16.3226   -8.1485   15.9604 C   0  0  0  0  0  0  0  0  0  0  0  0
   15.8583   -8.9467   17.0882 N   0  0  0  0  0  0  0  0  0  0  0  0
   15.8155  -10.3318   16.6466 C   0  0  0  0  0  0  0  0  0  0  0  0
   16.9814  -11.0970   17.2424 C   0  0  0  0  0  0  0  0  0  0  0  0
   14.4810   -8.5559   17.3474 C   0  0  0  0  0  0  0  0  0  0  0  0
   14.4305   -7.1564   17.9375 C   0  0  0  0  0  0  0  0  0  0  0  0
   13.6760   -6.4283   20.2283 C   0  0  0  0  0  0  0  0  0  0  0  0
   12.8374   -5.6306   19.7258 O   0  0  0  0  0  0  0  0  0  0  0  0
   14.5079   -7.2270   19.3881 N   0  0  0  0  0  0  0  0  0  0  0  0
   15.1534   -7.8440   19.8025 H   0  0  0  0  0  0  0  0  0  0  0  0
   15.0011   -5.8278   22.1533 N   0  0  0  0  0  0  0  0  0  0  0  0
   13.8153   -6.5396   21.7098 C   0  0  0  0  0  0  0  0  0  0  0  0
   12.5902   -5.9747   22.4027 C   0  0  0  0  0  0  0  0  0  0  0  0
   15.8224   -6.2107   21.6851 H   0  0  0  0  0  0  0  0  0  0  0  0
   15.1042   -5.9348   23.1624 H   0  0  0  0  0  0  0  0  0  0  0  0
 32 33  1  0  0  0
 33 28  1  0  0  0
 28 29  2  0  0  0
 28 30  1  0  0  0
 30 27  1  0  0  0
 27 26  1  0  0  0
 26 23  1  0  0  0
 23 22  1  0  0  0
 22  1  1  0  0  0
  1  2  2  0  0  0
  2  3  1  0  0  0
  3  9  1  0  0  0
  9 11  1  0  0  0
 11 12  1  0  0  0
 12 13  2  0  0  0
 13 14  1  0  0  0
 14 15  2  0  0  0
 15 16  1  0  0  0
 16 17  2  0  0  0
 17 18  1  0  0  0
 18 19  2  0  0  0
 19 20  1  0  0  0
 15 21  1  0  0  0
  3  4  2  0  0  0
  4  5  1  0  0  0
  5  6  2  0  0  0
  6  7  1  0  0  0
 23 24  1  0  0  0
 24 25  1  0  0  0
 33 34  1  0  0  0
  6  1  1  0  0  0
 20 11  2  0  0  0
 17 12  1  0  0  0
 32 35  1  0  0  0
 32 36  1  0  0  0
 30 31  1  0  0  0
  9 10  1  0  0  0
  7  8  1  0  0  0
M  END
>  <minimizedAffinity>
-4.92261

>  <minimizedRMSD>
2.77699

$$$$
CHEMBL251096 PubChem-25138048


 32 35  0  0  0  0  0  0  0  0999 V2000
   16.9227   -9.9507   10.5148 C   0  0  0  0  0  0  0  0  0  0  0  0
   15.8740   -9.8441    9.6031 C   0  0  0  0  0  0  0  0  0  0  0  0
   14.5676   -9.8872   10.0855 C   0  0  0  0  0  0  0  0  0  0  0  0
   14.3401  -10.0205   11.4178 N   0  0  0  0  0  0  0  0  0  0  0  0
   15.3721  -10.1089   12.3006 C   0  0  0  0  0  0  0  0  0  0  0  0
   16.6510  -10.0659   11.8432 N   0  0  0  0  0  0  0  0  0  0  0  0
   18.2719   -9.8715   10.0453 N   0  0  0  0  0  0  0  0  0  0  0  0
   18.9401  -10.4359   10.4973 H   0  0  0  0  0  0  0  0  0  0  0  0
   20.1710   -7.7457   10.5978 C   0  0  0  0  0  0  0  0  0  0  0  0
   19.6412   -7.9833    9.2254 C   0  0  0  0  0  0  0  0  0  0  0  0
   20.0743   -7.1426    8.1761 C   0  0  0  0  0  0  0  0  0  0  0  0
   19.5984   -7.3197    6.8657 C   0  0  0  0  0  0  0  0  0  0  0  0
   18.6892   -8.3526    6.6506 C   0  0  0  0  0  0  0  0  0  0  0  0
   18.2658   -9.1764    7.6554 C   0  0  0  0  0  0  0  0  0  0  0  0
   17.3278  -10.0216    7.0836 C   0  0  0  0  0  0  0  0  0  0  0  0
   17.2322   -9.6948    5.7693 N   0  0  0  0  0  0  0  0  0  0  0  0
   18.0583   -8.6881    5.5180 N   0  0  0  0  0  0  0  0  0  0  0  0
   18.2047   -8.0597    4.2162 C   0  0  0  0  0  0  0  0  0  0  0  0
   18.7339   -9.0386    8.9708 C   0  0  0  0  0  0  0  0  0  0  0  0
   15.1395  -10.2438   13.7091 N   0  0  0  0  0  0  0  0  0  0  0  0
   14.3805  -10.8124   13.9734 H   0  0  0  0  0  0  0  0  0  0  0  0
   15.8867   -9.6446   14.7771 C   0  0  0  0  0  0  0  0  0  0  0  0
   17.2824   -9.7275   14.7487 C   0  0  0  0  0  0  0  0  0  0  0  0
   18.0461   -9.1578   15.7707 C   0  0  0  0  0  0  0  0  0  0  0  0
   17.4162   -8.5002   16.8303 C   0  0  0  0  0  0  0  0  0  0  0  0
   16.0187   -8.4080   16.8750 C   0  0  0  0  0  0  0  0  0  0  0  0
   15.2616   -8.9831   15.8445 C   0  0  0  0  0  0  0  0  0  0  0  0
   15.3520   -7.7153   17.9913 C   0  0  0  0  0  0  0  0  0  0  0  0
   15.9824   -7.6276   19.2661 N   0  0  0  0  0  0  0  0  0  0  0  0
   14.2168   -7.1933   17.8292 O   0  0  0  0  0  0  0  0  0  0  0  0
   16.8694   -8.0314   19.4054 H   0  0  0  0  0  0  0  0  0  0  0  0
   15.5311   -7.1631   20.0075 H   0  0  0  0  0  0  0  0  0  0  0  0
  9 10  1  0  0  0
 10 11  2  0  0  0
 11 12  1  0  0  0
 12 13  2  0  0  0
 13 14  1  0  0  0
 14 15  1  0  0  0
 14 19  2  0  0  0
 15 16  2  0  0  0
 16 17  1  0  0  0
 17 18  1  0  0  0
 17 13  1  0  0  0
 19  7  1  0  0  0
 19 10  1  0  0  0
  7  1  1  0  0  0
  1  2  2  0  0  0
  2  3  1  0  0  0
  3  4  2  0  0  0
  4  5  1  0  0  0
  5 20  1  0  0  0
  5  6  2  0  0  0
 20 22  1  0  0  0
 22 23  2  0  0  0
 23 24  1  0  0  0
 24 25  2  0  0  0
 25 26  1  0  0  0
 26 28  1  0  0  0
 26 27  2  0  0  0
 28 29  1  0  0  0
 28 30  2  0  0  0
 27 22  1  0  0  0
  6  1  1  0  0  0
  7  8  1  0  0  0
 20 21  1  0  0  0
 29 31  1  0  0  0
 29 32  1  0  0  0
M  END
>  <minimizedAffinity>
-0.99212

>  <minimizedRMSD>
2.78066

$$$$
CHEMBL2235541 PubChem-25108333


 29 32  0  0  0  0  0  0  0  0999 V2000
   16.6533   -9.0890   15.0651 C   0  0  0  0  0  0  0  0  0  0  0  0
   15.9650   -8.3292   14.1932 N   0  0  0  0  0  0  0  0  0  0  0  0
   16.2894   -8.7674   12.9865 N   0  0  0  0  0  0  0  0  0  0  0  0
   17.1578   -9.7785   13.1761 C   0  0  0  0  0  0  0  0  0  0  0  0
   17.3911   -9.9803   14.4496 O   0  0  0  0  0  0  0  0  0  0  0  0
   16.5688   -8.9025   16.8418 S   0  0  0  0  0  0  0  0  0  0  0  0
   15.0321   -7.9333   16.7597 C   0  0  0  0  0  0  0  0  0  0  0  0
   15.3314   -7.9706   19.2658 N   0  0  0  0  0  0  0  0  0  0  0  0
   14.6658   -7.4385   18.1149 C   0  0  0  0  0  0  0  0  0  0  0  0
   13.7639   -6.5671   18.2369 O   0  0  0  0  0  0  0  0  0  0  0  0
   15.8814   -8.7779   19.1431 H   0  0  0  0  0  0  0  0  0  0  0  0
   12.9004   -8.3088   20.7695 C   0  0  0  0  0  0  0  0  0  0  0  0
   14.0751   -7.5849   21.3378 C   0  0  0  0  0  0  0  0  0  0  0  0
   13.9757   -7.0515   22.6261 C   0  0  0  0  0  0  0  0  0  0  0  0
   15.0522   -6.3618   23.1871 C   0  0  0  0  0  0  0  0  0  0  0  0
   16.2388   -6.2162   22.4667 C   0  0  0  0  0  0  0  0  0  0  0  0
   16.3524   -6.7396   21.1749 C   0  0  0  0  0  0  0  0  0  0  0  0
   17.6734   -6.6312   20.4902 C   0  0  0  0  0  0  0  0  0  0  0  0
   15.2539   -7.4108   20.5866 C   0  0  0  0  0  0  0  0  0  0  0  0
   17.7960  -10.5517   12.0744 C   0  0  0  0  0  0  0  0  0  0  0  0
   18.3990   -9.6415   11.1126 N   0  0  0  0  0  0  0  0  0  0  0  0
   19.5128   -8.9454   11.3181 N   0  0  0  0  0  0  0  0  0  0  0  0
   19.7894   -8.1711   10.2678 N   0  0  0  0  0  0  0  0  0  0  0  0
   18.7999   -8.3916    9.3822 C   0  0  0  0  0  0  0  0  0  0  0  0
   18.6117   -7.8251    8.1246 C   0  0  0  0  0  0  0  0  0  0  0  0
   17.4708   -8.2325    7.4031 C   0  0  0  0  0  0  0  0  0  0  0  0
   16.5689   -9.1770    7.9500 C   0  0  0  0  0  0  0  0  0  0  0  0
   16.7944   -9.7305    9.2262 C   0  0  0  0  0  0  0  0  0  0  0  0
   17.9336   -9.3014    9.9038 C   0  0  0  0  0  0  0  0  0  0  0  0
 12 13  1  0  0  0
 13 14  2  0  0  0
 14 15  1  0  0  0
 15 16  2  0  0  0
 16 17  1  0  0  0
 17 18  1  0  0  0
 17 19  2  0  0  0
 19  8  1  0  0  0
 19 13  1  0  0  0
  8  9  1  0  0  0
  9 10  2  0  0  0
  9  7  1  0  0  0
  7  6  1  0  0  0
  6  1  1  0  0  0
  1  2  2  0  0  0
  2  3  1  0  0  0
  3  4  2  0  0  0
  4 20  1  0  0  0
  4  5  1  0  0  0
 20 21  1  0  0  0
 21 22  1  0  0  0
 22 23  2  0  0  0
 23 24  1  0  0  0
 24 25  2  0  0  0
 25 26  1  0  0  0
 26 27  2  0  0  0
 27 28  1  0  0  0
 28 29  2  0  0  0
 29 21  1  0  0  0
 29 24  1  0  0  0
  5  1  1  0  0  0
  8 11  1  0  0  0
M  END
>  <minimizedAffinity>
-6.30960

>  <minimizedRMSD>
2.79031

$$$$
CHEMBL2037397 PubChem-60166635


 30 33  0  0  0  0  0  0  0  0999 V2000
   17.8443   -9.7634   15.3283 S   0  0  0  0  0  0  0  0  0  0  0  0
   17.5737  -10.0184   13.5789 C   0  0  0  0  0  0  0  0  0  0  0  0
   18.4721  -10.5838   12.7515 N   0  0  0  0  0  0  0  0  0  0  0  0
   17.9127  -10.5927   11.5514 N   0  0  0  0  0  0  0  0  0  0  0  0
   16.6987  -10.0305   11.6994 C   0  0  0  0  0  0  0  0  0  0  0  0
   16.4793   -9.6796   12.9427 O   0  0  0  0  0  0  0  0  0  0  0  0
   15.7159   -9.8622   10.5923 C   0  0  0  0  0  0  0  0  0  0  0  0
   16.4140   -9.7276    9.3225 N   0  0  0  0  0  0  0  0  0  0  0  0
   16.1973  -10.4510    8.1974 C   0  0  0  0  0  0  0  0  0  0  0  0
   17.0548  -10.1157    7.1950 N   0  0  0  0  0  0  0  0  0  0  0  0
   17.8237   -9.1569    7.7445 C   0  0  0  0  0  0  0  0  0  0  0  0
   18.8789   -8.4681    7.1516 C   0  0  0  0  0  0  0  0  0  0  0  0
   19.5476   -7.5089    7.9362 C   0  0  0  0  0  0  0  0  0  0  0  0
   19.1514   -7.2684    9.2717 C   0  0  0  0  0  0  0  0  0  0  0  0
   18.0805   -7.9833    9.8401 C   0  0  0  0  0  0  0  0  0  0  0  0
   17.4427   -8.9223    9.0307 C   0  0  0  0  0  0  0  0  0  0  0  0
   16.2539   -8.9090   15.5503 C   0  0  0  0  0  0  0  0  0  0  0  0
   14.9679   -7.7154   17.3625 N   0  0  0  0  0  0  0  0  0  0  0  0
   16.0209   -8.6142   16.9905 C   0  0  0  0  0  0  0  0  0  0  0  0
   16.7440   -9.1699   17.8592 O   0  0  0  0  0  0  0  0  0  0  0  0
   14.4621   -7.2994   16.6275 H   0  0  0  0  0  0  0  0  0  0  0  0
   13.7397   -6.6269   21.2795 C   0  0  0  0  0  0  0  0  0  0  0  0
   12.9971   -6.2392   20.1602 C   0  0  0  0  0  0  0  0  0  0  0  0
   13.4126   -6.6042   18.8762 C   0  0  0  0  0  0  0  0  0  0  0  0
   14.5758   -7.3601   18.6953 C   0  0  0  0  0  0  0  0  0  0  0  0
   15.3196   -7.7530   19.8175 C   0  0  0  0  0  0  0  0  0  0  0  0
   14.9049   -7.3900   21.1015 C   0  0  0  0  0  0  0  0  0  0  0  0
   13.2948   -6.2483   22.5515 O   0  0  0  0  0  0  0  0  0  0  0  0
   13.6072   -3.9095   23.0700 C   0  0  0  0  0  0  0  0  0  0  0  0
   14.0006   -5.3399   23.3914 C   0  0  0  0  0  0  0  0  0  0  0  0
 29 30  1  0  0  0
 30 28  1  0  0  0
 28 22  1  0  0  0
 22 23  2  0  0  0
 23 24  1  0  0  0
 24 25  2  0  0  0
 25 18  1  0  0  0
 25 26  1  0  0  0
 18 19  1  0  0  0
 19 20  2  0  0  0
 19 17  1  0  0  0
 17  1  1  0  0  0
  1  2  1  0  0  0
  2  3  2  0  0  0
  3  4  1  0  0  0
  4  5  2  0  0  0
  5  7  1  0  0  0
  5  6  1  0  0  0
  7  8  1  0  0  0
  8  9  1  0  0  0
  9 10  2  0  0  0
 10 11  1  0  0  0
 11 12  2  0  0  0
 12 13  1  0  0  0
 13 14  2  0  0  0
 14 15  1  0  0  0
 15 16  2  0  0  0
 16  8  1  0  0  0
 16 11  1  0  0  0
  6  2  1  0  0  0
 26 27  2  0  0  0
 27 22  1  0  0  0
 18 21  1  0  0  0
M  END
>  <minimizedAffinity>
-6.51454

>  <minimizedRMSD>
2.79241

$$$$
CHEMBL3671270


 28 31  0  0  0  0  0  0  0  0999 V2000
   19.2276   -8.0982    9.9011 C   0  0  0  0  0  0  0  0  0  0  0  0
   17.8959   -8.5376    9.9678 C   0  0  0  0  0  0  0  0  0  0  0  0
   17.4301   -9.2080   11.1013 C   0  0  0  0  0  0  0  0  0  0  0  0
   18.2862   -9.4414   12.1864 C   0  0  0  0  0  0  0  0  0  0  0  0
   19.6119   -8.9897   12.1240 C   0  0  0  0  0  0  0  0  0  0  0  0
   20.0771   -8.3195   10.9892 C   0  0  0  0  0  0  0  0  0  0  0  0
   17.7935  -10.1542   13.3895 C   0  0  0  0  0  0  0  0  0  0  0  0
   16.7203   -9.6393   14.1463 C   0  0  0  0  0  0  0  0  0  0  0  0
   16.0572   -8.3471   13.8021 C   0  0  0  0  0  0  0  0  0  0  0  0
   16.2910  -10.3112   15.2451 N   0  0  0  0  0  0  0  0  0  0  0  0
   16.8530  -11.4550   15.6336 N   0  0  0  0  0  0  0  0  0  0  0  0
   17.8870  -12.0061   14.9510 C   0  0  0  0  0  0  0  0  0  0  0  0
   18.3866  -13.0913   15.3519 O   0  0  0  0  0  0  0  0  0  0  0  0
   18.3842  -11.3655   13.8086 C   0  0  0  0  0  0  0  0  0  0  0  0
   19.5010  -11.9975   13.0353 C   0  0  0  0  0  0  0  0  0  0  0  0
   16.5093  -11.9110   16.4356 H   0  0  0  0  0  0  0  0  0  0  0  0
   19.7207   -7.4034    8.7891 O   0  0  0  0  0  0  0  0  0  0  0  0
   20.9968   -7.0344    4.1145 C   0  0  0  0  0  0  0  0  0  0  0  0
   20.0656   -7.5657    5.1433 C   0  0  0  0  0  0  0  0  0  0  0  0
   18.9843   -8.3757    4.7522 C   0  0  0  0  0  0  0  0  0  0  0  0
   18.1565   -8.8446    5.7654 C   0  0  0  0  0  0  0  0  0  0  0  0
   17.0999   -9.6602    5.6499 N   0  0  0  0  0  0  0  0  0  0  0  0
   16.6448   -9.8802    6.8798 N   0  0  0  0  0  0  0  0  0  0  0  0
   17.4043   -9.2139    7.7853 C   0  0  0  0  0  0  0  0  0  0  0  0
   18.3711   -8.5378    7.0732 C   0  0  0  0  0  0  0  0  0  0  0  0
   19.4435   -7.7245    7.4536 C   0  0  0  0  0  0  0  0  0  0  0  0
   20.2723   -7.2703    6.4662 N   0  0  0  0  0  0  0  0  0  0  0  0
   15.8692  -10.4447    7.1012 H   0  0  0  0  0  0  0  0  0  0  0  0
 18 19  1  0  0  0
 19 20  2  0  0  0
 20 21  1  0  0  0
 21 22  2  0  0  0
 22 23  1  0  0  0
 23 24  1  0  0  0
 24 25  2  0  0  0
 25 26  1  0  0  0
 26 17  1  0  0  0
 17  1  1  0  0  0
  1  2  2  0  0  0
  2  3  1  0  0  0
  3  4  2  0  0  0
  4  7  1  0  0  0
  7  8  1  0  0  0
  8  9  1  0  0  0
  8 10  2  0  0  0
 10 11  1  0  0  0
 11 12  1  0  0  0
 12 13  2  0  0  0
 12 14  1  0  0  0
 14 15  1  0  0  0
  4  5  1  0  0  0
  5  6  2  0  0  0
 26 27  2  0  0  0
 27 19  1  0  0  0
 25 21  1  0  0  0
  6  1  1  0  0  0
 14  7  2  0  0  0
 23 28  1  0  0  0
 11 16  1  0  0  0
M  END
>  <minimizedAffinity>
-1.28211

>  <minimizedRMSD>
2.80247

$$$$
CHEMBL106290


 38 41  0  0  0  0  0  0  0  0999 V2000
   14.4410   -9.7443   11.1657 C   0  0  0  0  0  0  0  0  0  0  0  0
   15.8961   -9.7904   11.1787 N   0  0  0  0  0  0  0  0  0  0  0  0
   16.7365   -9.8691   10.1168 C   0  0  0  0  0  0  0  0  0  0  0  0
   18.0498   -9.9042   10.4710 N   0  0  0  0  0  0  0  0  0  0  0  0
   17.9989   -9.8427   11.8155 C   0  0  0  0  0  0  0  0  0  0  0  0
   19.0685   -9.7997   12.7015 C   0  0  0  0  0  0  0  0  0  0  0  0
   18.7688   -9.6773   14.0705 C   0  0  0  0  0  0  0  0  0  0  0  0
   17.4295   -9.6043   14.5280 C   0  0  0  0  0  0  0  0  0  0  0  0
   16.3736   -9.6378   13.5920 C   0  0  0  0  0  0  0  0  0  0  0  0
   16.7050   -9.7685   12.2444 C   0  0  0  0  0  0  0  0  0  0  0  0
   17.1186   -9.4374   15.9681 C   0  0  0  0  0  0  0  0  0  0  0  0
   17.0194   -8.2728   16.4385 O   0  0  0  0  0  0  0  0  0  0  0  0
   16.8984  -10.5466   16.8503 N   0  0  0  0  0  0  0  0  0  0  0  0
   16.8662  -10.3612   17.8166 H   0  0  0  0  0  0  0  0  0  0  0  0
   16.7191  -11.9264   16.4220 C   0  0  0  0  0  0  0  0  0  0  0  0
   17.9719  -12.4278   15.7766 C   0  0  0  0  0  0  0  0  0  0  0  0
   19.0807  -12.3280   16.3658 O   0  0  0  0  0  0  0  0  0  0  0  0
   17.9088  -13.0268   14.5239 O   0  0  0  0  0  0  0  0  0  0  0  0
   17.0860  -13.1031   14.0820 H   0  0  0  0  0  0  0  0  0  0  0  0
   16.3575  -12.7818   17.6265 C   0  0  0  0  0  0  0  0  0  0  0  0
   14.7220  -13.5464   17.4008 P   0  0  0  0  0  0  0  0  0  0  0  0
   14.1067  -13.8091   18.7566 O   0  0  0  0  0  0  0  0  0  0  0  0
   13.7228  -12.4981   16.5245 O   0  0  0  0  0  0  0  0  0  0  0  0
   14.8759  -15.0097   16.5655 O   0  0  0  0  0  0  0  0  0  0  0  0
   13.6348  -11.6593   17.0038 H   0  0  0  0  0  0  0  0  0  0  0  0
   15.4486  -15.6101   17.0680 H   0  0  0  0  0  0  0  0  0  0  0  0
   16.2847   -9.9013    8.6897 C   0  0  0  0  0  0  0  0  0  0  0  0
   17.2717   -9.2513    7.7628 C   0  0  0  0  0  0  0  0  0  0  0  0
   17.3141   -9.5512    6.4385 N   0  0  0  0  0  0  0  0  0  0  0  0
   18.2964   -8.7571    5.9893 C   0  0  0  0  0  0  0  0  0  0  0  0
   18.7797   -8.6538    4.6879 C   0  0  0  0  0  0  0  0  0  0  0  0
   19.8305   -7.7437    4.4554 C   0  0  0  0  0  0  0  0  0  0  0  0
   20.3385   -7.6086    3.2052 F   0  0  0  0  0  0  0  0  0  0  0  0
   20.3634   -6.9783    5.5175 C   0  0  0  0  0  0  0  0  0  0  0  0
   19.8537   -7.1144    6.8227 C   0  0  0  0  0  0  0  0  0  0  0  0
   18.8152   -8.0236    7.0121 C   0  0  0  0  0  0  0  0  0  0  0  0
   18.1846   -8.3185    8.1572 N   0  0  0  0  0  0  0  0  0  0  0  0
   18.3413   -7.9531    9.0578 H   0  0  0  0  0  0  0  0  0  0  0  0
  1  2  1  0  0  0
  2  3  1  0  0  0
  3 27  1  0  0  0
  3  4  2  0  0  0
 27 28  1  0  0  0
 28 29  2  0  0  0
 29 30  1  0  0  0
 30 31  2  0  0  0
 31 32  1  0  0  0
 32 33  1  0  0  0
 32 34  2  0  0  0
 34 35  1  0  0  0
 35 36  2  0  0  0
 36 37  1  0  0  0
 36 30  1  0  0  0
 37 28  1  0  0  0
  4  5  1  0  0  0
  5  6  2  0  0  0
  6  7  1  0  0  0
  7  8  2  0  0  0
  8 11  1  0  0  0
  8  9  1  0  0  0
 11 12  2  0  0  0
 11 13  1  0  0  0
 15 13  1  0  0  0
 15 20  1  0  0  0
 15 16  1  0  0  0
 20 21  1  0  0  0
 21 22  2  0  0  0
 21 23  1  0  0  0
 21 24  1  0  0  0
 16 17  2  0  0  0
 16 18  1  0  0  0
  9 10  2  0  0  0
 10  2  1  0  0  0
 10  5  1  0  0  0
 37 38  1  0  0  0
 13 14  1  0  0  0
 23 25  1  0  0  0
 24 26  1  0  0  0
 18 19  1  0  0  0
M  END
>  <minimizedAffinity>
6.35878

>  <minimizedRMSD>
2.80353

$$$$
CHEMBL4173279 PubChem-145951001


 29 32  0  0  0  0  0  0  0  0999 V2000
   17.5872  -10.6445   11.9355 C   0  0  0  0  0  0  0  0  0  0  0  0
   19.4536   -7.5082    8.2107 C   0  0  0  0  0  0  0  0  0  0  0  0
   20.1798   -8.2117    9.1981 C   0  0  0  0  0  0  0  0  0  0  0  0
   19.5149   -9.0390   10.1217 C   0  0  0  0  0  0  0  0  0  0  0  0
   18.1275   -9.1292   10.0139 C   0  0  0  0  0  0  0  0  0  0  0  0
   17.4251   -8.4494    9.0621 C   0  0  0  0  0  0  0  0  0  0  0  0
   18.0526   -7.6220    8.1343 C   0  0  0  0  0  0  0  0  0  0  0  0
   16.1073   -8.6952    9.1814 N   0  0  0  0  0  0  0  0  0  0  0  0
   16.0483   -9.5480   10.2400 C   0  0  0  0  0  0  0  0  0  0  0  0
   17.2700   -9.8344   10.7647 N   0  0  0  0  0  0  0  0  0  0  0  0
   14.7770  -10.0911   10.7467 C   0  0  0  0  0  0  0  0  0  0  0  0
   14.5843  -10.4999   11.9747 O   0  0  0  0  0  0  0  0  0  0  0  0
   13.3495  -10.9232   12.0955 C   0  0  0  0  0  0  0  0  0  0  0  0
   12.7036  -10.7833   10.8793 C   0  0  0  0  0  0  0  0  0  0  0  0
   13.6272  -10.2440   10.0012 C   0  0  0  0  0  0  0  0  0  0  0  0
   17.1243   -9.9566   13.1736 C   0  0  0  0  0  0  0  0  0  0  0  0
   16.5746   -8.3665   13.2403 S   0  0  0  0  0  0  0  0  0  0  0  0
   16.2238   -8.5393   14.8772 C   0  0  0  0  0  0  0  0  0  0  0  0
   16.5190   -9.7793   15.3222 N   0  0  0  0  0  0  0  0  0  0  0  0
   17.0141  -10.5701   14.3720 N   0  0  0  0  0  0  0  0  0  0  0  0
   15.5395   -7.2532   15.9106 S   0  0  0  0  0  0  0  0  0  0  0  0
   15.5079   -8.3423   17.3713 C   0  0  0  0  0  0  0  0  0  0  0  0
   14.8856   -7.6946   18.5691 C   0  0  0  0  0  0  0  0  0  0  0  0
   13.9389   -6.8826   18.3959 O   0  0  0  0  0  0  0  0  0  0  0  0
   15.3454   -7.9813   19.8916 N   0  0  0  0  0  0  0  0  0  0  0  0
   14.7597   -7.3722   21.0084 N   0  0  0  0  0  0  0  0  0  0  0  0
   16.0860   -8.6172   20.0195 H   0  0  0  0  0  0  0  0  0  0  0  0
   14.0139   -6.7471   20.7027 H   0  0  0  0  0  0  0  0  0  0  0  0
   15.4661   -6.8372   21.5134 H   0  0  0  0  0  0  0  0  0  0  0  0
  2  3  2  0  0  0
  3  4  1  0  0  0
  4  5  2  0  0  0
  5  6  1  0  0  0
  6  7  2  0  0  0
  6  8  1  0  0  0
  8  9  2  0  0  0
  9 10  1  0  0  0
 10  1  1  0  0  0
  1 16  1  0  0  0
 16 17  1  0  0  0
 17 18  1  0  0  0
 18 19  2  0  0  0
 19 20  1  0  0  0
 18 21  1  0  0  0
 21 22  1  0  0  0
 22 23  1  0  0  0
 23 24  2  0  0  0
 23 25  1  0  0  0
 25 26  1  0  0  0
  9 11  1  0  0  0
 11 12  1  0  0  0
 12 13  1  0  0  0
 13 14  2  0  0  0
 14 15  1  0  0  0
  7  2  1  0  0  0
 20 16  2  0  0  0
 15 11  2  0  0  0
 10  5  1  0  0  0
 25 27  1  0  0  0
 26 28  1  0  0  0
 26 29  1  0  0  0
M  END
>  <minimizedAffinity>
-0.04340

>  <minimizedRMSD>
2.80812

$$$$
CHEMBL5281219


 38 41  0  0  0  0  0  0  0  0999 V2000
   18.4203  -10.0814   12.7856 C   0  0  0  0  0  0  0  0  0  0  0  0
   18.1157  -11.2916   13.4271 C   0  0  0  0  0  0  0  0  0  0  0  0
   18.7882  -11.6792   14.5896 C   0  0  0  0  0  0  0  0  0  0  0  0
   19.7828  -10.8448   15.1215 C   0  0  0  0  0  0  0  0  0  0  0  0
   20.0974   -9.6389   14.4919 C   0  0  0  0  0  0  0  0  0  0  0  0
   19.4193   -9.2598   13.3308 C   0  0  0  0  0  0  0  0  0  0  0  0
   18.3176   -8.2484    8.4209 N   0  0  0  0  0  0  0  0  0  0  0  0
   17.5323   -8.7864    9.3633 C   0  0  0  0  0  0  0  0  0  0  0  0
   18.2794   -9.1138   10.4414 C   0  0  0  0  0  0  0  0  0  0  0  0
   19.5700   -8.7954   10.2200 N   0  0  0  0  0  0  0  0  0  0  0  0
   19.5588   -8.2639    8.9655 C   0  0  0  0  0  0  0  0  0  0  0  0
   17.6773   -9.6964   11.5611 C   0  0  0  0  0  0  0  0  0  0  0  0
   16.3258   -9.9054   11.4927 N   0  0  0  0  0  0  0  0  0  0  0  0
   15.5838   -9.5663   10.3872 C   0  0  0  0  0  0  0  0  0  0  0  0
   16.1962   -8.9958    9.3047 N   0  0  0  0  0  0  0  0  0  0  0  0
   14.1680   -9.7976   10.3739 N   0  0  0  0  0  0  0  0  0  0  0  0
   13.6263  -11.0581   10.8840 C   0  0  0  0  0  0  0  0  0  0  0  0
   12.2051  -10.8318   11.3992 C   0  0  0  0  0  0  0  0  0  0  0  0
   11.4284  -10.2165   10.4024 O   0  0  0  0  0  0  0  0  0  0  0  0
   11.8975   -8.8958   10.2953 C   0  0  0  0  0  0  0  0  0  0  0  0
   13.2819   -8.8872    9.6469 C   0  0  0  0  0  0  0  0  0  0  0  0
   18.4509   -8.6962    6.0173 C   0  0  0  0  0  0  0  0  0  0  0  0
   17.9614   -7.7486    7.0971 C   0  0  0  0  0  0  0  0  0  0  0  0
   16.4599   -7.5575    6.9831 C   0  0  0  0  0  0  0  0  0  0  0  0
   18.4441  -12.8893   15.1951 O   0  0  0  0  0  0  0  0  0  0  0  0
   17.5858  -12.9690   16.3263 C   0  0  0  0  0  0  0  0  0  0  0  0
   16.6957  -11.7381   16.3981 C   0  0  0  0  0  0  0  0  0  0  0  0
   17.1094  -10.8463   17.5564 C   0  0  0  0  0  0  0  0  0  0  0  0
   17.3290   -9.4258   17.0665 C   0  0  0  0  0  0  0  0  0  0  0  0
   16.2430   -9.0403   16.0777 C   0  0  0  0  0  0  0  0  0  0  0  0
   15.1326   -8.2573   16.7699 C   0  0  0  0  0  0  0  0  0  0  0  0
   15.4998   -7.8850   18.2012 C   0  0  0  0  0  0  0  0  0  0  0  0
   14.3122   -7.3683   18.9388 C   0  0  0  0  0  0  0  0  0  0  0  0
   13.5957   -6.4696   18.4233 O   0  0  0  0  0  0  0  0  0  0  0  0
   13.9791   -7.9122   20.2139 N   0  0  0  0  0  0  0  0  0  0  0  0
   12.8960   -7.4712   20.8952 O   0  0  0  0  0  0  0  0  0  0  0  0
   14.5443   -8.6178   20.6039 H   0  0  0  0  0  0  0  0  0  0  0  0
   12.4490   -6.7814   20.3803 H   0  0  0  0  0  0  0  0  0  0  0  0
 22 23  1  0  0  0
 23 24  1  0  0  0
 23  7  1  0  0  0
  7  8  1  0  0  0
  8  9  2  0  0  0
  9 10  1  0  0  0
 10 11  2  0  0  0
  9 12  1  0  0  0
 12 13  2  0  0  0
 13 14  1  0  0  0
 14 15  2  0  0  0
 14 16  1  0  0  0
 16 17  1  0  0  0
 17 18  1  0  0  0
 18 19  1  0  0  0
 19 20  1  0  0  0
 20 21  1  0  0  0
 12  1  1  0  0  0
  1  2  2  0  0  0
  2  3  1  0  0  0
  3  4  2  0  0  0
  4  5  1  0  0  0
  5  6  2  0  0  0
  3 25  1  0  0  0
 25 26  1  0  0  0
 26 27  1  0  0  0
 27 28  1  0  0  0
 28 29  1  0  0  0
 29 30  1  0  0  0
 30 31  1  0  0  0
 31 32  1  0  0  0
 32 33  1  0  0  0
 33 34  2  0  0  0
 33 35  1  0  0  0
 35 36  1  0  0  0
 11  7  1  0  0  0
 21 16  1  0  0  0
  6  1  1  0  0  0
 15  8  1  0  0  0
 35 37  1  0  0  0
 36 38  1  0  0  0
M  END
>  <minimizedAffinity>
5.03416

>  <minimizedRMSD>
2.81798

$$$$
CHEMBL4782988 PubChem-162665208


 33 35  0  0  0  0  0  0  0  0999 V2000
   18.7970   -8.2790    7.0101 C   0  0  0  0  0  0  0  0  0  0  0  0
   19.2361   -7.6070    8.1828 C   0  0  0  0  0  0  0  0  0  0  0  0
   18.6983   -7.9147    9.4458 C   0  0  0  0  0  0  0  0  0  0  0  0
   17.7214   -8.9025    9.4912 C   0  0  0  0  0  0  0  0  0  0  0  0
   17.2873   -9.5586    8.3773 C   0  0  0  0  0  0  0  0  0  0  0  0
   17.7994   -9.2772    7.1147 C   0  0  0  0  0  0  0  0  0  0  0  0
   16.3432  -10.4616    8.7011 N   0  0  0  0  0  0  0  0  0  0  0  0
   16.1639  -10.3936   10.0184 N   0  0  0  0  0  0  0  0  0  0  0  0
   16.9954   -9.4487   10.5165 C   0  0  0  0  0  0  0  0  0  0  0  0
   15.8722  -11.0616    8.0786 H   0  0  0  0  0  0  0  0  0  0  0  0
   19.3786   -7.9374    5.6900 C   0  0  0  0  0  0  0  0  0  0  0  0
   20.5362   -7.1461    5.6024 C   0  0  0  0  0  0  0  0  0  0  0  0
   21.0916   -6.8190    4.3614 C   0  0  0  0  0  0  0  0  0  0  0  0
   20.4817   -7.2895    3.1884 C   0  0  0  0  0  0  0  0  0  0  0  0
   19.3311   -8.0770    3.2611 C   0  0  0  0  0  0  0  0  0  0  0  0
   18.7830   -8.3990    4.5049 C   0  0  0  0  0  0  0  0  0  0  0  0
   22.2439   -6.0292    4.3231 O   0  0  0  0  0  0  0  0  0  0  0  0
   22.2329   -4.6753    3.8917 C   0  0  0  0  0  0  0  0  0  0  0  0
   17.0975   -9.0843   11.8966 N   0  0  0  0  0  0  0  0  0  0  0  0
   16.0753   -9.2983   12.8748 C   0  0  0  0  0  0  0  0  0  0  0  0
   14.9837   -9.8454   12.5645 O   0  0  0  0  0  0  0  0  0  0  0  0
   17.9319   -8.6552   12.1947 H   0  0  0  0  0  0  0  0  0  0  0  0
   16.3198   -8.8952   14.2887 C   0  0  0  0  0  0  0  0  0  0  0  0
   16.0660  -10.0597   15.2375 C   0  0  0  0  0  0  0  0  0  0  0  0
   17.2700  -10.9914   15.3146 C   0  0  0  0  0  0  0  0  0  0  0  0
   18.3785  -10.4147   16.1858 C   0  0  0  0  0  0  0  0  0  0  0  0
   19.3418   -9.5748   15.3545 C   0  0  0  0  0  0  0  0  0  0  0  0
   20.0932   -8.5625   16.1654 C   0  0  0  0  0  0  0  0  0  0  0  0
   19.5498   -7.9713   17.1381 O   0  0  0  0  0  0  0  0  0  0  0  0
   21.4409   -8.2605   15.8137 N   0  0  0  0  0  0  0  0  0  0  0  0
   22.1542   -7.3483   16.5145 O   0  0  0  0  0  0  0  0  0  0  0  0
   21.8586   -8.7216   15.0507 H   0  0  0  0  0  0  0  0  0  0  0  0
   21.6052   -6.9875   17.2281 H   0  0  0  0  0  0  0  0  0  0  0  0
  1  2  2  0  0  0
  2  3  1  0  0  0
  3  4  2  0  0  0
  4  5  1  0  0  0
  5  6  2  0  0  0
  5  7  1  0  0  0
  7  8  1  0  0  0
  8  9  2  0  0  0
  9 19  1  0  0  0
 19 20  1  0  0  0
 20 21  2  0  0  0
 20 23  1  0  0  0
 23 24  1  0  0  0
 24 25  1  0  0  0
 25 26  1  0  0  0
 26 27  1  0  0  0
 27 28  1  0  0  0
 28 29  2  0  0  0
 28 30  1  0  0  0
 30 31  1  0  0  0
  1 11  1  0  0  0
 11 12  2  0  0  0
 12 13  1  0  0  0
 13 14  2  0  0  0
 14 15  1  0  0  0
 15 16  2  0  0  0
 13 17  1  0  0  0
 17 18  1  0  0  0
  6  1  1  0  0  0
 16 11  1  0  0  0
  9  4  1  0  0  0
  7 10  1  0  0  0
 19 22  1  0  0  0
 30 32  1  0  0  0
 31 33  1  0  0  0
M  END
>  <minimizedAffinity>
-8.69785

>  <minimizedRMSD>
2.82031

$$$$
CHEMBL1354765 PubChem-16023702


 37 41  0  0  0  0  0  0  0  0999 V2000
   15.7771  -10.1560    9.5456 N   0  0  0  0  0  0  0  0  0  0  0  0
   16.5767   -9.0561   10.0893 C   0  0  0  0  0  0  0  0  0  0  0  0
   16.2104   -8.7842   11.5582 C   0  0  0  0  0  0  0  0  0  0  0  0
   14.7081   -8.9394   11.8535 C   0  0  0  0  0  0  0  0  0  0  0  0
   13.8610   -8.9956   10.5852 C   0  0  0  0  0  0  0  0  0  0  0  0
   14.3226  -10.1663    9.7209 C   0  0  0  0  0  0  0  0  0  0  0  0
   18.6835  -10.4127    8.2370 C   0  0  0  0  0  0  0  0  0  0  0  0
   19.8101  -11.0672    7.8576 N   0  0  0  0  0  0  0  0  0  0  0  0
   19.5820  -12.3491    7.9596 O   0  0  0  0  0  0  0  0  0  0  0  0
   18.3629  -12.5488    8.3861 C   0  0  0  0  0  0  0  0  0  0  0  0
   17.7564  -13.7424    8.5839 N   0  0  0  0  0  0  0  0  0  0  0  0
   16.4677  -13.7424    9.0345 C   0  0  0  0  0  0  0  0  0  0  0  0
   15.8234  -12.5628    9.2995 N   0  0  0  0  0  0  0  0  0  0  0  0
   16.4321  -11.3525    9.1135 C   0  0  0  0  0  0  0  0  0  0  0  0
   17.7372  -11.3605    8.6065 C   0  0  0  0  0  0  0  0  0  0  0  0
   18.2322   -4.8264    7.6955 F   0  0  0  0  0  0  0  0  0  0  0  0
   18.3326   -6.1708    7.8252 C   0  0  0  0  0  0  0  0  0  0  0  0
   18.9127   -6.7210    8.9714 C   0  0  0  0  0  0  0  0  0  0  0  0
   19.0148   -8.1087    9.1058 C   0  0  0  0  0  0  0  0  0  0  0  0
   18.5261   -8.9549    8.1016 C   0  0  0  0  0  0  0  0  0  0  0  0
   17.9686   -8.3949    6.9433 C   0  0  0  0  0  0  0  0  0  0  0  0
   17.8654   -7.0076    6.8083 C   0  0  0  0  0  0  0  0  0  0  0  0
   17.0115   -9.6139   12.5188 C   0  0  0  0  0  0  0  0  0  0  0  0
   18.1050  -10.1311   12.1606 O   0  0  0  0  0  0  0  0  0  0  0  0
   16.5124   -9.8002   13.8508 N   0  0  0  0  0  0  0  0  0  0  0  0
   15.6599   -9.3562   14.0638 H   0  0  0  0  0  0  0  0  0  0  0  0
   17.1165  -10.5619   14.9097 C   0  0  0  0  0  0  0  0  0  0  0  0
   17.0384  -10.1103   16.2525 C   0  0  0  0  0  0  0  0  0  0  0  0
   17.6384  -10.8775   17.2640 C   0  0  0  0  0  0  0  0  0  0  0  0
   18.3035  -12.0671   16.9667 C   0  0  0  0  0  0  0  0  0  0  0  0
   18.3789  -12.5098   15.6481 C   0  0  0  0  0  0  0  0  0  0  0  0
   17.7894  -11.7621   14.6292 C   0  0  0  0  0  0  0  0  0  0  0  0
   16.3471   -8.8564   16.6445 C   0  0  0  0  0  0  0  0  0  0  0  0
   15.9391   -8.0380   15.7788 O   0  0  0  0  0  0  0  0  0  0  0  0
   16.1331   -8.5590   18.0220 N   0  0  0  0  0  0  0  0  0  0  0  0
   16.4442   -9.1854   18.7149 H   0  0  0  0  0  0  0  0  0  0  0  0
   15.6742   -7.7273   18.2804 H   0  0  0  0  0  0  0  0  0  0  0  0
 16 17  1  0  0  0
 17 18  2  0  0  0
 18 19  1  0  0  0
 19 20  2  0  0  0
 20  7  1  0  0  0
  7  8  2  0  0  0
  8  9  1  0  0  0
  9 10  1  0  0  0
 10 11  2  0  0  0
 11 12  1  0  0  0
 12 13  2  0  0  0
 13 14  1  0  0  0
 14  1  1  0  0  0
  1  2  1  0  0  0
  2  3  1  0  0  0
  3 23  1  0  0  0
 23 24  2  0  0  0
 23 25  1  0  0  0
 25 27  1  0  0  0
 27 28  2  0  0  0
 28 33  1  0  0  0
 33 34  2  0  0  0
 33 35  1  0  0  0
 28 29  1  0  0  0
 29 30  2  0  0  0
 30 31  1  0  0  0
 31 32  2  0  0  0
  3  4  1  0  0  0
  4  5  1  0  0  0
  5  6  1  0  0  0
 14 15  2  0  0  0
 20 21  1  0  0  0
 21 22  2  0  0  0
 22 17  1  0  0  0
 15  7  1  0  0  0
 15 10  1  0  0  0
  6  1  1  0  0  0
 32 27  1  0  0  0
 25 26  1  0  0  0
 35 36  1  0  0  0
 35 37  1  0  0  0
M  END
>  <minimizedAffinity>
20.07131

>  <minimizedRMSD>
2.82233

$$$$
CHEMBL5088867 PubChem-156027214


 33 37  0  0  0  0  0  0  0  0999 V2000
   19.1114   -9.6747   13.1673 O   0  0  0  0  0  0  0  0  0  0  0  0
   18.1279  -10.1520   12.5393 C   0  0  0  0  0  0  0  0  0  0  0  0
   16.8525  -10.3172   13.1923 N   0  0  0  0  0  0  0  0  0  0  0  0
   16.5001   -9.5637   14.3730 C   0  0  0  0  0  0  0  0  0  0  0  0
   16.0552   -8.2357   14.2730 C   0  0  0  0  0  0  0  0  0  0  0  0
   15.6858   -7.5217   15.4148 C   0  0  0  0  0  0  0  0  0  0  0  0
   15.7509   -8.1244   16.6774 C   0  0  0  0  0  0  0  0  0  0  0  0
   16.1848   -9.4482   16.7842 C   0  0  0  0  0  0  0  0  0  0  0  0
   16.5538  -10.1639   15.6418 C   0  0  0  0  0  0  0  0  0  0  0  0
   15.3769   -7.4157   17.8622 N   0  0  0  0  0  0  0  0  0  0  0  0
   16.0570   -6.8543   18.2999 H   0  0  0  0  0  0  0  0  0  0  0  0
   13.7974   -7.4864   18.5735 S   0  0  0  0  0  0  0  0  0  0  0  0
   12.8870   -8.2979   17.6922 O   0  0  0  0  0  0  0  0  0  0  0  0
   13.9031   -8.1633   19.9106 O   0  0  0  0  0  0  0  0  0  0  0  0
   13.1750   -5.8287   18.8212 C   0  0  0  0  0  0  0  0  0  0  0  0
   11.7462   -5.7168   18.3248 C   0  0  0  0  0  0  0  0  0  0  0  0
   12.0238   -5.8559   19.8069 C   0  0  0  0  0  0  0  0  0  0  0  0
   18.3106  -10.5321   11.1054 C   0  0  0  0  0  0  0  0  0  0  0  0
   18.7615   -9.3789   10.3410 N   0  0  0  0  0  0  0  0  0  0  0  0
   19.6758   -8.5047   10.7485 N   0  0  0  0  0  0  0  0  0  0  0  0
   19.9144   -7.5929    9.8059 N   0  0  0  0  0  0  0  0  0  0  0  0
   19.1198   -7.9225    8.7707 C   0  0  0  0  0  0  0  0  0  0  0  0
   18.9953   -7.2990    7.5333 C   0  0  0  0  0  0  0  0  0  0  0  0
   18.0882   -7.8701    6.6180 C   0  0  0  0  0  0  0  0  0  0  0  0
   17.3482   -9.0273    6.9600 C   0  0  0  0  0  0  0  0  0  0  0  0
   17.5030   -9.6316    8.2233 C   0  0  0  0  0  0  0  0  0  0  0  0
   18.4066   -9.0332    9.0977 C   0  0  0  0  0  0  0  0  0  0  0  0
   15.8915  -11.2733   12.6408 C   0  0  0  0  0  0  0  0  0  0  0  0
   14.9371  -10.5910   11.7167 C   0  0  0  0  0  0  0  0  0  0  0  0
   13.5461  -10.7387   11.8226 C   0  0  0  0  0  0  0  0  0  0  0  0
   12.8314  -10.0176   10.8753 C   0  0  0  0  0  0  0  0  0  0  0  0
   13.9707   -9.2196    9.9348 S   0  0  0  0  0  0  0  0  0  0  0  0
   15.3676   -9.7619   10.6905 C   0  0  0  0  0  0  0  0  0  0  0  0
  1  2  2  0  0  0
  2 18  1  0  0  0
 18 19  1  0  0  0
 19 20  1  0  0  0
 20 21  2  0  0  0
 21 22  1  0  0  0
 22 23  2  0  0  0
 23 24  1  0  0  0
 24 25  2  0  0  0
 25 26  1  0  0  0
 26 27  2  0  0  0
  2  3  1  0  0  0
  3 28  1  0  0  0
 28 29  1  0  0  0
 29 30  1  0  0  0
 30 31  2  0  0  0
 31 32  1  0  0  0
 32 33  1  0  0  0
  3  4  1  0  0  0
  4  5  2  0  0  0
  5  6  1  0  0  0
  6  7  2  0  0  0
  7 10  1  0  0  0
 10 12  1  0  0  0
 12 13  2  0  0  0
 12 14  2  0  0  0
 12 15  1  0  0  0
 15 16  1  0  0  0
 16 17  1  0  0  0
  7  8  1  0  0  0
  8  9  2  0  0  0
 27 19  1  0  0  0
 33 29  2  0  0  0
  9  4  1  0  0  0
 27 22  1  0  0  0
 17 15  1  0  0  0
 10 11  1  0  0  0
M  END
>  <minimizedAffinity>
1.16288

>  <minimizedRMSD>
2.82530

$$$$
CHEMBL3671306


 27 30  0  0  0  0  0  0  0  0999 V2000
   17.2164   -9.9325   12.9058 C   0  0  0  0  0  0  0  0  0  0  0  0
   18.3561  -10.1202   12.1113 C   0  0  0  0  0  0  0  0  0  0  0  0
   18.2944   -9.9208   10.7296 C   0  0  0  0  0  0  0  0  0  0  0  0
   17.0941   -9.5383   10.1233 C   0  0  0  0  0  0  0  0  0  0  0  0
   15.9554   -9.3362   10.9194 C   0  0  0  0  0  0  0  0  0  0  0  0
   16.0160   -9.5358   12.3007 C   0  0  0  0  0  0  0  0  0  0  0  0
   16.1417   -7.9156   14.7910 C   0  0  0  0  0  0  0  0  0  0  0  0
   16.7529   -9.1920   15.2658 C   0  0  0  0  0  0  0  0  0  0  0  0
   16.8282   -9.4118   16.6034 N   0  0  0  0  0  0  0  0  0  0  0  0
   17.3870  -10.5127   17.1043 N   0  0  0  0  0  0  0  0  0  0  0  0
   17.9127  -11.4707   16.3014 C   0  0  0  0  0  0  0  0  0  0  0  0
   18.4287  -12.4980   16.8174 O   0  0  0  0  0  0  0  0  0  0  0  0
   17.8729  -11.3088   14.9102 C   0  0  0  0  0  0  0  0  0  0  0  0
   17.2814  -10.1462   14.3716 C   0  0  0  0  0  0  0  0  0  0  0  0
   18.4201  -12.3875   14.0259 C   0  0  0  0  0  0  0  0  0  0  0  0
   17.4190  -10.6335   18.0808 H   0  0  0  0  0  0  0  0  0  0  0  0
   17.0739   -9.3254    8.7388 O   0  0  0  0  0  0  0  0  0  0  0  0
   18.0390   -8.6050    8.0225 C   0  0  0  0  0  0  0  0  0  0  0  0
   18.9821   -7.8848    8.7008 N   0  0  0  0  0  0  0  0  0  0  0  0
   19.9636   -7.1764    8.0568 C   0  0  0  0  0  0  0  0  0  0  0  0
   20.0445   -7.1774    6.6527 C   0  0  0  0  0  0  0  0  0  0  0  0
   19.0898   -7.9250    5.9739 C   0  0  0  0  0  0  0  0  0  0  0  0
   18.9867   -8.1177    4.6520 N   0  0  0  0  0  0  0  0  0  0  0  0
   17.9584   -8.9388    4.4598 N   0  0  0  0  0  0  0  0  0  0  0  0
   17.4020   -9.2777    5.6497 C   0  0  0  0  0  0  0  0  0  0  0  0
   18.1188   -8.6201    6.6259 C   0  0  0  0  0  0  0  0  0  0  0  0
   17.6461   -9.2549    3.5813 H   0  0  0  0  0  0  0  0  0  0  0  0
  7  8  1  0  0  0
  8  9  2  0  0  0
  9 10  1  0  0  0
 10 11  1  0  0  0
 11 12  2  0  0  0
 11 13  1  0  0  0
 13 14  2  0  0  0
 14  1  1  0  0  0
  1  2  2  0  0  0
  2  3  1  0  0  0
  3  4  2  0  0  0
  4 17  1  0  0  0
 17 18  1  0  0  0
 18 19  2  0  0  0
 19 20  1  0  0  0
 20 21  2  0  0  0
 21 22  1  0  0  0
 22 23  2  0  0  0
 23 24  1  0  0  0
 24 25  1  0  0  0
 25 26  2  0  0  0
  4  5  1  0  0  0
  5  6  2  0  0  0
 13 15  1  0  0  0
 14  8  1  0  0  0
  6  1  1  0  0  0
 26 18  1  0  0  0
 26 22  1  0  0  0
 10 16  1  0  0  0
 24 27  1  0  0  0
M  END
>  <minimizedAffinity>
-5.53754

>  <minimizedRMSD>
2.83118

$$$$
CHEMBL2037409 PubChem-60166879


 35 39  0  0  0  0  0  0  0  0999 V2000
   17.2373   -9.8222   15.9277 N   0  0  0  0  0  0  0  0  0  0  0  0
   18.6378   -9.5613   15.7797 C   0  0  0  0  0  0  0  0  0  0  0  0
   19.1834   -8.5775   16.3448 O   0  0  0  0  0  0  0  0  0  0  0  0
   16.8742  -10.5905   15.4305 H   0  0  0  0  0  0  0  0  0  0  0  0
   13.3576   -6.5596   19.4328 C   0  0  0  0  0  0  0  0  0  0  0  0
   14.3429   -6.9905   20.3517 C   0  0  0  0  0  0  0  0  0  0  0  0
   15.4233   -7.7852   19.9338 C   0  0  0  0  0  0  0  0  0  0  0  0
   15.5037   -8.1444   18.5898 C   0  0  0  0  0  0  0  0  0  0  0  0
   16.4980   -8.8997   18.0584 N   0  0  0  0  0  0  0  0  0  0  0  0
   16.3123   -9.0756   16.7277 C   0  0  0  0  0  0  0  0  0  0  0  0
   14.9112   -8.2971   16.1629 S   0  0  0  0  0  0  0  0  0  0  0  0
   14.5362   -7.7217   17.6930 C   0  0  0  0  0  0  0  0  0  0  0  0
   13.4582   -6.9311   18.0820 C   0  0  0  0  0  0  0  0  0  0  0  0
   10.6009   -4.6677   21.4103 C   0  0  0  0  0  0  0  0  0  0  0  0
   11.7771   -5.5448   21.1780 C   0  0  0  0  0  0  0  0  0  0  0  0
   12.3373   -6.0990   22.1606 O   0  0  0  0  0  0  0  0  0  0  0  0
   12.2495   -5.7441   19.8394 N   0  0  0  0  0  0  0  0  0  0  0  0
   11.7630   -5.2726   19.1251 H   0  0  0  0  0  0  0  0  0  0  0  0
   19.4613  -10.4599   14.9249 C   0  0  0  0  0  0  0  0  0  0  0  0
   18.4258  -11.7672   14.1976 S   0  0  0  0  0  0  0  0  0  0  0  0
   17.5976  -10.6283   13.0956 C   0  0  0  0  0  0  0  0  0  0  0  0
   16.2611  -10.4894   13.0181 N   0  0  0  0  0  0  0  0  0  0  0  0
   16.0396   -9.5633   12.0980 N   0  0  0  0  0  0  0  0  0  0  0  0
   17.2501   -9.1801   11.6525 C   0  0  0  0  0  0  0  0  0  0  0  0
   18.2135   -9.8273   12.2624 O   0  0  0  0  0  0  0  0  0  0  0  0
   17.4613   -8.1352   10.6095 C   0  0  0  0  0  0  0  0  0  0  0  0
   17.3817   -8.7259    9.2814 N   0  0  0  0  0  0  0  0  0  0  0  0
   16.6063   -9.7704    8.9016 C   0  0  0  0  0  0  0  0  0  0  0  0
   16.8044  -10.1134    7.5991 N   0  0  0  0  0  0  0  0  0  0  0  0
   17.7434   -9.2430    7.1823 C   0  0  0  0  0  0  0  0  0  0  0  0
   18.3267   -9.1595    5.9203 C   0  0  0  0  0  0  0  0  0  0  0  0
   19.3064   -8.1667    5.7243 C   0  0  0  0  0  0  0  0  0  0  0  0
   19.6740   -7.3003    6.7792 C   0  0  0  0  0  0  0  0  0  0  0  0
   19.0664   -7.4149    8.0439 C   0  0  0  0  0  0  0  0  0  0  0  0
   18.0977   -8.4058    8.1964 C   0  0  0  0  0  0  0  0  0  0  0  0
 14 15  1  0  0  0
 15 16  2  0  0  0
 15 17  1  0  0  0
 17  5  1  0  0  0
  5  6  2  0  0  0
  6  7  1  0  0  0
  7  8  2  0  0  0
  8  9  1  0  0  0
  9 10  2  0  0  0
 10  1  1  0  0  0
 10 11  1  0  0  0
  1  2  1  0  0  0
  2  3  2  0  0  0
  2 19  1  0  0  0
 19 20  1  0  0  0
 20 21  1  0  0  0
 21 22  2  0  0  0
 22 23  1  0  0  0
 23 24  2  0  0  0
 24 26  1  0  0  0
 24 25  1  0  0  0
 26 27  1  0  0  0
 27 28  1  0  0  0
 28 29  2  0  0  0
 29 30  1  0  0  0
 30 31  2  0  0  0
 31 32  1  0  0  0
 32 33  2  0  0  0
 33 34  1  0  0  0
 34 35  2  0  0  0
 35 27  1  0  0  0
 35 30  1  0  0  0
 25 21  1  0  0  0
 11 12  1  0  0  0
 12 13  2  0  0  0
 12  8  1  0  0  0
 13  5  1  0  0  0
 17 18  1  0  0  0
  1  4  1  0  0  0
M  END
>  <minimizedAffinity>
-6.49110

>  <minimizedRMSD>
2.83118

$$$$
CHEMBL3892294 PubChem-90454439


 32 36  0  0  0  0  0  0  0  0999 V2000
   18.2690  -12.6215   14.6255 C   0  0  0  0  0  0  0  0  0  0  0  0
   17.6822  -11.3165   14.3629 N   0  0  0  0  0  0  0  0  0  0  0  0
   17.6460  -10.8790   13.1022 N   0  0  0  0  0  0  0  0  0  0  0  0
   17.1131   -9.6702   12.7762 C   0  0  0  0  0  0  0  0  0  0  0  0
   16.5899   -8.8635   13.7807 C   0  0  0  0  0  0  0  0  0  0  0  0
   16.6231   -9.3054   15.1049 C   0  0  0  0  0  0  0  0  0  0  0  0
   17.1811  -10.5586   15.3843 C   0  0  0  0  0  0  0  0  0  0  0  0
   17.2193  -10.9798   16.5736 O   0  0  0  0  0  0  0  0  0  0  0  0
   16.0934   -8.5005   16.1664 N   0  0  0  0  0  0  0  0  0  0  0  0
   16.6760   -8.3060   16.9358 H   0  0  0  0  0  0  0  0  0  0  0  0
   14.7425   -7.9533   16.1729 C   0  0  0  0  0  0  0  0  0  0  0  0
   14.3505   -7.5630   17.5568 C   0  0  0  0  0  0  0  0  0  0  0  0
   13.2023   -6.9133   17.8480 N   0  0  0  0  0  0  0  0  0  0  0  0
   13.0923   -6.6374   19.1752 C   0  0  0  0  0  0  0  0  0  0  0  0
   14.1717   -7.0726   19.9312 C   0  0  0  0  0  0  0  0  0  0  0  0
   14.3178   -6.9013   21.4000 C   0  0  0  0  0  0  0  0  0  0  0  0
   15.2933   -7.8173   18.9258 S   0  0  0  0  0  0  0  0  0  0  0  0
   17.0838   -9.2284   11.4537 O   0  0  0  0  0  0  0  0  0  0  0  0
   18.2115   -9.3402   10.5989 C   0  0  0  0  0  0  0  0  0  0  0  0
   17.9063   -8.6796    9.2717 C   0  0  0  0  0  0  0  0  0  0  0  0
   16.6163   -9.2387    8.7165 C   0  0  0  0  0  0  0  0  0  0  0  0
   17.9470   -9.7321    8.1784 C   0  0  0  0  0  0  0  0  0  0  0  0
   18.2403   -9.0851    6.8619 C   0  0  0  0  0  0  0  0  0  0  0  0
   17.4962   -9.2619    5.7414 N   0  0  0  0  0  0  0  0  0  0  0  0
   18.0706   -8.5755    4.7598 N   0  0  0  0  0  0  0  0  0  0  0  0
   17.5620   -8.5217    3.4000 C   0  0  0  0  0  0  0  0  0  0  0  0
   19.1745   -7.9721    5.2314 C   0  0  0  0  0  0  0  0  0  0  0  0
   20.0880   -7.1655    4.5539 C   0  0  0  0  0  0  0  0  0  0  0  0
   21.1780   -6.6665    5.2922 C   0  0  0  0  0  0  0  0  0  0  0  0
   21.3260   -6.9827    6.6623 C   0  0  0  0  0  0  0  0  0  0  0  0
   20.3857   -7.8018    7.3156 C   0  0  0  0  0  0  0  0  0  0  0  0
   19.3178   -8.2746    6.5564 C   0  0  0  0  0  0  0  0  0  0  0  0
  1  2  1  0  0  0
  2  3  1  0  0  0
  3  4  2  0  0  0
  4 18  1  0  0  0
 18 19  1  0  0  0
 20 19  1  0  0  0
 20 21  1  0  0  0
 21 22  1  0  0  0
 22 23  1  0  0  0
 23 24  2  0  0  0
 24 25  1  0  0  0
 25 26  1  0  0  0
 25 27  1  0  0  0
 27 28  2  0  0  0
 28 29  1  0  0  0
 29 30  2  0  0  0
 30 31  1  0  0  0
 31 32  2  0  0  0
  4  5  1  0  0  0
  5  6  2  0  0  0
  6  9  1  0  0  0
  9 11  1  0  0  0
 11 12  1  0  0  0
 12 13  2  0  0  0
 13 14  1  0  0  0
 14 15  2  0  0  0
 15 16  1  0  0  0
 15 17  1  0  0  0
  6  7  1  0  0  0
  7  8  2  0  0  0
  7  2  1  0  0  0
 22 20  1  0  0  0
 32 23  1  0  0  0
 17 12  1  0  0  0
 32 27  1  0  0  0
  9 10  1  0  0  0
M  END
>  <minimizedAffinity>
-3.87592

>  <minimizedRMSD>
2.83372

$$$$
CHEMBL3671306


 27 30  0  0  0  0  0  0  0  0999 V2000
   17.2169   -9.9232   12.9059 C   0  0  0  0  0  0  0  0  0  0  0  0
   15.9877   -9.9455   12.2328 C   0  0  0  0  0  0  0  0  0  0  0  0
   15.9368   -9.7430   10.8516 C   0  0  0  0  0  0  0  0  0  0  0  0
   17.1167   -9.5227   10.1233 C   0  0  0  0  0  0  0  0  0  0  0  0
   18.3410   -9.4871   10.7976 C   0  0  0  0  0  0  0  0  0  0  0  0
   18.3928   -9.6892   12.1794 C   0  0  0  0  0  0  0  0  0  0  0  0
   16.2018   -7.8748   14.7902 C   0  0  0  0  0  0  0  0  0  0  0  0
   16.7719   -9.1699   15.2654 C   0  0  0  0  0  0  0  0  0  0  0  0
   16.8377   -9.3926   16.6029 N   0  0  0  0  0  0  0  0  0  0  0  0
   17.3609  -10.5108   17.1043 N   0  0  0  0  0  0  0  0  0  0  0  0
   17.8582  -11.4843   16.3019 C   0  0  0  0  0  0  0  0  0  0  0  0
   18.3407  -12.5275   16.8183 O   0  0  0  0  0  0  0  0  0  0  0  0
   17.8261  -11.3204   14.9107 C   0  0  0  0  0  0  0  0  0  0  0  0
   17.2723  -10.1397   14.3716 C   0  0  0  0  0  0  0  0  0  0  0  0
   18.3412  -12.4151   14.0268 C   0  0  0  0  0  0  0  0  0  0  0  0
   17.3871  -10.6331   18.0808 H   0  0  0  0  0  0  0  0  0  0  0  0
   17.0993   -9.2938    8.7415 O   0  0  0  0  0  0  0  0  0  0  0  0
   18.0902   -8.6059    8.0284 C   0  0  0  0  0  0  0  0  0  0  0  0
   19.0815   -7.9566    8.7095 N   0  0  0  0  0  0  0  0  0  0  0  0
   20.0892   -7.2836    8.0681 C   0  0  0  0  0  0  0  0  0  0  0  0
   20.1473   -7.2489    6.6633 C   0  0  0  0  0  0  0  0  0  0  0  0
   19.1427   -7.9250    5.9810 C   0  0  0  0  0  0  0  0  0  0  0  0
   19.0081   -8.0741    4.6564 N   0  0  0  0  0  0  0  0  0  0  0  0
   17.9342   -8.8333    4.4597 N   0  0  0  0  0  0  0  0  0  0  0  0
   17.3796   -9.1758    5.6496 C   0  0  0  0  0  0  0  0  0  0  0  0
   18.1465   -8.5855    6.6307 C   0  0  0  0  0  0  0  0  0  0  0  0
   17.5912   -9.1072    3.5785 H   0  0  0  0  0  0  0  0  0  0  0  0
  7  8  1  0  0  0
  8  9  2  0  0  0
  9 10  1  0  0  0
 10 11  1  0  0  0
 11 12  2  0  0  0
 11 13  1  0  0  0
 13 14  2  0  0  0
 14  1  1  0  0  0
  1  2  2  0  0  0
  2  3  1  0  0  0
  3  4  2  0  0  0
  4 17  1  0  0  0
 17 18  1  0  0  0
 18 19  2  0  0  0
 19 20  1  0  0  0
 20 21  2  0  0  0
 21 22  1  0  0  0
 22 23  2  0  0  0
 23 24  1  0  0  0
 24 25  1  0  0  0
 25 26  2  0  0  0
  4  5  1  0  0  0
  5  6  2  0  0  0
 13 15  1  0  0  0
 14  8  1  0  0  0
  6  1  1  0  0  0
 26 18  1  0  0  0
 26 22  1  0  0  0
 10 16  1  0  0  0
 24 27  1  0  0  0
M  END
>  <minimizedAffinity>
-5.93425

>  <minimizedRMSD>
2.83434

$$$$
CHEMBL4792689 PubChem-133084072


 35 38  0  0  0  0  0  0  0  0999 V2000
   17.1465   -9.9375   12.0113 C   0  0  0  0  0  0  0  0  0  0  0  0
   15.8876  -10.3064   11.4991 C   0  0  0  0  0  0  0  0  0  0  0  0
   15.5633  -10.0686   10.1913 N   0  0  0  0  0  0  0  0  0  0  0  0
   16.4341   -9.4773    9.3179 C   0  0  0  0  0  0  0  0  0  0  0  0
   17.7064   -9.1362    9.7944 C   0  0  0  0  0  0  0  0  0  0  0  0
   18.0330   -9.3366   11.1077 C   0  0  0  0  0  0  0  0  0  0  0  0
   19.3025   -8.8129   11.2740 C   0  0  0  0  0  0  0  0  0  0  0  0
   19.7005   -8.3263   10.0737 N   0  0  0  0  0  0  0  0  0  0  0  0
   18.7412   -8.5270    9.1775 N   0  0  0  0  0  0  0  0  0  0  0  0
   18.8871   -8.1686    7.7961 C   0  0  0  0  0  0  0  0  0  0  0  0
   19.0936   -9.1509    6.8166 C   0  0  0  0  0  0  0  0  0  0  0  0
   19.2915   -8.7870    5.4816 C   0  0  0  0  0  0  0  0  0  0  0  0
   19.3000   -7.4374    5.1196 C   0  0  0  0  0  0  0  0  0  0  0  0
   19.1220   -6.4516    6.0941 C   0  0  0  0  0  0  0  0  0  0  0  0
   18.9237   -6.8162    7.4290 C   0  0  0  0  0  0  0  0  0  0  0  0
   19.4909   -7.0843    3.8260 F   0  0  0  0  0  0  0  0  0  0  0  0
   17.2646   -9.1557   14.4125 N   0  0  0  0  0  0  0  0  0  0  0  0
   17.4719  -10.1787   13.4335 C   0  0  0  0  0  0  0  0  0  0  0  0
   17.9431  -11.2949   13.7851 O   0  0  0  0  0  0  0  0  0  0  0  0
   16.9529   -8.2721   14.1104 H   0  0  0  0  0  0  0  0  0  0  0  0
   17.4941   -9.3630   15.8359 C   0  0  0  0  0  0  0  0  0  0  0  0
   14.3243   -7.6109   18.1373 C   0  0  0  0  0  0  0  0  0  0  0  0
   14.2076   -7.7122   16.7464 C   0  0  0  0  0  0  0  0  0  0  0  0
   15.2416   -8.2789   15.9955 C   0  0  0  0  0  0  0  0  0  0  0  0
   16.3981   -8.7416   16.6331 C   0  0  0  0  0  0  0  0  0  0  0  0
   16.5160   -8.6397   18.0231 C   0  0  0  0  0  0  0  0  0  0  0  0
   15.4818   -8.0731   18.7738 C   0  0  0  0  0  0  0  0  0  0  0  0
   13.0321   -6.8886   19.0780 S   0  0  0  0  0  0  0  0  0  0  0  0
   12.4226   -5.7539   18.3019 O   0  0  0  0  0  0  0  0  0  0  0  0
   11.9721   -7.9209   19.3471 O   0  0  0  0  0  0  0  0  0  0  0  0
   13.1466   -7.1322   21.6404 C   0  0  0  0  0  0  0  0  0  0  0  0
   13.6778   -6.3015   20.5732 N   0  0  0  0  0  0  0  0  0  0  0  0
   14.6959   -6.3624   20.5596 H   0  0  0  0  0  0  0  0  0  0  0  0
   16.0469   -9.1998    8.0067 O   0  0  0  0  0  0  0  0  0  0  0  0
   16.3376  -10.0807    6.9323 C   0  0  0  0  0  0  0  0  0  0  0  0
 31 32  1  0  0  0
 32 28  1  0  0  0
 28 29  2  0  0  0
 28 30  2  0  0  0
 28 22  1  0  0  0
 22 23  2  0  0  0
 23 24  1  0  0  0
 24 25  2  0  0  0
 25 26  1  0  0  0
 26 27  2  0  0  0
 25 21  1  0  0  0
 21 17  1  0  0  0
 17 18  1  0  0  0
 18 19  2  0  0  0
 18  1  1  0  0  0
  1  2  2  0  0  0
  2  3  1  0  0  0
  3  4  2  0  0  0
  4  5  1  0  0  0
  5  6  2  0  0  0
  6  7  1  0  0  0
  7  8  2  0  0  0
  8  9  1  0  0  0
  9 10  1  0  0  0
 10 11  2  0  0  0
 11 12  1  0  0  0
 12 13  2  0  0  0
 13 14  1  0  0  0
 14 15  2  0  0  0
 13 16  1  0  0  0
  4 34  1  0  0  0
 34 35  1  0  0  0
 27 22  1  0  0  0
  6  1  1  0  0  0
  9  5  1  0  0  0
 15 10  1  0  0  0
 32 33  1  0  0  0
 17 20  1  0  0  0
M  END
>  <minimizedAffinity>
-2.22319

>  <minimizedRMSD>
2.84002

$$$$
CHEMBL5287388


 33 37  0  0  0  0  0  0  0  0999 V2000
   16.9045   -9.5323   15.5065 C   0  0  0  0  0  0  0  0  0  0  0  0
   16.7050   -8.9397   14.1108 C   0  0  0  0  0  0  0  0  0  0  0  0
   16.8549   -9.9918   13.1060 N   0  0  0  0  0  0  0  0  0  0  0  0
   18.0714  -10.8025   13.1506 C   0  0  0  0  0  0  0  0  0  0  0  0
   18.2422  -11.4225   14.5391 C   0  0  0  0  0  0  0  0  0  0  0  0
   18.1988  -10.3546   15.6334 C   0  0  0  0  0  0  0  0  0  0  0  0
   19.4617   -9.5058   15.5883 C   0  0  0  0  0  0  0  0  0  0  0  0
   15.9627  -10.0462   11.9748 C   0  0  0  0  0  0  0  0  0  0  0  0
   16.4135   -9.9767   10.6905 N   0  0  0  0  0  0  0  0  0  0  0  0
   15.6000  -10.0286    9.6322 C   0  0  0  0  0  0  0  0  0  0  0  0
   14.2590  -10.1597    9.7712 N   0  0  0  0  0  0  0  0  0  0  0  0
   13.7351  -10.2404   11.0284 C   0  0  0  0  0  0  0  0  0  0  0  0
   14.5746  -10.1890   12.1571 C   0  0  0  0  0  0  0  0  0  0  0  0
   12.2675  -10.3876   11.2086 C   0  0  0  0  0  0  0  0  0  0  0  0
   16.2602   -9.9611    8.4636 N   0  0  0  0  0  0  0  0  0  0  0  0
   17.5412   -9.8668    8.9054 C   0  0  0  0  0  0  0  0  0  0  0  0
   17.6540   -9.8811   10.2547 N   0  0  0  0  0  0  0  0  0  0  0  0
   18.9483   -9.7412    7.8089 S   0  0  0  0  0  0  0  0  0  0  0  0
   18.3025   -8.2492    6.9972 C   0  0  0  0  0  0  0  0  0  0  0  0
   18.7760   -7.0340    7.7189 C   0  0  0  0  0  0  0  0  0  0  0  0
   19.2689   -7.1411    8.9481 C   0  0  0  0  0  0  0  0  0  0  0  0
   16.7252   -8.5544   16.5828 N   0  0  0  0  0  0  0  0  0  0  0  0
   17.9385   -8.1177   17.2562 C   0  0  0  0  0  0  0  0  0  0  0  0
   15.4285   -8.1035   17.0357 C   0  0  0  0  0  0  0  0  0  0  0  0
   15.1504   -7.8440   18.3835 C   0  0  0  0  0  0  0  0  0  0  0  0
   13.9139   -7.4177   18.7537 C   0  0  0  0  0  0  0  0  0  0  0  0
   13.8274   -7.2000   20.0722 N   0  0  0  0  0  0  0  0  0  0  0  0
   15.0632   -7.5000   20.5431 C   0  0  0  0  0  0  0  0  0  0  0  0
   15.9254   -7.9038   19.5206 C   0  0  0  0  0  0  0  0  0  0  0  0
   12.9172   -7.2290   17.8566 N   0  0  0  0  0  0  0  0  0  0  0  0
   13.1733   -7.4770   16.5397 C   0  0  0  0  0  0  0  0  0  0  0  0
   14.4113   -7.9053   16.1426 N   0  0  0  0  0  0  0  0  0  0  0  0
   13.0445   -6.8921   20.5835 H   0  0  0  0  0  0  0  0  0  0  0  0
 24 25  1  0  0  0
 25 26  2  0  0  0
 26 27  1  0  0  0
 27 28  1  0  0  0
 28 29  2  0  0  0
 26 30  1  0  0  0
 30 31  2  0  0  0
 31 32  1  0  0  0
 24 22  1  0  0  0
  1 22  1  0  0  0
  1  2  1  0  0  0
  2  3  1  0  0  0
  3  8  1  0  0  0
  8  9  1  0  0  0
  9 10  1  0  0  0
 10 11  1  0  0  0
 11 12  2  0  0  0
 12 13  1  0  0  0
 12 14  1  0  0  0
 10 15  2  0  0  0
 15 16  1  0  0  0
 16 17  2  0  0  0
 16 18  1  0  0  0
 18 19  1  0  0  0
 19 20  1  0  0  0
 20 21  2  0  0  0
  3  4  1  0  0  0
  4  5  1  0  0  0
  5  6  1  0  0  0
  6  7  1  0  0  0
 22 23  1  0  0  0
 32 24  2  0  0  0
  6  1  1  0  0  0
 29 25  1  0  0  0
 13  8  2  0  0  0
 17  9  1  0  0  0
 27 33  1  0  0  0
M  END
>  <minimizedAffinity>
-1.23238

>  <minimizedRMSD>
2.84133

$$$$
CHEMBL46630 PubChem-44291295


 33 36  0  0  0  0  0  0  0  0999 V2000
   15.9271   -8.5528   15.0178 C   0  0  0  0  0  0  0  0  0  0  0  0
   14.9292   -7.8238   15.6828 C   0  0  0  0  0  0  0  0  0  0  0  0
   15.0193   -7.5943   17.0585 C   0  0  0  0  0  0  0  0  0  0  0  0
   16.1064   -8.0961   17.7812 C   0  0  0  0  0  0  0  0  0  0  0  0
   17.1053   -8.8199   17.1227 C   0  0  0  0  0  0  0  0  0  0  0  0
   17.0137   -9.0479   15.7470 C   0  0  0  0  0  0  0  0  0  0  0  0
   16.8836   -9.4243   12.7976 C   0  0  0  0  0  0  0  0  0  0  0  0
   17.9662   -9.8015   13.3247 O   0  0  0  0  0  0  0  0  0  0  0  0
   15.8720   -8.8064   13.6076 N   0  0  0  0  0  0  0  0  0  0  0  0
   15.0502   -8.5260   13.1438 H   0  0  0  0  0  0  0  0  0  0  0  0
   16.6818   -9.6259   11.3353 C   0  0  0  0  0  0  0  0  0  0  0  0
   17.5411   -9.1070   10.3314 C   0  0  0  0  0  0  0  0  0  0  0  0
   17.2428   -9.3705    8.9695 C   0  0  0  0  0  0  0  0  0  0  0  0
   16.1516  -10.1067    8.6371 N   0  0  0  0  0  0  0  0  0  0  0  0
   15.3180  -10.6097    9.5816 C   0  0  0  0  0  0  0  0  0  0  0  0
   15.5687  -10.3785   10.9326 C   0  0  0  0  0  0  0  0  0  0  0  0
   18.0692   -8.8735    7.9573 C   0  0  0  0  0  0  0  0  0  0  0  0
   19.1944   -8.1127    8.2789 C   0  0  0  0  0  0  0  0  0  0  0  0
   19.4979   -7.8448    9.6145 C   0  0  0  0  0  0  0  0  0  0  0  0
   18.6771   -8.3382   10.6314 C   0  0  0  0  0  0  0  0  0  0  0  0
   16.2284   -7.8196   19.2424 C   0  0  0  0  0  0  0  0  0  0  0  0
   14.9039   -8.0674   19.9555 C   0  0  0  0  0  0  0  0  0  0  0  0
   13.9268   -7.0599   19.5672 N   0  0  0  0  0  0  0  0  0  0  0  0
   12.5213   -7.2830   19.6991 C   0  0  0  0  0  0  0  0  0  0  0  0
   12.0922   -8.3407   20.2352 O   0  0  0  0  0  0  0  0  0  0  0  0
   14.2431   -6.2013   19.2038 H   0  0  0  0  0  0  0  0  0  0  0  0
   11.5565   -6.2442   19.2294 C   0  0  0  0  0  0  0  0  0  0  0  0
   12.3122   -5.0446   18.6861 C   0  0  0  0  0  0  0  0  0  0  0  0
   11.7032   -6.0454   17.7314 C   0  0  0  0  0  0  0  0  0  0  0  0
   15.1018   -8.0376   21.4339 C   0  0  0  0  0  0  0  0  0  0  0  0
   15.9529   -7.2665   21.9519 O   0  0  0  0  0  0  0  0  0  0  0  0
   14.3368   -8.8641   22.2452 O   0  0  0  0  0  0  0  0  0  0  0  0
   13.7029   -9.4389   21.8635 H   0  0  0  0  0  0  0  0  0  0  0  0
  7  8  2  0  0  0
  7 11  1  0  0  0
 11 12  2  0  0  0
 12 13  1  0  0  0
 13 14  2  0  0  0
 14 15  1  0  0  0
 15 16  2  0  0  0
 13 17  1  0  0  0
 17 18  2  0  0  0
 18 19  1  0  0  0
 19 20  2  0  0  0
  7  9  1  0  0  0
  9  1  1  0  0  0
  1  2  2  0  0  0
  2  3  1  0  0  0
  3  4  2  0  0  0
  4 21  1  0  0  0
 22 21  1  0  0  0
 22 23  1  0  0  0
 23 24  1  0  0  0
 24 25  2  0  0  0
 24 27  1  0  0  0
 27 28  1  0  0  0
 28 29  1  0  0  0
 22 30  1  0  0  0
 30 31  2  0  0  0
 30 32  1  0  0  0
  4  5  1  0  0  0
  5  6  2  0  0  0
 16 11  1  0  0  0
  6  1  1  0  0  0
 20 12  1  0  0  0
 29 27  1  0  0  0
  9 10  1  0  0  0
 23 26  1  0  0  0
 32 33  1  0  0  0
M  END
>  <minimizedAffinity>
-4.80832

>  <minimizedRMSD>
2.84169

$$$$
CHEMBL2235567 8435623 LN01153020 MCULE-3671819267 MolPort-001-973-883 PubChem-3138138 ZINC000008435623 ZINC08435623


 30 33  0  0  0  0  0  0  0  0999 V2000
   17.5798  -10.0231   15.4710 S   0  0  0  0  0  0  0  0  0  0  0  0
   17.3052  -10.2013   13.7128 C   0  0  0  0  0  0  0  0  0  0  0  0
   18.1024  -10.9112   12.8930 N   0  0  0  0  0  0  0  0  0  0  0  0
   17.5733  -10.8068   11.6838 N   0  0  0  0  0  0  0  0  0  0  0  0
   16.4785  -10.0355   11.8187 C   0  0  0  0  0  0  0  0  0  0  0  0
   16.3029   -9.6629   13.0628 O   0  0  0  0  0  0  0  0  0  0  0  0
   15.5617   -9.6846   10.6987 C   0  0  0  0  0  0  0  0  0  0  0  0
   16.2949   -9.6783    9.4425 N   0  0  0  0  0  0  0  0  0  0  0  0
   16.0593  -10.4961    8.4217 N   0  0  0  0  0  0  0  0  0  0  0  0
   16.9324  -10.2892    7.4355 N   0  0  0  0  0  0  0  0  0  0  0  0
   17.7462   -9.3084    7.8691 C   0  0  0  0  0  0  0  0  0  0  0  0
   18.8352   -8.7298    7.2250 C   0  0  0  0  0  0  0  0  0  0  0  0
   19.5292   -7.7214    7.9236 C   0  0  0  0  0  0  0  0  0  0  0  0
   19.1229   -7.3309    9.2225 C   0  0  0  0  0  0  0  0  0  0  0  0
   18.0154   -7.9417    9.8430 C   0  0  0  0  0  0  0  0  0  0  0  0
   17.3563   -8.9300    9.1162 C   0  0  0  0  0  0  0  0  0  0  0  0
   15.9609   -9.2406   15.7464 C   0  0  0  0  0  0  0  0  0  0  0  0
   14.7127   -7.9564   17.5238 N   0  0  0  0  0  0  0  0  0  0  0  0
   15.8890   -8.6689   17.1194 C   0  0  0  0  0  0  0  0  0  0  0  0
   16.8564   -8.8357   17.9083 O   0  0  0  0  0  0  0  0  0  0  0  0
   14.0008   -7.8616   16.8504 H   0  0  0  0  0  0  0  0  0  0  0  0
   13.9151   -6.1787   21.2996 C   0  0  0  0  0  0  0  0  0  0  0  0
   15.0280   -7.0165   21.1452 C   0  0  0  0  0  0  0  0  0  0  0  0
   15.3013   -7.6068   19.9083 C   0  0  0  0  0  0  0  0  0  0  0  0
   14.4655   -7.3674   18.8078 C   0  0  0  0  0  0  0  0  0  0  0  0
   13.3548   -6.5319   18.9619 C   0  0  0  0  0  0  0  0  0  0  0  0
   13.0799   -5.9406   20.1982 C   0  0  0  0  0  0  0  0  0  0  0  0
   13.9914   -6.2134   23.7360 O   0  0  0  0  0  0  0  0  0  0  0  0
   13.6371   -5.5743   22.5699 N   0  0  0  0  0  0  0  0  0  0  0  0
   13.0712   -4.4629   22.6330 O   0  0  0  0  0  0  0  0  0  0  0  0
 28 29  1  0  0  0
 29 30  2  0  0  0
 29 22  1  0  0  0
 22 23  2  0  0  0
 23 24  1  0  0  0
 24 25  2  0  0  0
 25 18  1  0  0  0
 25 26  1  0  0  0
 18 19  1  0  0  0
 19 20  2  0  0  0
 19 17  1  0  0  0
 17  1  1  0  0  0
  1  2  1  0  0  0
  2  3  2  0  0  0
  3  4  1  0  0  0
  4  5  2  0  0  0
  5  7  1  0  0  0
  5  6  1  0  0  0
  7  8  1  0  0  0
  8  9  1  0  0  0
  9 10  2  0  0  0
 10 11  1  0  0  0
 11 12  2  0  0  0
 12 13  1  0  0  0
 13 14  2  0  0  0
 14 15  1  0  0  0
 15 16  2  0  0  0
 16  8  1  0  0  0
 16 11  1  0  0  0
  6  2  1  0  0  0
 26 27  2  0  0  0
 27 22  1  0  0  0
 18 21  1  0  0  0
M  CHG 1  28  -1
M  CHG 1  29   1
M  END
>  <minimizedAffinity>
-6.77877

>  <minimizedRMSD>
2.84668

$$$$
CHEMBL409253 PubChem-24800829


 33 36  0  0  0  0  0  0  0  0999 V2000
   18.8925  -10.8506   12.8168 C   0  0  0  0  0  0  0  0  0  0  0  0
   19.0392  -12.1644   13.2716 C   0  0  0  0  0  0  0  0  0  0  0  0
   18.4933  -12.5516   14.4981 C   0  0  0  0  0  0  0  0  0  0  0  0
   17.7928  -11.6257   15.2753 C   0  0  0  0  0  0  0  0  0  0  0  0
   17.6243  -10.3092   14.8269 C   0  0  0  0  0  0  0  0  0  0  0  0
   18.1888   -9.9237   13.6019 C   0  0  0  0  0  0  0  0  0  0  0  0
   16.8940   -9.3156   15.6950 C   0  0  0  0  0  0  0  0  0  0  0  0
   17.0489   -7.8599   15.2999 C   0  0  0  0  0  0  0  0  0  0  0  0
   15.6898   -8.5344   15.1512 C   0  0  0  0  0  0  0  0  0  0  0  0
   15.3871   -8.7816   13.7017 C   0  0  0  0  0  0  0  0  0  0  0  0
   15.6316   -7.8895   12.8452 O   0  0  0  0  0  0  0  0  0  0  0  0
   14.7580   -9.9980   13.3028 N   0  0  0  0  0  0  0  0  0  0  0  0
   14.4628  -10.2340   12.0033 O   0  0  0  0  0  0  0  0  0  0  0  0
   14.5355  -10.6751   13.9820 H   0  0  0  0  0  0  0  0  0  0  0  0
   14.7429   -9.4769   11.4655 H   0  0  0  0  0  0  0  0  0  0  0  0
   16.9045   -9.5324   17.1734 C   0  0  0  0  0  0  0  0  0  0  0  0
   16.3301   -8.5607   18.0404 N   0  0  0  0  0  0  0  0  0  0  0  0
   17.3899  -10.5898   17.6550 O   0  0  0  0  0  0  0  0  0  0  0  0
   15.9495   -7.7326   17.6682 H   0  0  0  0  0  0  0  0  0  0  0  0
   16.3134   -8.7168   19.0123 H   0  0  0  0  0  0  0  0  0  0  0  0
   19.4547  -10.4924   11.5892 O   0  0  0  0  0  0  0  0  0  0  0  0
   19.3535   -9.1794   11.0536 C   0  0  0  0  0  0  0  0  0  0  0  0
   14.8076  -10.4173    9.4405 C   0  0  0  0  0  0  0  0  0  0  0  0
   16.1257   -9.7774    9.1930 C   0  0  0  0  0  0  0  0  0  0  0  0
   17.0918   -9.7633   10.2010 C   0  0  0  0  0  0  0  0  0  0  0  0
   18.3287   -9.1577    9.9677 C   0  0  0  0  0  0  0  0  0  0  0  0
   18.5907   -8.5810    8.7119 C   0  0  0  0  0  0  0  0  0  0  0  0
   19.8198   -7.9701    8.4208 C   0  0  0  0  0  0  0  0  0  0  0  0
   20.0442   -7.4050    7.1623 C   0  0  0  0  0  0  0  0  0  0  0  0
   19.0442   -7.4454    6.1863 C   0  0  0  0  0  0  0  0  0  0  0  0
   17.8158   -8.0513    6.4642 C   0  0  0  0  0  0  0  0  0  0  0  0
   17.5828   -8.6193    7.7200 C   0  0  0  0  0  0  0  0  0  0  0  0
   16.3880   -9.2106    7.9853 N   0  0  0  0  0  0  0  0  0  0  0  0
 23 24  1  0  0  0
 24 25  2  0  0  0
 25 26  1  0  0  0
 26 22  1  0  0  0
 26 27  2  0  0  0
 22 21  1  0  0  0
 21  1  1  0  0  0
  1  2  2  0  0  0
  2  3  1  0  0  0
  3  4  2  0  0  0
  4  5  1  0  0  0
  5  6  2  0  0  0
  7  5  1  0  0  0
  7 16  1  0  0  0
  7  8  1  0  0  0
 16 17  1  0  0  0
 16 18  2  0  0  0
  8  9  1  0  0  0
  9 10  1  0  0  0
  9  7  1  0  0  0
 10 11  2  0  0  0
 10 12  1  0  0  0
 12 13  1  0  0  0
  6  1  1  0  0  0
 27 28  1  0  0  0
 28 29  2  0  0  0
 29 30  1  0  0  0
 30 31  2  0  0  0
 31 32  1  0  0  0
 32 33  2  0  0  0
 32 27  1  0  0  0
 33 24  1  0  0  0
 17 19  1  0  0  0
 17 20  1  0  0  0
 12 14  1  0  0  0
 13 15  1  0  0  0
M  END
>  <minimizedAffinity>
-3.83786

>  <minimizedRMSD>
2.84899

$$$$
CHEMBL3608786 221023286 LN04611555 MCULE-5829587710 MolPort-046-419-110 PubChem-117798934 PubChem-86764579


 34 37  0  0  0  0  0  0  0  0999 V2000
   19.3685  -12.4635   12.4556 C   0  0  0  0  0  0  0  0  0  0  0  0
   18.6512  -11.6679   13.4922 C   0  0  0  0  0  0  0  0  0  0  0  0
   17.6405  -10.7375   13.1593 C   0  0  0  0  0  0  0  0  0  0  0  0
   16.9254  -10.1080   14.1837 C   0  0  0  0  0  0  0  0  0  0  0  0
   17.2295  -10.3603   15.5240 C   0  0  0  0  0  0  0  0  0  0  0  0
   18.2503  -11.2570   15.8492 C   0  0  0  0  0  0  0  0  0  0  0  0
   18.9513  -11.9143   14.8359 C   0  0  0  0  0  0  0  0  0  0  0  0
   17.2772  -10.4491   11.8032 N   0  0  0  0  0  0  0  0  0  0  0  0
   17.9881   -9.5583   10.9357 C   0  0  0  0  0  0  0  0  0  0  0  0
   18.8635   -8.7809   11.4030 O   0  0  0  0  0  0  0  0  0  0  0  0
   16.4788  -10.8969   11.4407 H   0  0  0  0  0  0  0  0  0  0  0  0
   17.6585   -9.5252    9.5009 C   0  0  0  0  0  0  0  0  0  0  0  0
   16.6582  -10.2633    8.8815 C   0  0  0  0  0  0  0  0  0  0  0  0
   16.6557   -9.9723    7.5562 N   0  0  0  0  0  0  0  0  0  0  0  0
   17.6478   -9.0729    7.4112 C   0  0  0  0  0  0  0  0  0  0  0  0
   18.2712   -8.7828    8.5634 N   0  0  0  0  0  0  0  0  0  0  0  0
   19.3026   -7.9039    8.6561 C   0  0  0  0  0  0  0  0  0  0  0  0
   19.7349   -7.2680    7.4838 C   0  0  0  0  0  0  0  0  0  0  0  0
   19.0952   -7.5566    6.2637 C   0  0  0  0  0  0  0  0  0  0  0  0
   18.0327   -8.4729    6.2144 C   0  0  0  0  0  0  0  0  0  0  0  0
   16.4828   -9.6530   16.6037 C   0  0  0  0  0  0  0  0  0  0  0  0
   16.5644   -8.2103   16.4170 N   0  0  0  0  0  0  0  0  0  0  0  0
   16.1340   -7.5565   15.2215 C   0  0  0  0  0  0  0  0  0  0  0  0
   15.6077   -8.2238   14.2900 O   0  0  0  0  0  0  0  0  0  0  0  0
   16.3035   -6.1381   15.1064 N   0  0  0  0  0  0  0  0  0  0  0  0
   16.9323   -7.6616   17.1468 H   0  0  0  0  0  0  0  0  0  0  0  0
   16.7016   -5.6775   15.8800 H   0  0  0  0  0  0  0  0  0  0  0  0
   15.9537   -5.3197   13.9818 C   0  0  0  0  0  0  0  0  0  0  0  0
   14.6925   -5.4819   13.3977 C   0  0  0  0  0  0  0  0  0  0  0  0
   14.3141   -4.7007   12.3015 C   0  0  0  0  0  0  0  0  0  0  0  0
   15.1970   -3.7500   11.7826 C   0  0  0  0  0  0  0  0  0  0  0  0
   16.4583   -3.5808   12.3597 C   0  0  0  0  0  0  0  0  0  0  0  0
   16.8355   -4.3626   13.4554 C   0  0  0  0  0  0  0  0  0  0  0  0
   13.0914   -4.8655   11.7425 F   0  0  0  0  0  0  0  0  0  0  0  0
  1  2  1  0  0  0
  2  3  2  0  0  0
  3  4  1  0  0  0
  3  8  1  0  0  0
  4  5  2  0  0  0
  5  6  1  0  0  0
  5 21  1  0  0  0
  6  7  2  0  0  0
  7  2  1  0  0  0
 21 22  1  0  0  0
 22 23  1  0  0  0
 23 24  2  0  0  0
 23 25  1  0  0  0
 25 28  1  0  0  0
 28 29  2  0  0  0
 29 30  1  0  0  0
 30 31  2  0  0  0
 30 34  1  0  0  0
 31 32  1  0  0  0
 32 33  2  0  0  0
 33 28  1  0  0  0
  8  9  1  0  0  0
  9 10  2  0  0  0
  9 12  1  0  0  0
 12 13  2  0  0  0
 13 14  1  0  0  0
 14 15  2  0  0  0
 15 16  1  0  0  0
 16 17  1  0  0  0
 16 12  1  0  0  0
 17 18  2  0  0  0
 18 19  1  0  0  0
 19 20  2  0  0  0
 20 15  1  0  0  0
 22 26  1  0  0  0
 25 27  1  0  0  0
  8 11  1  0  0  0
M  END
>  <minimizedAffinity>
16.61267

>  <minimizedRMSD>
2.85168

$$$$
CHEMBL560206 PubChem-45269487


 31 34  0  0  0  0  0  0  0  0999 V2000
   18.0523  -10.4106   13.3752 S   0  0  0  0  0  0  0  0  0  0  0  0
   16.7181   -9.8089   12.5466 C   0  0  0  0  0  0  0  0  0  0  0  0
   15.7905   -9.3465   13.4726 C   0  0  0  0  0  0  0  0  0  0  0  0
   16.2059   -9.5168   14.8003 C   0  0  0  0  0  0  0  0  0  0  0  0
   17.4815  -10.0904   14.9242 C   0  0  0  0  0  0  0  0  0  0  0  0
   16.5394   -9.7631   11.0826 C   0  0  0  0  0  0  0  0  0  0  0  0
   15.4799  -10.3291   10.3844 C   0  0  0  0  0  0  0  0  0  0  0  0
   15.6474  -10.0894    9.0601 N   0  0  0  0  0  0  0  0  0  0  0  0
   16.7958   -9.3896    8.9919 C   0  0  0  0  0  0  0  0  0  0  0  0
   17.3583   -9.1759   10.1919 N   0  0  0  0  0  0  0  0  0  0  0  0
   18.5203   -8.4928   10.3593 C   0  0  0  0  0  0  0  0  0  0  0  0
   19.1614   -7.9870    9.2199 C   0  0  0  0  0  0  0  0  0  0  0  0
   18.5888   -8.1995    7.9523 C   0  0  0  0  0  0  0  0  0  0  0  0
   17.3859   -8.9115    7.8241 C   0  0  0  0  0  0  0  0  0  0  0  0
   18.2949  -10.2737   16.1375 C   0  0  0  0  0  0  0  0  0  0  0  0
   19.3305   -9.5861   16.3290 O   0  0  0  0  0  0  0  0  0  0  0  0
   17.9508  -11.2883   17.0751 N   0  0  0  0  0  0  0  0  0  0  0  0
   17.1427  -11.8332   16.9363 H   0  0  0  0  0  0  0  0  0  0  0  0
   18.5210  -11.4450   17.8622 H   0  0  0  0  0  0  0  0  0  0  0  0
   15.3590   -9.1532   15.8547 O   0  0  0  0  0  0  0  0  0  0  0  0
   15.5311   -7.9817   16.6463 C   0  0  0  0  0  0  0  0  0  0  0  0
   16.7118   -8.1483   17.5910 C   0  0  0  0  0  0  0  0  0  0  0  0
   14.2786   -7.6987   17.4229 C   0  0  0  0  0  0  0  0  0  0  0  0
   14.3118   -7.5472   18.8245 C   0  0  0  0  0  0  0  0  0  0  0  0
   13.1273   -7.2919   19.5245 C   0  0  0  0  0  0  0  0  0  0  0  0
   11.9144   -7.1734   18.8419 C   0  0  0  0  0  0  0  0  0  0  0  0
   11.8778   -7.3155   17.4536 C   0  0  0  0  0  0  0  0  0  0  0  0
   13.0539   -7.5780   16.7473 C   0  0  0  0  0  0  0  0  0  0  0  0
   15.5801   -7.6938   19.5982 C   0  0  0  0  0  0  0  0  0  0  0  0
   15.3582   -7.3618   20.9347 O   0  0  0  0  0  0  0  0  0  0  0  0
   15.0528   -6.4430   20.9932 H   0  0  0  0  0  0  0  0  0  0  0  0
  1  2  1  0  0  0
  2  3  2  0  0  0
  3  4  1  0  0  0
  4  5  2  0  0  0
  5 15  1  0  0  0
 15 16  2  0  0  0
 15 17  1  0  0  0
  4 20  1  0  0  0
 20 21  1  0  0  0
 21 23  1  0  0  0
 23 24  2  0  0  0
 24 25  1  0  0  0
 25 26  2  0  0  0
 26 27  1  0  0  0
 27 28  2  0  0  0
 24 29  1  0  0  0
 29 30  1  0  0  0
 21 22  1  0  0  0
  2  6  1  0  0  0
  6  7  2  0  0  0
  7  8  1  0  0  0
  8  9  2  0  0  0
  9 10  1  0  0  0
 10 11  1  0  0  0
 11 12  2  0  0  0
 12 13  1  0  0  0
 13 14  2  0  0  0
  5  1  1  0  0  0
 28 23  1  0  0  0
 10  6  1  0  0  0
 14  9  1  0  0  0
 17 18  1  0  0  0
 17 19  1  0  0  0
 30 31  1  0  0  0
M  END
>  <minimizedAffinity>
-6.33987

>  <minimizedRMSD>
2.85464

$$$$
CHEMBL4877972 PubChem-164628737


 39 42  0  0  0  0  0  0  0  0999 V2000
   19.7449   -7.5750    6.4955 C   0  0  0  0  0  0  0  0  0  0  0  0
   20.2119   -7.2845    7.7383 N   0  0  0  0  0  0  0  0  0  0  0  0
   19.3873   -7.8197    8.6291 N   0  0  0  0  0  0  0  0  0  0  0  0
   18.4082   -8.4593    7.9760 C   0  0  0  0  0  0  0  0  0  0  0  0
   17.3936   -9.1699    8.5247 N   0  0  0  0  0  0  0  0  0  0  0  0
   16.5197   -9.7976    7.6852 C   0  0  0  0  0  0  0  0  0  0  0  0
   16.6826   -9.7193    6.3275 N   0  0  0  0  0  0  0  0  0  0  0  0
   17.7066   -9.0090    5.7696 C   0  0  0  0  0  0  0  0  0  0  0  0
   18.5860   -8.3441    6.6292 C   0  0  0  0  0  0  0  0  0  0  0  0
   17.8804   -9.0148    4.3584 N   0  0  0  0  0  0  0  0  0  0  0  0
   17.2396   -9.4947    3.7855 H   0  0  0  0  0  0  0  0  0  0  0  0
   18.6416   -8.5390    3.9542 H   0  0  0  0  0  0  0  0  0  0  0  0
   21.8072   -7.2954    5.1206 C   0  0  0  0  0  0  0  0  0  0  0  0
   22.4943   -6.8176    3.9894 C   0  0  0  0  0  0  0  0  0  0  0  0
   21.7470   -6.1346    3.0366 C   0  0  0  0  0  0  0  0  0  0  0  0
   20.4085   -5.9224    3.1748 C   0  0  0  0  0  0  0  0  0  0  0  0
   19.7015   -6.3804    4.2822 C   0  0  0  0  0  0  0  0  0  0  0  0
   20.4114   -7.0954    5.2692 C   0  0  0  0  0  0  0  0  0  0  0  0
   19.9338   -5.2353    2.1220 N   0  0  0  0  0  0  0  0  0  0  0  0
   21.0588   -5.0680    1.3795 C   0  0  0  0  0  0  0  0  0  0  0  0
   22.1444   -5.5991    1.9146 O   0  0  0  0  0  0  0  0  0  0  0  0
   21.0655   -4.3797    0.1346 N   0  0  0  0  0  0  0  0  0  0  0  0
   20.2301   -4.0010   -0.2230 H   0  0  0  0  0  0  0  0  0  0  0  0
   21.9056   -4.2821   -0.3694 H   0  0  0  0  0  0  0  0  0  0  0  0
   19.5835   -7.7619   10.0703 C   0  0  0  0  0  0  0  0  0  0  0  0
   19.3753   -9.1365   10.6943 C   0  0  0  0  0  0  0  0  0  0  0  0
   17.9267   -9.3466   11.1073 C   0  0  0  0  0  0  0  0  0  0  0  0
   17.8378   -9.6759   12.5870 C   0  0  0  0  0  0  0  0  0  0  0  0
   18.2513  -11.1170   12.8290 C   0  0  0  0  0  0  0  0  0  0  0  0
   19.0014  -11.2672   14.1453 C   0  0  0  0  0  0  0  0  0  0  0  0
   19.0468   -9.9541   14.9141 C   0  0  0  0  0  0  0  0  0  0  0  0
   18.4554  -10.0972   16.3097 C   0  0  0  0  0  0  0  0  0  0  0  0
   16.9376  -10.2253   16.2477 C   0  0  0  0  0  0  0  0  0  0  0  0
   16.2300   -8.9090   16.3627 C   0  0  0  0  0  0  0  0  0  0  0  0
   15.9589   -8.2217   15.3403 O   0  0  0  0  0  0  0  0  0  0  0  0
   15.8736   -8.4287   17.6563 N   0  0  0  0  0  0  0  0  0  0  0  0
   15.2380   -7.2433   17.8065 O   0  0  0  0  0  0  0  0  0  0  0  0
   16.0928   -8.9664   18.4514 H   0  0  0  0  0  0  0  0  0  0  0  0
   15.0956   -6.8402   16.9358 H   0  0  0  0  0  0  0  0  0  0  0  0
 13 14  2  0  0  0
 14 15  1  0  0  0
 15 16  2  0  0  0
 16 17  1  0  0  0
 17 18  2  0  0  0
 18  1  1  0  0  0
  1  2  2  0  0  0
  2  3  1  0  0  0
  3  4  1  0  0  0
  4  5  2  0  0  0
  5  6  1  0  0  0
  6  7  2  0  0  0
  7  8  1  0  0  0
  8  9  2  0  0  0
  8 10  1  0  0  0
  3 25  1  0  0  0
 25 26  1  0  0  0
 26 27  1  0  0  0
 27 28  1  0  0  0
 28 29  1  0  0  0
 29 30  1  0  0  0
 30 31  1  0  0  0
 31 32  1  0  0  0
 32 33  1  0  0  0
 33 34  1  0  0  0
 34 35  2  0  0  0
 34 36  1  0  0  0
 36 37  1  0  0  0
 16 19  1  0  0  0
 19 20  2  0  0  0
 20 21  1  0  0  0
 20 22  1  0  0  0
 18 13  1  0  0  0
 21 15  1  0  0  0
  9  1  1  0  0  0
  9  4  1  0  0  0
 10 11  1  0  0  0
 10 12  1  0  0  0
 36 38  1  0  0  0
 37 39  1  0  0  0
 22 23  1  0  0  0
 22 24  1  0  0  0
M  END
>  <minimizedAffinity>
-4.09507

>  <minimizedRMSD>
2.86037

$$$$
CHEMBL2235541 PubChem-25108333


 29 32  0  0  0  0  0  0  0  0999 V2000
   16.5606   -8.4911   14.4557 C   0  0  0  0  0  0  0  0  0  0  0  0
   15.3938   -8.8663   13.8987 N   0  0  0  0  0  0  0  0  0  0  0  0
   15.7071   -9.6616   12.8878 N   0  0  0  0  0  0  0  0  0  0  0  0
   17.0511   -9.7385   12.8740 C   0  0  0  0  0  0  0  0  0  0  0  0
   17.5848   -9.0190   13.8312 O   0  0  0  0  0  0  0  0  0  0  0  0
   16.6914   -7.4012   15.8675 S   0  0  0  0  0  0  0  0  0  0  0  0
   15.8495   -8.5715   16.9780 C   0  0  0  0  0  0  0  0  0  0  0  0
   15.6820   -8.1904   19.4672 N   0  0  0  0  0  0  0  0  0  0  0  0
   15.2656   -7.8486   18.1420 C   0  0  0  0  0  0  0  0  0  0  0  0
   14.3973   -6.9556   17.9484 O   0  0  0  0  0  0  0  0  0  0  0  0
   16.2080   -9.0144   19.5831 H   0  0  0  0  0  0  0  0  0  0  0  0
   17.7858   -6.5903   20.8033 C   0  0  0  0  0  0  0  0  0  0  0  0
   16.3726   -6.6238   21.2757 C   0  0  0  0  0  0  0  0  0  0  0  0
   16.0512   -5.8992   22.4268 C   0  0  0  0  0  0  0  0  0  0  0  0
   14.7648   -5.9581   22.9622 C   0  0  0  0  0  0  0  0  0  0  0  0
   13.7941   -6.7570   22.3568 C   0  0  0  0  0  0  0  0  0  0  0  0
   14.1012   -7.4932   21.2092 C   0  0  0  0  0  0  0  0  0  0  0  0
   13.0381   -8.3383   20.5942 C   0  0  0  0  0  0  0  0  0  0  0  0
   15.3868   -7.4163   20.6411 C   0  0  0  0  0  0  0  0  0  0  0  0
   17.8303  -10.5171   11.8714 C   0  0  0  0  0  0  0  0  0  0  0  0
   18.4494   -9.6124   10.9149 N   0  0  0  0  0  0  0  0  0  0  0  0
   19.5650   -8.9241   11.1343 N   0  0  0  0  0  0  0  0  0  0  0  0
   19.8516   -8.1393   10.0952 N   0  0  0  0  0  0  0  0  0  0  0  0
   18.8674   -8.3462    9.2000 C   0  0  0  0  0  0  0  0  0  0  0  0
   18.6848   -7.7577    7.9527 C   0  0  0  0  0  0  0  0  0  0  0  0
   17.5425   -8.1462    7.2239 C   0  0  0  0  0  0  0  0  0  0  0  0
   16.6323   -9.0921    7.7551 C   0  0  0  0  0  0  0  0  0  0  0  0
   16.8505   -9.6651    9.0233 C   0  0  0  0  0  0  0  0  0  0  0  0
   17.9931   -9.2567    9.7072 C   0  0  0  0  0  0  0  0  0  0  0  0
 12 13  1  0  0  0
 13 14  2  0  0  0
 14 15  1  0  0  0
 15 16  2  0  0  0
 16 17  1  0  0  0
 17 18  1  0  0  0
 17 19  2  0  0  0
 19  8  1  0  0  0
 19 13  1  0  0  0
  8  9  1  0  0  0
  9 10  2  0  0  0
  9  7  1  0  0  0
  7  6  1  0  0  0
  6  1  1  0  0  0
  1  2  2  0  0  0
  2  3  1  0  0  0
  3  4  2  0  0  0
  4 20  1  0  0  0
  4  5  1  0  0  0
 20 21  1  0  0  0
 21 22  1  0  0  0
 22 23  2  0  0  0
 23 24  1  0  0  0
 24 25  2  0  0  0
 25 26  1  0  0  0
 26 27  2  0  0  0
 27 28  1  0  0  0
 28 29  2  0  0  0
 29 21  1  0  0  0
 29 24  1  0  0  0
  5  1  1  0  0  0
  8 11  1  0  0  0
M  END
>  <minimizedAffinity>
-5.11389

>  <minimizedRMSD>
2.86122

$$$$
CHEMBL5092533 PubChem-73336287


 39 43  0  0  0  0  0  0  0  0999 V2000
   17.6427   -9.0894   14.4768 C   0  0  0  0  0  0  0  0  0  0  0  0
   17.9339   -9.7485   13.2002 N   0  0  0  0  0  0  0  0  0  0  0  0
   17.1946   -9.6335   12.1405 C   0  0  0  0  0  0  0  0  0  0  0  0
   16.0037   -8.8523   12.1879 N   0  0  0  0  0  0  0  0  0  0  0  0
   15.5825   -8.2108   13.3924 C   0  0  0  0  0  0  0  0  0  0  0  0
   16.3264   -8.3220   14.5155 C   0  0  0  0  0  0  0  0  0  0  0  0
   14.3374   -7.3889   13.3285 C   0  0  0  0  0  0  0  0  0  0  0  0
   15.4600   -8.7527   11.3733 H   0  0  0  0  0  0  0  0  0  0  0  0
   15.3217  -11.1979   15.0276 Cl  0  0  0  0  0  0  0  0  0  0  0  0
   16.8205  -11.0360   15.9308 C   0  0  0  0  0  0  0  0  0  0  0  0
   17.7968  -10.0652   15.6107 C   0  0  0  0  0  0  0  0  0  0  0  0
   18.9730  -10.0006   16.3672 C   0  0  0  0  0  0  0  0  0  0  0  0
   19.1811  -10.8787   17.4331 C   0  0  0  0  0  0  0  0  0  0  0  0
   18.2131  -11.8329   17.7503 C   0  0  0  0  0  0  0  0  0  0  0  0
   17.0377  -11.9107   17.0001 C   0  0  0  0  0  0  0  0  0  0  0  0
   15.9587   -7.6410   15.7837 C   0  0  0  0  0  0  0  0  0  0  0  0
   16.5700   -6.5895   16.1153 O   0  0  0  0  0  0  0  0  0  0  0  0
   14.9560   -8.1994   16.6466 N   0  0  0  0  0  0  0  0  0  0  0  0
   14.5229   -9.0281   16.3386 H   0  0  0  0  0  0  0  0  0  0  0  0
   14.5182   -7.6790   17.9088 C   0  0  0  0  0  0  0  0  0  0  0  0
   13.2885   -7.0145   17.9718 C   0  0  0  0  0  0  0  0  0  0  0  0
   12.8237   -6.4969   19.1854 C   0  0  0  0  0  0  0  0  0  0  0  0
   13.5968   -6.6307   20.3427 C   0  0  0  0  0  0  0  0  0  0  0  0
   14.8261   -7.2926   20.2887 C   0  0  0  0  0  0  0  0  0  0  0  0
   15.2848   -7.8158   19.0764 C   0  0  0  0  0  0  0  0  0  0  0  0
   11.5256   -5.7717   19.2369 C   0  0  0  0  0  0  0  0  0  0  0  0
   11.5542   -4.6912   18.3552 O   0  0  0  0  0  0  0  0  0  0  0  0
   12.2685   -4.0859   18.6087 H   0  0  0  0  0  0  0  0  0  0  0  0
   17.5444  -10.3023   10.9245 N   0  0  0  0  0  0  0  0  0  0  0  0
   17.5296  -11.2867   10.9256 H   0  0  0  0  0  0  0  0  0  0  0  0
   17.9140   -9.6471    9.7072 C   0  0  0  0  0  0  0  0  0  0  0  0
   18.6937   -8.5788    9.6530 O   0  0  0  0  0  0  0  0  0  0  0  0
   18.7962   -8.2875    8.3855 C   0  0  0  0  0  0  0  0  0  0  0  0
   18.0699   -9.1907    7.6681 C   0  0  0  0  0  0  0  0  0  0  0  0
   17.4896  -10.0800    8.4914 N   0  0  0  0  0  0  0  0  0  0  0  0
   17.9890   -9.1351    6.2791 C   0  0  0  0  0  0  0  0  0  0  0  0
   18.6920   -8.1007    5.6322 C   0  0  0  0  0  0  0  0  0  0  0  0
   19.4445   -7.1653    6.3792 C   0  0  0  0  0  0  0  0  0  0  0  0
   19.5041   -7.2517    7.7829 C   0  0  0  0  0  0  0  0  0  0  0  0
  9 10  1  0  0  0
 10 11  2  0  0  0
 11  1  1  0  0  0
  1  2  1  0  0  0
  2  3  2  0  0  0
  3  4  1  0  0  0
  4  5  1  0  0  0
  5  6  2  0  0  0
  6 16  1  0  0  0
 16 17  2  0  0  0
 16 18  1  0  0  0
 18 20  1  0  0  0
 20 21  2  0  0  0
 21 22  1  0  0  0
 22 23  2  0  0  0
 23 24  1  0  0  0
 24 25  2  0  0  0
 22 26  1  0  0  0
 26 27  1  0  0  0
  5  7  1  0  0  0
  3 29  1  0  0  0
 29 31  1  0  0  0
 31 32  1  0  0  0
 32 33  1  0  0  0
 33 34  2  0  0  0
 34 35  1  0  0  0
 34 36  1  0  0  0
 36 37  2  0  0  0
 37 38  1  0  0  0
 38 39  2  0  0  0
 11 12  1  0  0  0
 12 13  2  0  0  0
 13 14  1  0  0  0
 14 15  2  0  0  0
 15 10  1  0  0  0
  6  1  1  0  0  0
 25 20  1  0  0  0
 35 31  2  0  0  0
 39 33  1  0  0  0
  4  8  1  0  0  0
 18 19  1  0  0  0
 27 28  1  0  0  0
 29 30  1  0  0  0
M  END
>  <minimizedAffinity>
1.22769

>  <minimizedRMSD>
2.86157

$$$$
CHEMBL1389172 13085903 CSC046719377 MCULE-6625473357 MolPort-000-106-713 PubChem-3227251 ZINC000013085903


 30 33  0  0  0  0  0  0  0  0999 V2000
   16.9807  -10.1157   11.4883 N   0  0  0  0  0  0  0  0  0  0  0  0
   15.9872   -9.4044   12.2903 C   0  0  0  0  0  0  0  0  0  0  0  0
   16.5671   -9.1344   13.6761 C   0  0  0  0  0  0  0  0  0  0  0  0
   17.0253  -10.3865   14.2855 N   0  0  0  0  0  0  0  0  0  0  0  0
   18.1038  -10.9521   13.4711 C   0  0  0  0  0  0  0  0  0  0  0  0
   17.5752  -11.3065   12.0856 C   0  0  0  0  0  0  0  0  0  0  0  0
   18.4875   -8.9022    9.9645 N   0  0  0  0  0  0  0  0  0  0  0  0
   19.4077   -8.5189   10.8283 N   0  0  0  0  0  0  0  0  0  0  0  0
   20.3095   -7.8088   10.1062 C   0  0  0  0  0  0  0  0  0  0  0  0
   19.9743   -7.7344    8.7899 N   0  0  0  0  0  0  0  0  0  0  0  0
   18.8295   -8.4350    8.7636 C   0  0  0  0  0  0  0  0  0  0  0  0
   18.0683   -8.6644    7.6665 N   0  0  0  0  0  0  0  0  0  0  0  0
   16.9299   -9.4027    7.8020 C   0  0  0  0  0  0  0  0  0  0  0  0
   16.5453   -9.8978    9.0616 C   0  0  0  0  0  0  0  0  0  0  0  0
   17.3566   -9.6351   10.1808 C   0  0  0  0  0  0  0  0  0  0  0  0
   16.0765   -9.6698    6.6154 C   0  0  0  0  0  0  0  0  0  0  0  0
   17.6774  -10.0108   15.8519 S   0  0  0  0  0  0  0  0  0  0  0  0
   18.9745   -9.2664   15.7010 O   0  0  0  0  0  0  0  0  0  0  0  0
   17.9476  -11.3006   16.5766 O   0  0  0  0  0  0  0  0  0  0  0  0
   16.5619   -9.0394   16.8069 C   0  0  0  0  0  0  0  0  0  0  0  0
   15.5029   -8.3597   16.1865 C   0  0  0  0  0  0  0  0  0  0  0  0
   14.6203   -7.5910   16.9509 C   0  0  0  0  0  0  0  0  0  0  0  0
   14.7901   -7.4909   18.3419 C   0  0  0  0  0  0  0  0  0  0  0  0
   15.8576   -8.1598   18.9542 C   0  0  0  0  0  0  0  0  0  0  0  0
   16.7392   -8.9312   18.1911 C   0  0  0  0  0  0  0  0  0  0  0  0
   13.9029   -6.7147   19.1595 N   0  0  0  0  0  0  0  0  0  0  0  0
   12.5971   -6.2414   18.7999 C   0  0  0  0  0  0  0  0  0  0  0  0
   11.8477   -5.3851   19.7555 C   0  0  0  0  0  0  0  0  0  0  0  0
   12.0663   -6.5484   17.6972 O   0  0  0  0  0  0  0  0  0  0  0  0
   14.2234   -6.4826   20.0610 H   0  0  0  0  0  0  0  0  0  0  0  0
  7  8  1  0  0  0
  8  9  2  0  0  0
  9 10  1  0  0  0
 10 11  2  0  0  0
 11 12  1  0  0  0
 12 13  2  0  0  0
 13 14  1  0  0  0
 14 15  2  0  0  0
 15  1  1  0  0  0
  1  2  1  0  0  0
  2  3  1  0  0  0
  3  4  1  0  0  0
  4  5  1  0  0  0
  5  6  1  0  0  0
  4 17  1  0  0  0
 17 18  2  0  0  0
 17 19  2  0  0  0
 17 20  1  0  0  0
 20 21  2  0  0  0
 21 22  1  0  0  0
 22 23  2  0  0  0
 23 24  1  0  0  0
 24 25  2  0  0  0
 23 26  1  0  0  0
 26 27  1  0  0  0
 27 28  1  0  0  0
 27 29  2  0  0  0
 13 16  1  0  0  0
 11  7  1  0  0  0
  6  1  1  0  0  0
 25 20  1  0  0  0
 15  7  1  0  0  0
 26 30  1  0  0  0
M  END
>  <minimizedAffinity>
-1.06717

>  <minimizedRMSD>
2.86583

$$$$
CHEMBL5088169 PubChem-156898880


 39 43  0  0  0  0  0  0  0  0999 V2000
   17.6650   -9.0970   14.4860 C   0  0  0  0  0  0  0  0  0  0  0  0
   17.9673   -9.7540   13.2109 N   0  0  0  0  0  0  0  0  0  0  0  0
   17.2335   -9.6430   12.1471 C   0  0  0  0  0  0  0  0  0  0  0  0
   16.0383   -8.8682   12.1877 N   0  0  0  0  0  0  0  0  0  0  0  0
   15.6073   -8.2278   13.3893 C   0  0  0  0  0  0  0  0  0  0  0  0
   16.3455   -8.3348   14.5167 C   0  0  0  0  0  0  0  0  0  0  0  0
   14.3589   -7.4118   13.3177 C   0  0  0  0  0  0  0  0  0  0  0  0
   15.4982   -8.7723   11.3702 H   0  0  0  0  0  0  0  0  0  0  0  0
   15.3348  -11.1945   15.0404 Cl  0  0  0  0  0  0  0  0  0  0  0  0
   16.8354  -11.0391   15.9418 C   0  0  0  0  0  0  0  0  0  0  0  0
   17.8158  -10.0729   15.6203 C   0  0  0  0  0  0  0  0  0  0  0  0
   18.9931  -10.0136   16.3753 C   0  0  0  0  0  0  0  0  0  0  0  0
   19.1985  -10.8923   17.4413 C   0  0  0  0  0  0  0  0  0  0  0  0
   18.2264  -11.8419   17.7599 C   0  0  0  0  0  0  0  0  0  0  0  0
   17.0498  -11.9145   17.0113 C   0  0  0  0  0  0  0  0  0  0  0  0
   15.9682   -7.6540   15.7822 C   0  0  0  0  0  0  0  0  0  0  0  0
   16.5751   -6.6013   16.1187 O   0  0  0  0  0  0  0  0  0  0  0  0
   14.9617   -8.2116   16.6390 N   0  0  0  0  0  0  0  0  0  0  0  0
   14.5264   -9.0415   16.3371 H   0  0  0  0  0  0  0  0  0  0  0  0
   14.5328   -7.6704   17.8934 C   0  0  0  0  0  0  0  0  0  0  0  0
   15.2392   -7.8935   19.0376 N   0  0  0  0  0  0  0  0  0  0  0  0
   14.8438   -7.3827   20.2346 C   0  0  0  0  0  0  0  0  0  0  0  0
   13.6851   -6.6081   20.3163 C   0  0  0  0  0  0  0  0  0  0  0  0
   12.9407   -6.3722   19.1588 C   0  0  0  0  0  0  0  0  0  0  0  0
   13.3685   -6.8994   17.9384 C   0  0  0  0  0  0  0  0  0  0  0  0
   11.7157   -5.5299   19.2187 C   0  0  0  0  0  0  0  0  0  0  0  0
   11.9364   -4.3286   18.5452 O   0  0  0  0  0  0  0  0  0  0  0  0
   12.6714   -3.8536   18.9636 H   0  0  0  0  0  0  0  0  0  0  0  0
   17.5940  -10.3098   10.9331 N   0  0  0  0  0  0  0  0  0  0  0  0
   17.5988  -11.2943   10.9383 H   0  0  0  0  0  0  0  0  0  0  0  0
   17.9481   -9.6526    9.7123 C   0  0  0  0  0  0  0  0  0  0  0  0
   18.7239   -8.5819    9.6503 O   0  0  0  0  0  0  0  0  0  0  0  0
   18.8115   -8.2893    8.3820 C   0  0  0  0  0  0  0  0  0  0  0  0
   18.0801   -9.1942    7.6719 C   0  0  0  0  0  0  0  0  0  0  0  0
   17.5116  -10.0859    8.5010 N   0  0  0  0  0  0  0  0  0  0  0  0
   17.9837   -9.1379    6.2839 C   0  0  0  0  0  0  0  0  0  0  0  0
   18.6763   -8.1008    5.6301 C   0  0  0  0  0  0  0  0  0  0  0  0
   19.4341   -7.1637    6.3695 C   0  0  0  0  0  0  0  0  0  0  0  0
   19.5095   -7.2509    7.7725 C   0  0  0  0  0  0  0  0  0  0  0  0
  9 10  1  0  0  0
 10 11  2  0  0  0
 11  1  1  0  0  0
  1  2  1  0  0  0
  2  3  2  0  0  0
  3  4  1  0  0  0
  4  5  1  0  0  0
  5  6  2  0  0  0
  6 16  1  0  0  0
 16 17  2  0  0  0
 16 18  1  0  0  0
 18 20  1  0  0  0
 20 21  2  0  0  0
 21 22  1  0  0  0
 22 23  2  0  0  0
 23 24  1  0  0  0
 24 25  2  0  0  0
 24 26  1  0  0  0
 26 27  1  0  0  0
  5  7  1  0  0  0
  3 29  1  0  0  0
 29 31  1  0  0  0
 31 32  1  0  0  0
 32 33  1  0  0  0
 33 34  2  0  0  0
 34 35  1  0  0  0
 34 36  1  0  0  0
 36 37  2  0  0  0
 37 38  1  0  0  0
 38 39  2  0  0  0
 11 12  1  0  0  0
 12 13  2  0  0  0
 13 14  1  0  0  0
 14 15  2  0  0  0
 15 10  1  0  0  0
  6  1  1  0  0  0
 25 20  1  0  0  0
 35 31  2  0  0  0
 39 33  1  0  0  0
  4  8  1  0  0  0
 18 19  1  0  0  0
 27 28  1  0  0  0
 29 30  1  0  0  0
M  END
>  <minimizedAffinity>
1.35252

>  <minimizedRMSD>
2.86782

$$$$
CHEMBL4475237 PubChem-157291937 PubChem-58138789


 33 36  0  0  0  0  0  0  0  0999 V2000
   15.9372   -9.4351   10.5793 N   0  0  0  0  0  0  0  0  0  0  0  0
   17.3472   -9.6731   10.6396 C   0  0  0  0  0  0  0  0  0  0  0  0
   17.8104  -10.4740   11.4975 O   0  0  0  0  0  0  0  0  0  0  0  0
   15.5888   -8.8539    9.8650 H   0  0  0  0  0  0  0  0  0  0  0  0
   18.2670   -8.9936    9.7013 C   0  0  0  0  0  0  0  0  0  0  0  0
   18.0668   -8.9679    8.3118 C   0  0  0  0  0  0  0  0  0  0  0  0
   17.0740   -9.5026    7.5104 C   0  0  0  0  0  0  0  0  0  0  0  0
   17.3684   -9.1773    6.2275 N   0  0  0  0  0  0  0  0  0  0  0  0
   18.4923   -8.4684    6.1965 N   0  0  0  0  0  0  0  0  0  0  0  0
   18.9331   -8.3308    7.4632 C   0  0  0  0  0  0  0  0  0  0  0  0
   20.0679   -7.6675    7.9322 C   0  0  0  0  0  0  0  0  0  0  0  0
   20.3001   -7.6703    9.3171 C   0  0  0  0  0  0  0  0  0  0  0  0
   19.4092   -8.3261   10.1920 C   0  0  0  0  0  0  0  0  0  0  0  0
   19.0784   -7.9692    4.9782 C   0  0  0  0  0  0  0  0  0  0  0  0
   18.5369   -8.3450    3.7386 C   0  0  0  0  0  0  0  0  0  0  0  0
   19.0924   -7.8718    2.5460 C   0  0  0  0  0  0  0  0  0  0  0  0
   20.1966   -7.0168    2.5813 C   0  0  0  0  0  0  0  0  0  0  0  0
   20.7440   -6.6340    3.8082 C   0  0  0  0  0  0  0  0  0  0  0  0
   20.1877   -7.1080    4.9997 C   0  0  0  0  0  0  0  0  0  0  0  0
   20.7325   -6.5546    1.4268 F   0  0  0  0  0  0  0  0  0  0  0  0
   14.9941  -10.0136   11.5266 C   0  0  0  0  0  0  0  0  0  0  0  0
   16.1742   -9.0677   15.5421 C   0  0  0  0  0  0  0  0  0  0  0  0
   16.1726   -8.0719   14.5587 C   0  0  0  0  0  0  0  0  0  0  0  0
   15.7846   -8.3784   13.2513 C   0  0  0  0  0  0  0  0  0  0  0  0
   15.3936   -9.6812   12.9241 C   0  0  0  0  0  0  0  0  0  0  0  0
   15.3945  -10.6769   13.9065 C   0  0  0  0  0  0  0  0  0  0  0  0
   15.7824  -10.3701   15.2138 C   0  0  0  0  0  0  0  0  0  0  0  0
   16.6480   -8.6851   17.1896 S   0  0  0  0  0  0  0  0  0  0  0  0
   18.0446   -8.1256   17.2024 O   0  0  0  0  0  0  0  0  0  0  0  0
   16.6264   -9.9430   18.0127 O   0  0  0  0  0  0  0  0  0  0  0  0
   15.3287   -7.9014   19.2643 C   0  0  0  0  0  0  0  0  0  0  0  0
   15.5486   -7.5345   17.8751 N   0  0  0  0  0  0  0  0  0  0  0  0
   15.9496   -6.5981   17.8231 H   0  0  0  0  0  0  0  0  0  0  0  0
 31 32  1  0  0  0
 32 28  1  0  0  0
 28 29  2  0  0  0
 28 30  2  0  0  0
 28 22  1  0  0  0
 22 23  2  0  0  0
 23 24  1  0  0  0
 24 25  2  0  0  0
 25 26  1  0  0  0
 25 21  1  0  0  0
 26 27  2  0  0  0
 27 22  1  0  0  0
 21  1  1  0  0  0
  1  2  1  0  0  0
  2  3  2  0  0  0
  2  5  1  0  0  0
  5  6  2  0  0  0
  6  7  1  0  0  0
  7  8  2  0  0  0
  8  9  1  0  0  0
  9 10  1  0  0  0
  9 14  1  0  0  0
 10 11  2  0  0  0
 10  6  1  0  0  0
 11 12  1  0  0  0
 12 13  2  0  0  0
 13  5  1  0  0  0
 14 15  2  0  0  0
 15 16  1  0  0  0
 16 17  2  0  0  0
 17 18  1  0  0  0
 17 20  1  0  0  0
 18 19  2  0  0  0
 19 14  1  0  0  0
 32 33  1  0  0  0
  1  4  1  0  0  0
M  END
>  <minimizedAffinity>
-2.49505

>  <minimizedRMSD>
2.88234

$$$$
CHEMBL1405432


 31 34  0  0  0  0  0  0  0  0999 V2000
   16.6980  -10.6580   15.7953 S   0  0  0  0  0  0  0  0  0  0  0  0
   17.3522  -10.4045   14.1501 C   0  0  0  0  0  0  0  0  0  0  0  0
   16.6171  -10.1984   13.0853 O   0  0  0  0  0  0  0  0  0  0  0  0
   17.4795  -10.0624   12.1073 C   0  0  0  0  0  0  0  0  0  0  0  0
   18.7462  -10.1830   12.5500 N   0  0  0  0  0  0  0  0  0  0  0  0
   18.6646  -10.4020   13.8531 N   0  0  0  0  0  0  0  0  0  0  0  0
   17.1074   -9.8103   10.7104 C   0  0  0  0  0  0  0  0  0  0  0  0
   15.9988  -10.3144   10.1191 N   0  0  0  0  0  0  0  0  0  0  0  0
   15.9532   -9.8987    8.8557 N   0  0  0  0  0  0  0  0  0  0  0  0
   17.0361   -9.1296    8.6490 C   0  0  0  0  0  0  0  0  0  0  0  0
   17.7865   -9.0484    9.7873 C   0  0  0  0  0  0  0  0  0  0  0  0
   18.9671   -8.3112    9.8501 C   0  0  0  0  0  0  0  0  0  0  0  0
   19.3688   -7.6403    8.6800 C   0  0  0  0  0  0  0  0  0  0  0  0
   18.5936   -7.7233    7.5007 C   0  0  0  0  0  0  0  0  0  0  0  0
   17.4055   -8.4783    7.4751 C   0  0  0  0  0  0  0  0  0  0  0  0
   15.3333  -10.8953   10.5538 H   0  0  0  0  0  0  0  0  0  0  0  0
   15.6865   -9.1457   15.7359 C   0  0  0  0  0  0  0  0  0  0  0  0
   15.7701   -8.4063   17.0267 C   0  0  0  0  0  0  0  0  0  0  0  0
   16.9024   -8.1274   17.5022 O   0  0  0  0  0  0  0  0  0  0  0  0
   14.5648   -8.0145   17.6973 N   0  0  0  0  0  0  0  0  0  0  0  0
   13.7176   -8.2278   17.2434 H   0  0  0  0  0  0  0  0  0  0  0  0
   14.4663   -7.3439   18.9610 C   0  0  0  0  0  0  0  0  0  0  0  0
   13.4189   -6.4416   19.1638 C   0  0  0  0  0  0  0  0  0  0  0  0
   13.2883   -5.7712   20.3828 C   0  0  0  0  0  0  0  0  0  0  0  0
   14.2144   -5.9793   21.4202 C   0  0  0  0  0  0  0  0  0  0  0  0
   15.2478   -6.9113   21.2191 C   0  0  0  0  0  0  0  0  0  0  0  0
   15.3770   -7.5808   19.9998 C   0  0  0  0  0  0  0  0  0  0  0  0
   14.0320   -5.3052   22.7672 C   0  0  0  0  0  0  0  0  0  0  0  0
   13.3930   -3.9321   22.6228 C   0  0  0  0  0  0  0  0  0  0  0  0
   15.3620   -5.1143   23.4809 C   0  0  0  0  0  0  0  0  0  0  0  0
   13.1361   -6.1645   23.6388 C   0  0  0  0  0  0  0  0  0  0  0  0
  1  2  1  0  0  0
  2  3  1  0  0  0
  3  4  1  0  0  0
  4  5  2  0  0  0
  5  6  1  0  0  0
  4  7  1  0  0  0
  7  8  1  0  0  0
  8  9  1  0  0  0
  9 10  2  0  0  0
 10 11  1  0  0  0
 11 12  1  0  0  0
 12 13  2  0  0  0
 13 14  1  0  0  0
 14 15  2  0  0  0
  1 17  1  0  0  0
 17 18  1  0  0  0
 18 19  2  0  0  0
 18 20  1  0  0  0
 20 22  1  0  0  0
 22 23  2  0  0  0
 23 24  1  0  0  0
 24 25  2  0  0  0
 25 28  1  0  0  0
 28 29  1  0  0  0
 28 30  1  0  0  0
 28 31  1  0  0  0
 25 26  1  0  0  0
 26 27  2  0  0  0
  6  2  2  0  0  0
 11  7  2  0  0  0
 27 22  1  0  0  0
 15 10  1  0  0  0
  8 16  1  0  0  0
 20 21  1  0  0  0
M  END
>  <minimizedAffinity>
-8.87626

>  <minimizedRMSD>
2.88411

$$$$
CHEMBL445603 PubChem-10429689


 32 35  0  0  0  0  0  0  0  0999 V2000
   15.6844  -10.4379   11.0896 C   0  0  0  0  0  0  0  0  0  0  0  0
   16.3978   -9.3007   11.6500 N   0  0  0  0  0  0  0  0  0  0  0  0
   15.7669   -8.9070   12.9154 C   0  0  0  0  0  0  0  0  0  0  0  0
   14.7562   -9.9339   13.4367 C   0  0  0  0  0  0  0  0  0  0  0  0
   14.9844  -10.1944   14.9191 C   0  0  0  0  0  0  0  0  0  0  0  0
   16.2898   -9.6879   15.3333 N   0  0  0  0  0  0  0  0  0  0  0  0
   16.5440   -8.5927   16.0889 C   0  0  0  0  0  0  0  0  0  0  0  0
   15.5218   -7.7619   16.6323 N   0  0  0  0  0  0  0  0  0  0  0  0
   17.8664   -8.3509   16.2814 N   0  0  0  0  0  0  0  0  0  0  0  0
   18.4492   -9.3603   15.6035 C   0  0  0  0  0  0  0  0  0  0  0  0
   19.8123   -9.6068   15.4563 C   0  0  0  0  0  0  0  0  0  0  0  0
   20.1896  -10.7310   14.6978 C   0  0  0  0  0  0  0  0  0  0  0  0
   19.2122  -11.5656   14.1101 C   0  0  0  0  0  0  0  0  0  0  0  0
   17.8431  -11.2904   14.2769 C   0  0  0  0  0  0  0  0  0  0  0  0
   17.5055  -10.1697   15.0363 C   0  0  0  0  0  0  0  0  0  0  0  0
   14.5749   -7.9749   16.4673 H   0  0  0  0  0  0  0  0  0  0  0  0
   15.7625   -6.9749   17.1726 H   0  0  0  0  0  0  0  0  0  0  0  0
   17.7841   -9.7022   11.8752 C   0  0  0  0  0  0  0  0  0  0  0  0
   18.6288   -9.4550   10.6311 C   0  0  0  0  0  0  0  0  0  0  0  0
   18.1217   -8.2467    9.8546 C   0  0  0  0  0  0  0  0  0  0  0  0
   17.9725   -8.5648    8.4391 N   0  0  0  0  0  0  0  0  0  0  0  0
   16.9945   -9.3002    7.8589 C   0  0  0  0  0  0  0  0  0  0  0  0
   15.9369   -9.9118    8.5923 N   0  0  0  0  0  0  0  0  0  0  0  0
   17.1168   -9.4156    6.5106 N   0  0  0  0  0  0  0  0  0  0  0  0
   18.2336   -8.7064    6.2586 C   0  0  0  0  0  0  0  0  0  0  0  0
   18.8257   -8.4729    5.0193 C   0  0  0  0  0  0  0  0  0  0  0  0
   19.9915   -7.6836    4.9959 C   0  0  0  0  0  0  0  0  0  0  0  0
   20.5256   -7.1518    6.1924 C   0  0  0  0  0  0  0  0  0  0  0  0
   19.9012   -7.4011    7.4280 C   0  0  0  0  0  0  0  0  0  0  0  0
   18.7505   -8.1897    7.4135 C   0  0  0  0  0  0  0  0  0  0  0  0
   15.8874   -9.8014    9.5694 H   0  0  0  0  0  0  0  0  0  0  0  0
   15.2556  -10.4446    8.1220 H   0  0  0  0  0  0  0  0  0  0  0  0
  1  2  1  0  0  0
  2  3  1  0  0  0
  2 18  1  0  0  0
  3  4  1  0  0  0
  4  5  1  0  0  0
  5  6  1  0  0  0
  6  7  1  0  0  0
  7  8  1  0  0  0
  7  9  2  0  0  0
  9 10  1  0  0  0
 10 11  2  0  0  0
 11 12  1  0  0  0
 12 13  2  0  0  0
 13 14  1  0  0  0
 14 15  2  0  0  0
 15  6  1  0  0  0
 15 10  1  0  0  0
 18 19  1  0  0  0
 19 20  1  0  0  0
 20 21  1  0  0  0
 21 22  1  0  0  0
 22 23  1  0  0  0
 22 24  2  0  0  0
 24 25  1  0  0  0
 25 26  2  0  0  0
 26 27  1  0  0  0
 27 28  2  0  0  0
 28 29  1  0  0  0
 29 30  2  0  0  0
 30 21  1  0  0  0
 30 25  1  0  0  0
  8 16  1  0  0  0
  8 17  1  0  0  0
 23 31  1  0  0  0
 23 32  1  0  0  0
M  END
>  <minimizedAffinity>
-2.88996

>  <minimizedRMSD>
2.88734

$$$$
CHEMBL2037392 873756 MCULE-4284067591 MolPort-000-007-303 PubChem-1132913 ZINC000000873756 ZINC00873756


 28 31  0  0  0  0  0  0  0  0999 V2000
   16.7143   -8.7697   14.2737 C   0  0  0  0  0  0  0  0  0  0  0  0
   15.4658   -8.9818   13.8184 N   0  0  0  0  0  0  0  0  0  0  0  0
   15.5969   -9.6409   12.6777 N   0  0  0  0  0  0  0  0  0  0  0  0
   16.9195   -9.8043   12.4890 C   0  0  0  0  0  0  0  0  0  0  0  0
   17.6142   -9.2681   13.4621 O   0  0  0  0  0  0  0  0  0  0  0  0
   17.0934   -7.9094   15.7951 S   0  0  0  0  0  0  0  0  0  0  0  0
   15.9673   -8.9446   16.7800 C   0  0  0  0  0  0  0  0  0  0  0  0
   15.5146   -8.3323   19.1856 N   0  0  0  0  0  0  0  0  0  0  0  0
   15.2549   -8.1171   17.7922 C   0  0  0  0  0  0  0  0  0  0  0  0
   14.4485   -7.2300   17.4064 O   0  0  0  0  0  0  0  0  0  0  0  0
   16.1481   -9.0515   19.4107 H   0  0  0  0  0  0  0  0  0  0  0  0
   13.2029   -5.1832   23.9277 Br  0  0  0  0  0  0  0  0  0  0  0  0
   13.9072   -6.1642   22.4541 C   0  0  0  0  0  0  0  0  0  0  0  0
   15.2848   -6.1814   22.2202 C   0  0  0  0  0  0  0  0  0  0  0  0
   15.8013   -6.9013   21.1388 C   0  0  0  0  0  0  0  0  0  0  0  0
   14.9467   -7.6081   20.2852 C   0  0  0  0  0  0  0  0  0  0  0  0
   13.5641   -7.5857   20.5258 C   0  0  0  0  0  0  0  0  0  0  0  0
   13.0462   -6.8663   21.6067 C   0  0  0  0  0  0  0  0  0  0  0  0
   17.5160  -10.4772   11.3011 C   0  0  0  0  0  0  0  0  0  0  0  0
   18.3079   -9.5259   10.5362 N   0  0  0  0  0  0  0  0  0  0  0  0
   19.4441   -8.9083   10.9401 C   0  0  0  0  0  0  0  0  0  0  0  0
   19.9134   -8.0314   10.0110 N   0  0  0  0  0  0  0  0  0  0  0  0
   19.0163   -8.1203    9.0113 C   0  0  0  0  0  0  0  0  0  0  0  0
   19.0109   -7.4200    7.8077 C   0  0  0  0  0  0  0  0  0  0  0  0
   17.9516   -7.6746    6.9157 C   0  0  0  0  0  0  0  0  0  0  0  0
   16.9408   -8.6061    7.2459 C   0  0  0  0  0  0  0  0  0  0  0  0
   16.9764   -9.2961    8.4720 C   0  0  0  0  0  0  0  0  0  0  0  0
   18.0425   -9.0186    9.3263 C   0  0  0  0  0  0  0  0  0  0  0  0
 12 13  1  0  0  0
 13 14  2  0  0  0
 14 15  1  0  0  0
 15 16  2  0  0  0
 16  8  1  0  0  0
 16 17  1  0  0  0
  8  9  1  0  0  0
  9 10  2  0  0  0
  9  7  1  0  0  0
  7  6  1  0  0  0
  6  1  1  0  0  0
  1  2  2  0  0  0
  2  3  1  0  0  0
  3  4  2  0  0  0
  4 19  1  0  0  0
  4  5  1  0  0  0
 19 20  1  0  0  0
 20 21  1  0  0  0
 21 22  2  0  0  0
 22 23  1  0  0  0
 23 24  2  0  0  0
 24 25  1  0  0  0
 25 26  2  0  0  0
 26 27  1  0  0  0
 27 28  2  0  0  0
 28 20  1  0  0  0
 28 23  1  0  0  0
  5  1  1  0  0  0
 17 18  2  0  0  0
 18 13  1  0  0  0
  8 11  1  0  0  0
M  END
>  <minimizedAffinity>
-6.76115

>  <minimizedRMSD>
2.88748

$$$$
CHEMBL5291096


 34 39  0  0  0  0  0  0  0  0999 V2000
   16.3633   -9.5476   15.7472 C   0  0  0  0  0  0  0  0  0  0  0  0
   16.5700   -8.8477   14.3959 C   0  0  0  0  0  0  0  0  0  0  0  0
   16.9633   -9.8010   13.3527 N   0  0  0  0  0  0  0  0  0  0  0  0
   18.0736  -10.7313   13.6042 C   0  0  0  0  0  0  0  0  0  0  0  0
   18.5164  -10.7250   15.0663 C   0  0  0  0  0  0  0  0  0  0  0  0
   17.2846  -10.7749   15.9578 C   0  0  0  0  0  0  0  0  0  0  0  0
   17.6633  -11.0383   17.4070 C   0  0  0  0  0  0  0  0  0  0  0  0
   16.2843   -9.7705   12.0766 C   0  0  0  0  0  0  0  0  0  0  0  0
   16.8983   -9.3740   10.9232 N   0  0  0  0  0  0  0  0  0  0  0  0
   16.2750   -9.3504    9.7408 C   0  0  0  0  0  0  0  0  0  0  0  0
   14.9796   -9.7239    9.6105 N   0  0  0  0  0  0  0  0  0  0  0  0
   14.3003  -10.1327   10.7199 C   0  0  0  0  0  0  0  0  0  0  0  0
   14.9361  -10.1648   11.9744 C   0  0  0  0  0  0  0  0  0  0  0  0
   12.8782  -10.5479   10.6041 C   0  0  0  0  0  0  0  0  0  0  0  0
   17.0663   -8.9252    8.7413 N   0  0  0  0  0  0  0  0  0  0  0  0
   18.2207   -8.6932    9.4174 C   0  0  0  0  0  0  0  0  0  0  0  0
   18.1366   -8.9570   10.7424 N   0  0  0  0  0  0  0  0  0  0  0  0
   19.7155   -8.1078    8.6299 S   0  0  0  0  0  0  0  0  0  0  0  0
   19.0286   -8.3087    6.9592 C   0  0  0  0  0  0  0  0  0  0  0  0
   19.4391   -7.1407    6.0842 C   0  0  0  0  0  0  0  0  0  0  0  0
   20.8274   -7.3992    5.5368 C   0  0  0  0  0  0  0  0  0  0  0  0
   19.6161   -7.6271    4.6599 C   0  0  0  0  0  0  0  0  0  0  0  0
   16.4024   -8.5791   16.8475 N   0  0  0  0  0  0  0  0  0  0  0  0
   17.7255   -8.2460   17.3540 C   0  0  0  0  0  0  0  0  0  0  0  0
   15.2004   -8.0246   17.4350 C   0  0  0  0  0  0  0  0  0  0  0  0
   15.0946   -7.6978   18.7952 C   0  0  0  0  0  0  0  0  0  0  0  0
   13.9381   -7.1706   19.2806 C   0  0  0  0  0  0  0  0  0  0  0  0
   14.0110   -6.9077   20.5918 N   0  0  0  0  0  0  0  0  0  0  0  0
   15.2660   -7.2840   20.9402 C   0  0  0  0  0  0  0  0  0  0  0  0
   15.9799   -7.7821   19.8479 C   0  0  0  0  0  0  0  0  0  0  0  0
   12.8615   -6.9424   18.4918 N   0  0  0  0  0  0  0  0  0  0  0  0
   12.9495   -7.2543   17.1669 C   0  0  0  0  0  0  0  0  0  0  0  0
   14.1024   -7.7844   16.6547 N   0  0  0  0  0  0  0  0  0  0  0  0
   13.3119   -6.5274   21.1713 H   0  0  0  0  0  0  0  0  0  0  0  0
 25 26  1  0  0  0
 26 27  2  0  0  0
 27 28  1  0  0  0
 28 29  1  0  0  0
 29 30  2  0  0  0
 27 31  1  0  0  0
 31 32  2  0  0  0
 32 33  1  0  0  0
 25 23  1  0  0  0
  1 23  1  0  0  0
  1  2  1  0  0  0
  2  3  1  0  0  0
  3  8  1  0  0  0
  8  9  1  0  0  0
  9 10  1  0  0  0
 10 11  1  0  0  0
 11 12  2  0  0  0
 12 13  1  0  0  0
 12 14  1  0  0  0
 10 15  2  0  0  0
 15 16  1  0  0  0
 16 17  2  0  0  0
 16 18  1  0  0  0
 18 19  1  0  0  0
 19 20  1  0  0  0
 20 21  1  0  0  0
 21 22  1  0  0  0
  3  4  1  0  0  0
  4  5  1  0  0  0
  5  6  1  0  0  0
  6  7  1  0  0  0
 23 24  1  0  0  0
 33 25  2  0  0  0
  6  1  1  0  0  0
 30 26  1  0  0  0
 13  8  2  0  0  0
 22 20  1  0  0  0
 17  9  1  0  0  0
 28 34  1  0  0  0
M  END
>  <minimizedAffinity>
-4.04674

>  <minimizedRMSD>
2.88898

$$$$
CHEMBL1375904 3443799 CSC025843067 MCULE-2049607520 MolPort-004-063-497 PubChem-2563882 Z15437074 ZINC000003443799


 27 30  0  0  0  0  0  0  0  0999 V2000
   17.6580   -9.6548   11.6900 C   0  0  0  0  0  0  0  0  0  0  0  0
   18.3610   -9.0574   10.6187 C   0  0  0  0  0  0  0  0  0  0  0  0
   17.6898   -8.8557    9.3878 C   0  0  0  0  0  0  0  0  0  0  0  0
   18.3584   -8.2672    8.3104 C   0  0  0  0  0  0  0  0  0  0  0  0
   19.6922   -7.8745    8.4418 C   0  0  0  0  0  0  0  0  0  0  0  0
   20.3630   -8.0686    9.6511 C   0  0  0  0  0  0  0  0  0  0  0  0
   19.7017   -8.6562   10.7326 C   0  0  0  0  0  0  0  0  0  0  0  0
   16.3930   -9.2327    9.2467 N   0  0  0  0  0  0  0  0  0  0  0  0
   15.6966   -9.8087   10.2624 C   0  0  0  0  0  0  0  0  0  0  0  0
   16.3224  -10.0254   11.4941 C   0  0  0  0  0  0  0  0  0  0  0  0
   18.6884   -9.8443   15.0521 C   0  0  0  0  0  0  0  0  0  0  0  0
   17.9006   -9.3345   14.1385 O   0  0  0  0  0  0  0  0  0  0  0  0
   18.2657   -9.9097   13.0165 C   0  0  0  0  0  0  0  0  0  0  0  0
   19.2789  -10.7752   13.2272 N   0  0  0  0  0  0  0  0  0  0  0  0
   19.5476  -10.7329   14.5229 N   0  0  0  0  0  0  0  0  0  0  0  0
   18.6330   -9.4139   16.7848 S   0  0  0  0  0  0  0  0  0  0  0  0
   16.8557   -9.7717   16.8898 C   0  0  0  0  0  0  0  0  0  0  0  0
   15.8056   -8.0254   18.3726 N   0  0  0  0  0  0  0  0  0  0  0  0
   16.0966   -8.5052   17.0654 C   0  0  0  0  0  0  0  0  0  0  0  0
   15.7397   -7.8406   16.0584 O   0  0  0  0  0  0  0  0  0  0  0  0
   16.0845   -8.5448   19.1611 H   0  0  0  0  0  0  0  0  0  0  0  0
   15.3252   -7.1739   18.4889 H   0  0  0  0  0  0  0  0  0  0  0  0
   14.2933  -10.1992   10.0597 C   0  0  0  0  0  0  0  0  0  0  0  0
   13.6218  -10.7003    8.6063 S   0  0  0  0  0  0  0  0  0  0  0  0
   12.0586  -10.9514    9.1738 C   0  0  0  0  0  0  0  0  0  0  0  0
   12.0586  -10.6371   10.5309 C   0  0  0  0  0  0  0  0  0  0  0  0
   13.3005  -10.2176   11.0296 C   0  0  0  0  0  0  0  0  0  0  0  0
 18 19  1  0  0  0
 19 17  1  0  0  0
 17 16  1  0  0  0
 16 11  1  0  0  0
 11 12  1  0  0  0
 12 13  1  0  0  0
 13  1  1  0  0  0
  1  2  1  0  0  0
  2  3  1  0  0  0
  3  4  2  0  0  0
  4  5  1  0  0  0
  5  6  2  0  0  0
  6  7  1  0  0  0
  3  8  1  0  0  0
  8  9  2  0  0  0
  9 23  1  0  0  0
 23 24  1  0  0  0
 24 25  1  0  0  0
 25 26  2  0  0  0
 26 27  1  0  0  0
  9 10  1  0  0  0
 13 14  2  0  0  0
 14 15  1  0  0  0
 19 20  2  0  0  0
 15 11  2  0  0  0
 10  1  2  0  0  0
  7  2  2  0  0  0
 27 23  2  0  0  0
 18 21  1  0  0  0
 18 22  1  0  0  0
M  END
>  <minimizedAffinity>
4.01028

>  <minimizedRMSD>
2.89085

$$$$
CHEMBL1383140 PubChem-9550403


 36 40  0  0  0  0  0  0  0  0999 V2000
   16.1491   -9.4871   13.0077 C   0  0  0  0  0  0  0  0  0  0  0  0
   17.1644   -9.0918   12.1911 N   0  0  0  0  0  0  0  0  0  0  0  0
   16.6279   -9.3179   10.9775 C   0  0  0  0  0  0  0  0  0  0  0  0
   17.2193   -9.0939    9.7372 C   0  0  0  0  0  0  0  0  0  0  0  0
   18.5124   -8.5809    9.5945 C   0  0  0  0  0  0  0  0  0  0  0  0
   19.0387   -8.3834    8.3138 C   0  0  0  0  0  0  0  0  0  0  0  0
   18.2769   -8.6970    7.1817 C   0  0  0  0  0  0  0  0  0  0  0  0
   16.9825   -9.2105    7.3205 C   0  0  0  0  0  0  0  0  0  0  0  0
   16.4444   -9.4126    8.5942 C   0  0  0  0  0  0  0  0  0  0  0  0
   15.1799   -9.9133    8.7364 N   0  0  0  0  0  0  0  0  0  0  0  0
   14.6408  -10.1149    9.9729 C   0  0  0  0  0  0  0  0  0  0  0  0
   15.3899   -9.8095   11.0628 N   0  0  0  0  0  0  0  0  0  0  0  0
   15.0603   -9.9269   12.3335 N   0  0  0  0  0  0  0  0  0  0  0  0
   16.2045   -9.4484   14.5021 C   0  0  0  0  0  0  0  0  0  0  0  0
   17.6229   -9.6078   15.0269 C   0  0  0  0  0  0  0  0  0  0  0  0
   17.3927  -11.5011   17.5689 C   0  0  0  0  0  0  0  0  0  0  0  0
   17.8559  -11.8876   16.2080 C   0  0  0  0  0  0  0  0  0  0  0  0
   18.2188  -13.1381   15.8639 N   0  0  0  0  0  0  0  0  0  0  0  0
   18.5577  -13.1357   14.5814 N   0  0  0  0  0  0  0  0  0  0  0  0
   18.4112  -11.8836   14.1073 C   0  0  0  0  0  0  0  0  0  0  0  0
   18.6806  -11.4921   12.6965 C   0  0  0  0  0  0  0  0  0  0  0  0
   17.9726  -11.0557   15.1166 C   0  0  0  0  0  0  0  0  0  0  0  0
   18.8639  -13.9156   14.0646 H   0  0  0  0  0  0  0  0  0  0  0  0
   12.9834  -10.7708   10.1373 S   0  0  0  0  0  0  0  0  0  0  0  0
   12.7158  -10.7416    8.3404 C   0  0  0  0  0  0  0  0  0  0  0  0
   11.3376  -11.2019    8.0213 C   0  0  0  0  0  0  0  0  0  0  0  0
   10.3948  -10.9047    8.8013 O   0  0  0  0  0  0  0  0  0  0  0  0
   11.1042  -11.9597    6.8264 N   0  0  0  0  0  0  0  0  0  0  0  0
   11.8871  -12.1348    6.2558 H   0  0  0  0  0  0  0  0  0  0  0  0
    9.8489  -12.4898    6.3749 C   0  0  0  0  0  0  0  0  0  0  0  0
    9.5022  -13.8354    6.5740 C   0  0  0  0  0  0  0  0  0  0  0  0
    8.2738  -14.3253    6.1224 C   0  0  0  0  0  0  0  0  0  0  0  0
    7.3814  -13.4736    5.4674 C   0  0  0  0  0  0  0  0  0  0  0  0
    7.7180  -12.1330    5.2642 C   0  0  0  0  0  0  0  0  0  0  0  0
    8.9469  -11.6411    5.7154 C   0  0  0  0  0  0  0  0  0  0  0  0
    9.2582  -10.3375    5.5097 F   0  0  0  0  0  0  0  0  0  0  0  0
 16 17  1  0  0  0
 17 18  2  0  0  0
 18 19  1  0  0  0
 19 20  1  0  0  0
 20 21  1  0  0  0
 20 22  2  0  0  0
 22 15  1  0  0  0
 22 17  1  0  0  0
 15 14  1  0  0  0
 14  1  1  0  0  0
  1  2  1  0  0  0
  2  3  2  0  0  0
  3  4  1  0  0  0
  4  5  2  0  0  0
  5  6  1  0  0  0
  6  7  2  0  0  0
  7  8  1  0  0  0
  8  9  2  0  0  0
  9 10  1  0  0  0
  9  4  1  0  0  0
 10 11  2  0  0  0
 11 24  1  0  0  0
 11 12  1  0  0  0
 24 25  1  0  0  0
 25 26  1  0  0  0
 26 27  2  0  0  0
 26 28  1  0  0  0
 28 30  1  0  0  0
 30 31  2  0  0  0
 31 32  1  0  0  0
 32 33  2  0  0  0
 33 34  1  0  0  0
 34 35  2  0  0  0
 35 36  1  0  0  0
 35 30  1  0  0  0
 12 13  1  0  0  0
 12  3  1  0  0  0
 13  1  2  0  0  0
 19 23  1  0  0  0
 28 29  1  0  0  0
M  END
>  <minimizedAffinity>
8.41208

>  <minimizedRMSD>
2.89337

$$$$
CHEMBL3653592


 32 37  0  0  0  0  0  0  0  0999 V2000
   17.2462   -9.1988   10.3397 C   0  0  0  0  0  0  0  0  0  0  0  0
   16.5438   -9.7001    9.2189 C   0  0  0  0  0  0  0  0  0  0  0  0
   15.2807  -10.2801    9.3990 C   0  0  0  0  0  0  0  0  0  0  0  0
   14.7822  -10.3161   10.6580 N   0  0  0  0  0  0  0  0  0  0  0  0
   13.5976  -10.7666   11.0375 N   0  0  0  0  0  0  0  0  0  0  0  0
   13.5002  -10.5662   12.3778 C   0  0  0  0  0  0  0  0  0  0  0  0
   14.6707   -9.9530   12.8264 C   0  0  0  0  0  0  0  0  0  0  0  0
   15.4375   -9.8139   11.7019 C   0  0  0  0  0  0  0  0  0  0  0  0
   16.6660   -9.2555   11.5759 N   0  0  0  0  0  0  0  0  0  0  0  0
   14.9810   -9.4987   14.1814 C   0  0  0  0  0  0  0  0  0  0  0  0
   14.4348   -8.3027   14.6579 C   0  0  0  0  0  0  0  0  0  0  0  0
   14.7580   -7.8482   15.9375 C   0  0  0  0  0  0  0  0  0  0  0  0
   15.6281   -8.5837   16.7576 C   0  0  0  0  0  0  0  0  0  0  0  0
   16.1728   -9.7916   16.2746 C   0  0  0  0  0  0  0  0  0  0  0  0
   17.0047  -10.5426   17.0405 F   0  0  0  0  0  0  0  0  0  0  0  0
   15.8501  -10.2367   14.9888 C   0  0  0  0  0  0  0  0  0  0  0  0
   15.9581   -8.0625   18.0960 C   0  0  0  0  0  0  0  0  0  0  0  0
   15.0341   -7.8398   19.0513 N   0  0  0  0  0  0  0  0  0  0  0  0
   15.7642   -7.3107   20.0527 C   0  0  0  0  0  0  0  0  0  0  0  0
   17.0620   -7.2102   19.7103 N   0  0  0  0  0  0  0  0  0  0  0  0
   17.1900   -7.6850   18.4827 N   0  0  0  0  0  0  0  0  0  0  0  0
   17.7851   -6.8486   20.2721 H   0  0  0  0  0  0  0  0  0  0  0  0
   18.6302   -8.0820    7.9167 O   0  0  0  0  0  0  0  0  0  0  0  0
   19.2173   -8.2321    9.0230 C   0  0  0  0  0  0  0  0  0  0  0  0
   20.5512   -7.9551    9.2099 O   0  0  0  0  0  0  0  0  0  0  0  0
   20.9016   -8.2012   10.5647 C   0  0  0  0  0  0  0  0  0  0  0  0
   19.5980   -8.6479   11.2637 C   0  0  0  0  0  0  0  0  0  0  0  0
   18.5903   -8.6989   10.2036 N   0  0  0  0  0  0  0  0  0  0  0  0
   19.8168  -10.0314   11.8545 C   0  0  0  0  0  0  0  0  0  0  0  0
   18.7423  -10.3169   12.8847 C   0  0  0  0  0  0  0  0  0  0  0  0
   18.9676  -11.7044   13.4504 C   0  0  0  0  0  0  0  0  0  0  0  0
   19.3814  -10.4894   14.2490 C   0  0  0  0  0  0  0  0  0  0  0  0
 23 24  2  0  0  0
 24 25  1  0  0  0
 25 26  1  0  0  0
 26 27  1  0  0  0
 27 29  1  0  0  0
 29 30  1  0  0  0
 30 31  1  0  0  0
 31 32  1  0  0  0
 27 28  1  0  0  0
 28  1  1  0  0  0
  1  2  1  0  0  0
  2  3  2  0  0  0
  3  4  1  0  0  0
  4  5  1  0  0  0
  5  6  2  0  0  0
  6  7  1  0  0  0
  7 10  1  0  0  0
 10 11  2  0  0  0
 11 12  1  0  0  0
 12 13  2  0  0  0
 13 17  1  0  0  0
 17 18  1  0  0  0
 18 19  2  0  0  0
 19 20  1  0  0  0
 20 21  1  0  0  0
 13 14  1  0  0  0
 14 15  1  0  0  0
 14 16  2  0  0  0
  7  8  2  0  0  0
  8  9  1  0  0  0
 28 24  1  0  0  0
  9  1  2  0  0  0
 32 30  1  0  0  0
  8  4  1  0  0  0
 16 10  1  0  0  0
 21 17  2  0  0  0
 20 22  1  0  0  0
M  END
>  <minimizedAffinity>
9.01063

>  <minimizedRMSD>
2.89363

$$$$
CHEMBL5286661


 36 40  0  0  0  0  0  0  0  0999 V2000
   16.3900   -9.8734   10.6178 C   0  0  0  0  0  0  0  0  0  0  0  0
   15.6764   -9.5870   11.9450 C   0  0  0  0  0  0  0  0  0  0  0  0
   16.4409  -10.1152   13.1659 C   0  0  0  0  0  0  0  0  0  0  0  0
   17.8526  -10.3087   12.8503 N   0  0  0  0  0  0  0  0  0  0  0  0
   17.9591  -11.4353   11.9208 C   0  0  0  0  0  0  0  0  0  0  0  0
   17.1226  -11.2226   10.6466 C   0  0  0  0  0  0  0  0  0  0  0  0
   17.3207   -8.7921   10.3199 N   0  0  0  0  0  0  0  0  0  0  0  0
   17.6023   -8.1961   11.0511 H   0  0  0  0  0  0  0  0  0  0  0  0
   18.8704   -8.0850    4.7045 C   0  0  0  0  0  0  0  0  0  0  0  0
   17.8201   -8.5350    5.5270 C   0  0  0  0  0  0  0  0  0  0  0  0
   18.0114   -8.4694    6.9047 C   0  0  0  0  0  0  0  0  0  0  0  0
   19.1688   -7.9891    7.4500 C   0  0  0  0  0  0  0  0  0  0  0  0
   20.2293   -7.5342    6.6675 C   0  0  0  0  0  0  0  0  0  0  0  0
   20.0664   -7.5881    5.2707 C   0  0  0  0  0  0  0  0  0  0  0  0
   19.0710   -8.0433    8.7836 N   0  0  0  0  0  0  0  0  0  0  0  0
   17.8411   -8.5625    9.0082 C   0  0  0  0  0  0  0  0  0  0  0  0
   17.1487   -8.8407    7.8707 N   0  0  0  0  0  0  0  0  0  0  0  0
   20.0555   -7.6262    9.7691 C   0  0  0  0  0  0  0  0  0  0  0  0
   18.5120  -10.7011   14.0862 C   0  0  0  0  0  0  0  0  0  0  0  0
   18.8691   -9.4727   14.9149 C   0  0  0  0  0  0  0  0  0  0  0  0
   17.6839   -8.9723   15.6701 C   0  0  0  0  0  0  0  0  0  0  0  0
   16.9021   -7.9425   15.1374 C   0  0  0  0  0  0  0  0  0  0  0  0
   15.7779   -7.4869   15.8314 C   0  0  0  0  0  0  0  0  0  0  0  0
   15.4233   -8.0593   17.0617 C   0  0  0  0  0  0  0  0  0  0  0  0
   16.2097   -9.0943   17.5881 C   0  0  0  0  0  0  0  0  0  0  0  0
   17.3344   -9.5505   16.8948 C   0  0  0  0  0  0  0  0  0  0  0  0
   14.2364   -7.5809   17.7913 C   0  0  0  0  0  0  0  0  0  0  0  0
   13.2709   -7.0712   17.1593 O   0  0  0  0  0  0  0  0  0  0  0  0
   14.1756   -7.7023   19.2168 N   0  0  0  0  0  0  0  0  0  0  0  0
   14.9289   -8.1325   19.6823 H   0  0  0  0  0  0  0  0  0  0  0  0
   13.0544   -7.2207   20.0120 C   0  0  0  0  0  0  0  0  0  0  0  0
   11.9957   -8.2400   20.3583 C   0  0  0  0  0  0  0  0  0  0  0  0
   13.0249   -7.8085   21.4000 C   0  0  0  0  0  0  0  0  0  0  0  0
   12.6750   -5.7520   19.9417 C   0  0  0  0  0  0  0  0  0  0  0  0
   11.5490   -5.5849   19.1360 O   0  0  0  0  0  0  0  0  0  0  0  0
   11.7424   -5.9023   18.2401 H   0  0  0  0  0  0  0  0  0  0  0  0
  9 10  2  0  0  0
 10 11  1  0  0  0
 11 12  2  0  0  0
 12 13  1  0  0  0
 13 14  2  0  0  0
 12 15  1  0  0  0
 15 16  1  0  0  0
 16 17  2  0  0  0
 16  7  1  0  0  0
  7  1  1  0  0  0
  1  2  1  0  0  0
  2  3  1  0  0  0
  3  4  1  0  0  0
  4  5  1  0  0  0
  5  6  1  0  0  0
  4 19  1  0  0  0
 19 20  1  0  0  0
 20 21  1  0  0  0
 21 22  2  0  0  0
 22 23  1  0  0  0
 23 24  2  0  0  0
 24 25  1  0  0  0
 25 26  2  0  0  0
 24 27  1  0  0  0
 27 28  2  0  0  0
 27 29  1  0  0  0
 29 31  1  0  0  0
 31 34  1  0  0  0
 34 35  1  0  0  0
 31 32  1  0  0  0
 32 33  1  0  0  0
 15 18  1  0  0  0
 14  9  1  0  0  0
  6  1  1  0  0  0
 26 21  1  0  0  0
 33 31  1  0  0  0
 17 11  1  0  0  0
  7  8  1  0  0  0
 29 30  1  0  0  0
 35 36  1  0  0  0
M  END
>  <minimizedAffinity>
-4.18684

>  <minimizedRMSD>
2.89651

$$$$
CHEMBL1351072 4130188 MCULE-6457971681 MolPort-000-009-889 PubChem-3167045 ZINC000004130188 ZINC04130188


 28 31  0  0  0  0  0  0  0  0999 V2000
   16.6036   -8.6423   14.0038 C   0  0  0  0  0  0  0  0  0  0  0  0
   15.4063   -9.0993   13.5929 N   0  0  0  0  0  0  0  0  0  0  0  0
   15.6445   -9.8514   12.5298 N   0  0  0  0  0  0  0  0  0  0  0  0
   16.9767   -9.8223   12.3406 C   0  0  0  0  0  0  0  0  0  0  0  0
   17.5739   -9.0778   13.2386 O   0  0  0  0  0  0  0  0  0  0  0  0
   16.8360   -7.5694   15.4158 S   0  0  0  0  0  0  0  0  0  0  0  0
   16.1716   -8.7951   16.5845 C   0  0  0  0  0  0  0  0  0  0  0  0
   15.7438   -8.1565   18.9875 N   0  0  0  0  0  0  0  0  0  0  0  0
   15.3313   -8.1253   17.6150 C   0  0  0  0  0  0  0  0  0  0  0  0
   14.2814   -7.5266   17.2607 O   0  0  0  0  0  0  0  0  0  0  0  0
   16.5688   -8.6543   19.1894 H   0  0  0  0  0  0  0  0  0  0  0  0
   13.0770   -5.5173   23.6554 Cl  0  0  0  0  0  0  0  0  0  0  0  0
   13.8449   -6.2938   22.2879 C   0  0  0  0  0  0  0  0  0  0  0  0
   15.2264   -6.1855   22.1078 C   0  0  0  0  0  0  0  0  0  0  0  0
   15.8396   -6.8057   21.0151 C   0  0  0  0  0  0  0  0  0  0  0  0
   15.0784   -7.5373   20.0967 C   0  0  0  0  0  0  0  0  0  0  0  0
   13.6913   -7.6412   20.2836 C   0  0  0  0  0  0  0  0  0  0  0  0
   13.0768   -7.0218   21.3756 C   0  0  0  0  0  0  0  0  0  0  0  0
   17.6764  -10.5180   11.2252 C   0  0  0  0  0  0  0  0  0  0  0  0
   18.4126   -9.5523   10.4243 N   0  0  0  0  0  0  0  0  0  0  0  0
   19.5155   -8.9236   10.8176 N   0  0  0  0  0  0  0  0  0  0  0  0
   19.9239   -8.0558    9.8914 N   0  0  0  0  0  0  0  0  0  0  0  0
   19.0310   -8.1466    8.8882 C   0  0  0  0  0  0  0  0  0  0  0  0
   18.9916   -7.4419    7.6893 C   0  0  0  0  0  0  0  0  0  0  0  0
   17.9227   -7.7263    6.8156 C   0  0  0  0  0  0  0  0  0  0  0  0
   16.9417   -8.6869    7.1619 C   0  0  0  0  0  0  0  0  0  0  0  0
   17.0148   -9.3794    8.3865 C   0  0  0  0  0  0  0  0  0  0  0  0
   18.0890   -9.0709    9.2175 C   0  0  0  0  0  0  0  0  0  0  0  0
 12 13  1  0  0  0
 13 14  2  0  0  0
 14 15  1  0  0  0
 15 16  2  0  0  0
 16  8  1  0  0  0
 16 17  1  0  0  0
  8  9  1  0  0  0
  9 10  2  0  0  0
  9  7  1  0  0  0
  7  6  1  0  0  0
  6  1  1  0  0  0
  1  2  2  0  0  0
  2  3  1  0  0  0
  3  4  2  0  0  0
  4 19  1  0  0  0
  4  5  1  0  0  0
 19 20  1  0  0  0
 20 21  1  0  0  0
 21 22  2  0  0  0
 22 23  1  0  0  0
 23 24  2  0  0  0
 24 25  1  0  0  0
 25 26  2  0  0  0
 26 27  1  0  0  0
 27 28  2  0  0  0
 28 20  1  0  0  0
 28 23  1  0  0  0
  5  1  1  0  0  0
 17 18  2  0  0  0
 18 13  1  0  0  0
  8 11  1  0  0  0
M  END
>  <minimizedAffinity>
-6.60787

>  <minimizedRMSD>
2.89942

$$$$
CHEMBL4904986 72310898 PubChem-95787408 ZINC000072310898 ZINC72310898


 31 34  0  0  0  0  0  0  0  0999 V2000
   16.9305   -8.6921   15.2759 C   0  0  0  0  0  0  0  0  0  0  0  0
   17.3501   -9.7670   14.3324 C   0  0  0  0  0  0  0  0  0  0  0  0
   17.6230  -10.9143   14.7774 O   0  0  0  0  0  0  0  0  0  0  0  0
   17.3988   -9.4990   12.9621 O   0  0  0  0  0  0  0  0  0  0  0  0
   15.0974   -9.7599   12.3265 C   0  0  0  0  0  0  0  0  0  0  0  0
   16.5368  -10.1346   12.0248 C   0  0  0  0  0  0  0  0  0  0  0  0
   16.8955   -9.7429   10.6250 C   0  0  0  0  0  0  0  0  0  0  0  0
   17.9669   -8.8786   10.3650 C   0  0  0  0  0  0  0  0  0  0  0  0
   18.2813   -8.5424    9.0490 C   0  0  0  0  0  0  0  0  0  0  0  0
   19.3450   -7.6815    8.7670 C   0  0  0  0  0  0  0  0  0  0  0  0
   19.6443   -7.3571    7.4397 C   0  0  0  0  0  0  0  0  0  0  0  0
   18.8818   -7.8924    6.3955 C   0  0  0  0  0  0  0  0  0  0  0  0
   17.8160   -8.7551    6.6728 C   0  0  0  0  0  0  0  0  0  0  0  0
   17.5113   -9.0836    7.9967 C   0  0  0  0  0  0  0  0  0  0  0  0
   16.4775   -9.9221    8.2743 N   0  0  0  0  0  0  0  0  0  0  0  0
   16.1592  -10.2589    9.5537 C   0  0  0  0  0  0  0  0  0  0  0  0
   16.8705   -9.2242   16.7029 C   0  0  0  0  0  0  0  0  0  0  0  0
   15.9078   -8.4715   17.5720 C   0  0  0  0  0  0  0  0  0  0  0  0
   14.7693   -7.8840   17.1070 N   0  0  0  0  0  0  0  0  0  0  0  0
   14.2514   -7.3487   18.2207 C   0  0  0  0  0  0  0  0  0  0  0  0
   13.0822   -6.6223   18.3838 C   0  0  0  0  0  0  0  0  0  0  0  0
   12.3237   -6.3718   17.4107 O   0  0  0  0  0  0  0  0  0  0  0  0
   12.7736   -6.1839   19.6384 N   0  0  0  0  0  0  0  0  0  0  0  0
   13.5892   -6.4500   20.7091 C   0  0  0  0  0  0  0  0  0  0  0  0
   13.2656   -6.0255   21.8508 O   0  0  0  0  0  0  0  0  0  0  0  0
   14.7460   -7.1721   20.5357 N   0  0  0  0  0  0  0  0  0  0  0  0
   15.0464   -7.6053   19.2824 C   0  0  0  0  0  0  0  0  0  0  0  0
   16.1177   -8.3207   18.9074 N   0  0  0  0  0  0  0  0  0  0  0  0
   15.6296   -7.4699   21.6555 C   0  0  0  0  0  0  0  0  0  0  0  0
   14.4175   -7.8593   16.1878 H   0  0  0  0  0  0  0  0  0  0  0  0
   11.9482   -5.6658   19.7784 H   0  0  0  0  0  0  0  0  0  0  0  0
  6  5  1  0  0  0
  6  7  1  0  0  0
  6  4  1  0  0  0
  7  8  2  0  0  0
  8  9  1  0  0  0
  9 10  2  0  0  0
 10 11  1  0  0  0
 11 12  2  0  0  0
 12 13  1  0  0  0
 13 14  2  0  0  0
 14 15  1  0  0  0
 14  9  1  0  0  0
 15 16  2  0  0  0
 16  7  1  0  0  0
  4  2  1  0  0  0
  2  3  2  0  0  0
  2  1  1  0  0  0
  1 17  1  0  0  0
 17 18  1  0  0  0
 18 19  1  0  0  0
 19 20  1  0  0  0
 20 21  1  0  0  0
 21 22  2  0  0  0
 21 23  1  0  0  0
 23 24  1  0  0  0
 24 25  2  0  0  0
 24 26  1  0  0  0
 26 27  1  0  0  0
 26 29  1  0  0  0
 27 28  1  0  0  0
 27 20  2  0  0  0
 28 18  2  0  0  0
 19 30  1  0  0  0
 23 31  1  0  0  0
M  END
>  <minimizedAffinity>
-8.65895

>  <minimizedRMSD>
2.90249

$$$$
CHEMBL157775


 40 42  0  0  0  0  0  0  0  0999 V2000
   16.8447   -9.5172   14.1953 C   0  0  0  0  0  0  0  0  0  0  0  0
   16.9178  -10.2673   15.3728 C   0  0  0  0  0  0  0  0  0  0  0  0
   16.3922   -9.7548   16.5622 C   0  0  0  0  0  0  0  0  0  0  0  0
   15.7839   -8.4910   16.5831 C   0  0  0  0  0  0  0  0  0  0  0  0
   15.7117   -7.7451   15.3972 C   0  0  0  0  0  0  0  0  0  0  0  0
   16.2394   -8.2560   14.2083 C   0  0  0  0  0  0  0  0  0  0  0  0
   15.2217   -7.9572   17.8358 C   0  0  0  0  0  0  0  0  0  0  0  0
   15.8884   -8.0207   18.9057 O   0  0  0  0  0  0  0  0  0  0  0  0
   13.9217   -7.3586   17.8378 N   0  0  0  0  0  0  0  0  0  0  0  0
   13.4225   -7.3134   16.9905 H   0  0  0  0  0  0  0  0  0  0  0  0
   13.3052   -6.8129   19.0410 C   0  0  0  0  0  0  0  0  0  0  0  0
   12.5655   -7.8857   19.7699 C   0  0  0  0  0  0  0  0  0  0  0  0
   12.8468   -8.1328   20.9705 O   0  0  0  0  0  0  0  0  0  0  0  0
   11.5778   -8.6222   19.1276 O   0  0  0  0  0  0  0  0  0  0  0  0
   11.3653   -8.4412   18.2332 H   0  0  0  0  0  0  0  0  0  0  0  0
   12.3518   -5.6894   18.6712 C   0  0  0  0  0  0  0  0  0  0  0  0
   12.3478   -4.6262   19.7548 C   0  0  0  0  0  0  0  0  0  0  0  0
   11.1008   -4.7173   20.5637 C   0  0  0  0  0  0  0  0  0  0  0  0
   10.0914   -5.3177   20.1109 O   0  0  0  0  0  0  0  0  0  0  0  0
   11.0466   -4.1221   21.8166 O   0  0  0  0  0  0  0  0  0  0  0  0
   11.7969   -3.6746   22.1555 H   0  0  0  0  0  0  0  0  0  0  0  0
   17.3792  -10.0814   12.9217 C   0  0  0  0  0  0  0  0  0  0  0  0
   16.3631  -10.0264   11.8758 N   0  0  0  0  0  0  0  0  0  0  0  0
   14.9996  -10.1961   12.2926 C   0  0  0  0  0  0  0  0  0  0  0  0
   14.0515  -10.2452   11.4655 O   0  0  0  0  0  0  0  0  0  0  0  0
   19.1989   -7.9088    4.9243 N   0  0  0  0  0  0  0  0  0  0  0  0
   18.8689   -8.1792    6.2810 C   0  0  0  0  0  0  0  0  0  0  0  0
   19.6281   -7.6558    7.2808 N   0  0  0  0  0  0  0  0  0  0  0  0
   19.3311   -7.8898    8.5862 C   0  0  0  0  0  0  0  0  0  0  0  0
   20.1279   -7.3367    9.5825 O   0  0  0  0  0  0  0  0  0  0  0  0
   18.2269   -8.6839    8.9105 C   0  0  0  0  0  0  0  0  0  0  0  0
   17.8664   -8.9580   10.2316 C   0  0  0  0  0  0  0  0  0  0  0  0
   16.7540   -9.7667   10.5089 C   0  0  0  0  0  0  0  0  0  0  0  0
   16.0161  -10.2748    9.4271 C   0  0  0  0  0  0  0  0  0  0  0  0
   16.3768   -9.9950    8.1452 N   0  0  0  0  0  0  0  0  0  0  0  0
   17.4557   -9.2183    7.8641 C   0  0  0  0  0  0  0  0  0  0  0  0
   17.7902   -8.9530    6.5749 N   0  0  0  0  0  0  0  0  0  0  0  0
   19.9796   -7.3487    4.7098 H   0  0  0  0  0  0  0  0  0  0  0  0
   18.6465   -8.2817    4.1996 H   0  0  0  0  0  0  0  0  0  0  0  0
   20.8651   -6.8063    9.3523 H   0  0  0  0  0  0  0  0  0  0  0  0
 26 27  1  0  0  0
 27 28  2  0  0  0
 28 29  1  0  0  0
 29 30  1  0  0  0
 29 31  2  0  0  0
 31 32  1  0  0  0
 32 33  2  0  0  0
 33 23  1  0  0  0
 33 34  1  0  0  0
 23 24  1  0  0  0
 23 22  1  0  0  0
 24 25  2  0  0  0
 22  1  1  0  0  0
  1  2  2  0  0  0
  2  3  1  0  0  0
  3  4  2  0  0  0
  4  7  1  0  0  0
  4  5  1  0  0  0
  7  8  2  0  0  0
  7  9  1  0  0  0
 11  9  1  0  0  0
 11 16  1  0  0  0
 11 12  1  0  0  0
 16 17  1  0  0  0
 17 18  1  0  0  0
 18 19  2  0  0  0
 18 20  1  0  0  0
 12 13  2  0  0  0
 12 14  1  0  0  0
  5  6  2  0  0  0
  6  1  1  0  0  0
 34 35  2  0  0  0
 35 36  1  0  0  0
 36 37  2  0  0  0
 36 31  1  0  0  0
 37 27  1  0  0  0
 26 38  1  0  0  0
 26 39  1  0  0  0
 30 40  1  0  0  0
  9 10  1  0  0  0
 20 21  1  0  0  0
 14 15  1  0  0  0
M  END
>  <minimizedAffinity>
-8.96535

>  <minimizedRMSD>
2.91023

$$$$
CHEMBL5078554


 37 42  0  0  0  0  0  0  0  0999 V2000
   18.1977   -9.3971   10.8294 N   0  0  0  0  0  0  0  0  0  0  0  0
   19.2648   -8.6879   10.3378 C   0  0  0  0  0  0  0  0  0  0  0  0
   19.2599   -8.3174    9.0202 N   0  0  0  0  0  0  0  0  0  0  0  0
   18.2581   -8.6141    8.1827 C   0  0  0  0  0  0  0  0  0  0  0  0
   18.4654   -8.1399    6.9426 N   0  0  0  0  0  0  0  0  0  0  0  0
   19.6748   -7.5352    7.1012 C   0  0  0  0  0  0  0  0  0  0  0  0
   20.1724   -7.6333    8.3606 N   0  0  0  0  0  0  0  0  0  0  0  0
   17.1768   -9.3287    8.6613 C   0  0  0  0  0  0  0  0  0  0  0  0
   17.1808   -9.7016    9.9703 C   0  0  0  0  0  0  0  0  0  0  0  0
   16.0492  -10.3608   10.2397 N   0  0  0  0  0  0  0  0  0  0  0  0
   15.3189  -10.4095    9.1291 N   0  0  0  0  0  0  0  0  0  0  0  0
   15.9884   -9.7814    8.1223 C   0  0  0  0  0  0  0  0  0  0  0  0
   20.3520   -8.3425   11.1895 N   0  0  0  0  0  0  0  0  0  0  0  0
   20.3424   -8.6156   12.1353 H   0  0  0  0  0  0  0  0  0  0  0  0
   21.1135   -7.8306   10.8326 H   0  0  0  0  0  0  0  0  0  0  0  0
   20.3697   -6.8427    6.0124 C   0  0  0  0  0  0  0  0  0  0  0  0
   21.5861   -7.2105    5.4781 C   0  0  0  0  0  0  0  0  0  0  0  0
   21.8346   -6.2734    4.4903 C   0  0  0  0  0  0  0  0  0  0  0  0
   20.7579   -5.4027    4.4903 C   0  0  0  0  0  0  0  0  0  0  0  0
   19.9051   -5.7766    5.4132 O   0  0  0  0  0  0  0  0  0  0  0  0
   15.6214  -10.8771   11.5314 C   0  0  0  0  0  0  0  0  0  0  0  0
   15.0418   -9.7586   12.3854 C   0  0  0  0  0  0  0  0  0  0  0  0
   16.1004   -9.0907   13.1281 N   0  0  0  0  0  0  0  0  0  0  0  0
   16.7184  -10.1014   14.0040 C   0  0  0  0  0  0  0  0  0  0  0  0
   16.4827   -9.6398   15.3839 C   0  0  0  0  0  0  0  0  0  0  0  0
   15.7679   -8.4856   15.3777 C   0  0  0  0  0  0  0  0  0  0  0  0
   15.4607   -8.0833   13.9942 C   0  0  0  0  0  0  0  0  0  0  0  0
   15.4055   -7.8434   16.5610 C   0  0  0  0  0  0  0  0  0  0  0  0
   15.8009   -8.4161   17.7862 C   0  0  0  0  0  0  0  0  0  0  0  0
   16.5444   -9.6169   17.7832 C   0  0  0  0  0  0  0  0  0  0  0  0
   16.8910  -10.2400   16.5736 C   0  0  0  0  0  0  0  0  0  0  0  0
   15.4405   -7.7691   19.0596 C   0  0  0  0  0  0  0  0  0  0  0  0
   14.2545   -7.8250   19.4848 O   0  0  0  0  0  0  0  0  0  0  0  0
   16.4315   -7.0755   19.8186 N   0  0  0  0  0  0  0  0  0  0  0  0
   16.1160   -6.4759   20.9903 O   0  0  0  0  0  0  0  0  0  0  0  0
   17.3568   -7.0330   19.4851 H   0  0  0  0  0  0  0  0  0  0  0  0
   15.1735   -6.6078   21.1775 H   0  0  0  0  0  0  0  0  0  0  0  0
  1  2  2  0  0  0
  2  3  1  0  0  0
  3  4  1  0  0  0
  4  5  2  0  0  0
  5  6  1  0  0  0
  6  7  2  0  0  0
  6 16  1  0  0  0
 16 17  2  0  0  0
 17 18  1  0  0  0
 18 19  2  0  0  0
 19 20  1  0  0  0
  4  8  1  0  0  0
  8  9  2  0  0  0
  9 10  1  0  0  0
 10 11  1  0  0  0
 11 12  2  0  0  0
 10 21  1  0  0  0
 21 22  1  0  0  0
 22 23  1  0  0  0
 23 24  1  0  0  0
 24 25  1  0  0  0
 25 26  2  0  0  0
 26 27  1  0  0  0
 26 28  1  0  0  0
 28 29  2  0  0  0
 29 30  1  0  0  0
 30 31  2  0  0  0
 29 32  1  0  0  0
 32 33  2  0  0  0
 32 34  1  0  0  0
 34 35  1  0  0  0
  2 13  1  0  0  0
  9  1  1  0  0  0
 27 23  1  0  0  0
  7  3  1  0  0  0
 20 16  1  0  0  0
 12  8  1  0  0  0
 31 25  1  0  0  0
 34 36  1  0  0  0
 35 37  1  0  0  0
 13 14  1  0  0  0
 13 15  1  0  0  0
M  END
>  <minimizedAffinity>
-1.39413

>  <minimizedRMSD>
2.92110

$$$$
CHEMBL418690 PubChem-9604964


 37 40  0  0  0  0  0  0  0  0999 V2000
   19.8198   -7.7240    8.7585 N   0  0  0  0  0  0  0  0  0  0  0  0
   20.6503   -7.1997    8.6907 H   0  0  0  0  0  0  0  0  0  0  0  0
   19.8724   -7.7175    4.1059 N   0  0  0  0  0  0  0  0  0  0  0  0
   19.1127   -8.0833    5.1524 C   0  0  0  0  0  0  0  0  0  0  0  0
   19.7432   -7.7633    6.3078 C   0  0  0  0  0  0  0  0  0  0  0  0
   20.9411   -7.1771    5.9487 C   0  0  0  0  0  0  0  0  0  0  0  0
   20.9833   -7.1670    4.5894 N   0  0  0  0  0  0  0  0  0  0  0  0
   19.1481   -8.0435    7.5301 C   0  0  0  0  0  0  0  0  0  0  0  0
   17.9229   -8.6524    7.5086 N   0  0  0  0  0  0  0  0  0  0  0  0
   17.2999   -8.9672    6.3286 C   0  0  0  0  0  0  0  0  0  0  0  0
   17.8960   -8.6813    5.1319 N   0  0  0  0  0  0  0  0  0  0  0  0
   19.5957   -7.8689    2.7023 C   0  0  0  0  0  0  0  0  0  0  0  0
   19.1941   -6.7574    1.9451 C   0  0  0  0  0  0  0  0  0  0  0  0
   18.9177   -6.8814    0.5792 C   0  0  0  0  0  0  0  0  0  0  0  0
   19.0473   -8.1356   -0.0388 C   0  0  0  0  0  0  0  0  0  0  0  0
   19.4473   -9.2483    0.7047 C   0  0  0  0  0  0  0  0  0  0  0  0
   19.7191   -9.1151    2.0685 C   0  0  0  0  0  0  0  0  0  0  0  0
   18.5160   -5.7489   -0.1364 O   0  0  0  0  0  0  0  0  0  0  0  0
   17.5729   -5.8075   -1.1993 C   0  0  0  0  0  0  0  0  0  0  0  0
   19.3993   -8.0920   10.0513 N   0  0  0  0  0  0  0  0  0  0  0  0
   18.5932   -9.0788   10.2851 C   0  0  0  0  0  0  0  0  0  0  0  0
   18.1832   -9.4262   11.6489 C   0  0  0  0  0  0  0  0  0  0  0  0
   16.8661   -9.1726   12.0460 C   0  0  0  0  0  0  0  0  0  0  0  0
   16.4494   -9.4868   13.3427 C   0  0  0  0  0  0  0  0  0  0  0  0
   17.3472  -10.0597   14.2491 C   0  0  0  0  0  0  0  0  0  0  0  0
   18.6670  -10.3090   13.8572 C   0  0  0  0  0  0  0  0  0  0  0  0
   19.0842   -9.9941   12.5607 C   0  0  0  0  0  0  0  0  0  0  0  0
   16.8295  -10.4173   15.8877 S   0  0  0  0  0  0  0  0  0  0  0  0
   17.8733   -9.9558   16.8678 O   0  0  0  0  0  0  0  0  0  0  0  0
   16.6539  -11.9018   16.0369 O   0  0  0  0  0  0  0  0  0  0  0  0
   15.3243   -9.6280   16.2173 N   0  0  0  0  0  0  0  0  0  0  0  0
   14.8801  -10.0539   17.0307 H   0  0  0  0  0  0  0  0  0  0  0  0
   15.6056   -8.2273   16.4845 C   0  0  0  0  0  0  0  0  0  0  0  0
   15.5837   -7.9694   17.9810 C   0  0  0  0  0  0  0  0  0  0  0  0
   14.2302   -8.0941   18.4936 N   0  0  0  0  0  0  0  0  0  0  0  0
   14.2859   -7.7777   19.9078 C   0  0  0  0  0  0  0  0  0  0  0  0
   13.4366   -7.0515   17.8672 C   0  0  0  0  0  0  0  0  0  0  0  0
  3  4  1  0  0  0
  4  5  2  0  0  0
  5  6  1  0  0  0
  6  7  2  0  0  0
  5  8  1  0  0  0
  8  9  2  0  0  0
  9 10  1  0  0  0
 10 11  2  0  0  0
  8  1  1  0  0  0
  1 20  1  0  0  0
 20 21  2  0  0  0
 21 22  1  0  0  0
 22 23  2  0  0  0
 23 24  1  0  0  0
 24 25  2  0  0  0
 25 28  1  0  0  0
 28 29  2  0  0  0
 28 30  2  0  0  0
 28 31  1  0  0  0
 31 33  1  0  0  0
 33 34  1  0  0  0
 34 35  1  0  0  0
 35 36  1  0  0  0
 35 37  1  0  0  0
 25 26  1  0  0  0
 26 27  2  0  0  0
  3 12  1  0  0  0
 12 13  2  0  0  0
 13 14  1  0  0  0
 14 18  1  0  0  0
 18 19  1  0  0  0
 14 15  2  0  0  0
 15 16  1  0  0  0
 16 17  2  0  0  0
  7  3  1  0  0  0
 27 22  1  0  0  0
 17 12  1  0  0  0
 11  4  1  0  0  0
  1  2  1  0  0  0
 31 32  1  0  0  0
M  END
>  <minimizedAffinity>
-4.56512

>  <minimizedRMSD>
2.92520

$$$$
CHEMBL1575430


 32 34  0  0  0  0  0  0  0  0999 V2000
   16.0500   -9.3731   13.9784 N   0  0  0  0  0  0  0  0  0  0  0  0
   15.7815   -8.3928   13.8933 H   0  0  0  0  0  0  0  0  0  0  0  0
   16.8785   -9.6298   15.4762 S   0  0  0  0  0  0  0  0  0  0  0  0
   16.8896  -11.0998   15.7930 O   0  0  0  0  0  0  0  0  0  0  0  0
   18.2935   -9.1312   15.3782 O   0  0  0  0  0  0  0  0  0  0  0  0
   16.0462   -8.7562   16.7484 C   0  0  0  0  0  0  0  0  0  0  0  0
   16.5882   -8.6940   18.0362 C   0  0  0  0  0  0  0  0  0  0  0  0
   15.9213   -7.9915   19.0441 C   0  0  0  0  0  0  0  0  0  0  0  0
   14.7098   -7.3452   18.7747 C   0  0  0  0  0  0  0  0  0  0  0  0
   14.1708   -7.4093   17.4805 C   0  0  0  0  0  0  0  0  0  0  0  0
   14.8362   -8.1116   16.4721 C   0  0  0  0  0  0  0  0  0  0  0  0
   14.0575   -6.6326   19.8347 N   0  0  0  0  0  0  0  0  0  0  0  0
   13.1341   -5.5455   19.6959 C   0  0  0  0  0  0  0  0  0  0  0  0
   12.8055   -5.1050   18.5627 O   0  0  0  0  0  0  0  0  0  0  0  0
   12.5530   -4.9250   20.9145 C   0  0  0  0  0  0  0  0  0  0  0  0
   14.2657   -6.9202   20.7530 H   0  0  0  0  0  0  0  0  0  0  0  0
   16.9612   -9.7326   12.9034 C   0  0  0  0  0  0  0  0  0  0  0  0
   16.1785  -10.2712   11.7158 C   0  0  0  0  0  0  0  0  0  0  0  0
   16.7308   -9.7549   10.4242 C   0  0  0  0  0  0  0  0  0  0  0  0
   16.0155   -9.9010    9.2280 C   0  0  0  0  0  0  0  0  0  0  0  0
   14.7734  -10.5249    9.2204 O   0  0  0  0  0  0  0  0  0  0  0  0
   16.5345   -9.4295    8.0629 N   0  0  0  0  0  0  0  0  0  0  0  0
   17.7457   -8.8087    8.0087 C   0  0  0  0  0  0  0  0  0  0  0  0
   18.5026   -8.6437    9.1932 C   0  0  0  0  0  0  0  0  0  0  0  0
   17.9786   -9.1274   10.3976 C   0  0  0  0  0  0  0  0  0  0  0  0
   19.7553   -8.0031    9.1401 C   0  0  0  0  0  0  0  0  0  0  0  0
   20.2415   -7.5353    7.9166 C   0  0  0  0  0  0  0  0  0  0  0  0
   19.4944   -7.6984    6.7481 C   0  0  0  0  0  0  0  0  0  0  0  0
   18.2499   -8.3316    6.7867 C   0  0  0  0  0  0  0  0  0  0  0  0
   17.4815   -8.4862    5.5183 C   0  0  0  0  0  0  0  0  0  0  0  0
   20.5892   -7.8034   10.3617 C   0  0  0  0  0  0  0  0  0  0  0  0
   14.4088  -10.8526   10.0190 H   0  0  0  0  0  0  0  0  0  0  0  0
  3  4  2  0  0  0
  3  5  2  0  0  0
  3  1  1  0  0  0
  1 17  1  0  0  0
 17 18  1  0  0  0
 18 19  1  0  0  0
 19 20  2  0  0  0
 20 21  1  0  0  0
 20 22  1  0  0  0
 22 23  2  0  0  0
 23 24  1  0  0  0
 24 25  2  0  0  0
 24 26  1  0  0  0
 26 27  2  0  0  0
 27 28  1  0  0  0
 28 29  2  0  0  0
 29 30  1  0  0  0
 26 31  1  0  0  0
  3  6  1  0  0  0
  6  7  2  0  0  0
  7  8  1  0  0  0
  8  9  2  0  0  0
  9 12  1  0  0  0
 12 13  1  0  0  0
 13 14  2  0  0  0
 13 15  1  0  0  0
  9 10  1  0  0  0
 10 11  2  0  0  0
 25 19  1  0  0  0
 11  6  1  0  0  0
 29 23  1  0  0  0
  1  2  1  0  0  0
 21 32  1  0  0  0
 12 16  1  0  0  0
M  END
>  <minimizedAffinity>
-4.98098

>  <minimizedRMSD>
2.92801

$$$$
CHEMBL1374741 919823 MCULE-7865407302 MolPort-000-039-806 PubChem-1165978 ZINC000000919823 ZINC00919823


 32 35  0  0  0  0  0  0  0  0999 V2000
   18.0382  -10.1638   15.5759 S   0  0  0  0  0  0  0  0  0  0  0  0
   17.5390  -10.2560   13.8568 C   0  0  0  0  0  0  0  0  0  0  0  0
   17.9931  -11.1855   12.9941 N   0  0  0  0  0  0  0  0  0  0  0  0
   17.4027  -10.9509   11.8295 N   0  0  0  0  0  0  0  0  0  0  0  0
   16.6058   -9.8786   12.0030 C   0  0  0  0  0  0  0  0  0  0  0  0
   16.6622   -9.4267   13.2672 N   0  0  0  0  0  0  0  0  0  0  0  0
   15.9380   -8.3133   13.8596 C   0  0  0  0  0  0  0  0  0  0  0  0
   15.7138   -9.3282   10.9402 C   0  0  0  0  0  0  0  0  0  0  0  0
   16.3362   -9.4925    9.6356 N   0  0  0  0  0  0  0  0  0  0  0  0
   15.9738  -10.3952    8.7300 N   0  0  0  0  0  0  0  0  0  0  0  0
   16.7685  -10.3416    7.6609 N   0  0  0  0  0  0  0  0  0  0  0  0
   17.6639   -9.3707    7.9207 C   0  0  0  0  0  0  0  0  0  0  0  0
   18.7210   -8.9256    7.1335 C   0  0  0  0  0  0  0  0  0  0  0  0
   19.5215   -7.8932    7.6625 C   0  0  0  0  0  0  0  0  0  0  0  0
   19.2478   -7.3488    8.9406 C   0  0  0  0  0  0  0  0  0  0  0  0
   18.1686   -7.8273    9.7093 C   0  0  0  0  0  0  0  0  0  0  0  0
   17.4014   -8.8446    9.1473 C   0  0  0  0  0  0  0  0  0  0  0  0
   16.3632   -9.7422   16.1482 C   0  0  0  0  0  0  0  0  0  0  0  0
   15.2843   -8.5853   18.1141 N   0  0  0  0  0  0  0  0  0  0  0  0
   16.4288   -8.7653   17.2698 C   0  0  0  0  0  0  0  0  0  0  0  0
   17.4949   -8.1245   17.4675 O   0  0  0  0  0  0  0  0  0  0  0  0
   14.4796   -9.1037   17.8840 H   0  0  0  0  0  0  0  0  0  0  0  0
   16.1267   -6.7453   21.2846 C   0  0  0  0  0  0  0  0  0  0  0  0
   14.9368   -6.0394   21.4823 C   0  0  0  0  0  0  0  0  0  0  0  0
   13.8708   -6.1702   20.5783 C   0  0  0  0  0  0  0  0  0  0  0  0
   14.0074   -7.0153   19.4727 C   0  0  0  0  0  0  0  0  0  0  0  0
   15.1915   -7.7277   19.2594 C   0  0  0  0  0  0  0  0  0  0  0  0
   16.2485   -7.5894   20.1702 C   0  0  0  0  0  0  0  0  0  0  0  0
   18.4592   -6.1331   21.8329 C   0  0  0  0  0  0  0  0  0  0  0  0
   17.1667   -6.5916   22.2052 O   0  0  0  0  0  0  0  0  0  0  0  0
   12.6710   -5.4754   20.7542 O   0  0  0  0  0  0  0  0  0  0  0  0
   12.5882   -4.2592   21.4844 C   0  0  0  0  0  0  0  0  0  0  0  0
 29 30  1  0  0  0
 30 23  1  0  0  0
 23 24  2  0  0  0
 24 25  1  0  0  0
 25 31  1  0  0  0
 25 26  2  0  0  0
 31 32  1  0  0  0
 26 27  1  0  0  0
 27 19  1  0  0  0
 27 28  2  0  0  0
 19 20  1  0  0  0
 20 21  2  0  0  0
 20 18  1  0  0  0
 18  1  1  0  0  0
  1  2  1  0  0  0
  2  3  2  0  0  0
  3  4  1  0  0  0
  4  5  2  0  0  0
  5  8  1  0  0  0
  5  6  1  0  0  0
  8  9  1  0  0  0
  9 10  1  0  0  0
 10 11  2  0  0  0
 11 12  1  0  0  0
 12 13  2  0  0  0
 13 14  1  0  0  0
 14 15  2  0  0  0
 15 16  1  0  0  0
 16 17  2  0  0  0
 17  9  1  0  0  0
 17 12  1  0  0  0
  6  7  1  0  0  0
  6  2  1  0  0  0
 28 23  1  0  0  0
 19 22  1  0  0  0
M  END
>  <minimizedAffinity>
-5.06964

>  <minimizedRMSD>
2.93120

$$$$
CHEMBL4059978 PubChem-137636773


 34 38  0  0  0  0  0  0  0  0999 V2000
   17.2628   -9.7243   12.5271 N   0  0  0  0  0  0  0  0  0  0  0  0
   18.4041  -10.3951   12.6299 N   0  0  0  0  0  0  0  0  0  0  0  0
   18.9747  -10.0624   13.8095 C   0  0  0  0  0  0  0  0  0  0  0  0
   18.1671   -9.1611   14.4758 C   0  0  0  0  0  0  0  0  0  0  0  0
   17.1004   -8.9845   13.6424 C   0  0  0  0  0  0  0  0  0  0  0  0
   15.9122   -8.3130   14.0544 N   0  0  0  0  0  0  0  0  0  0  0  0
   15.9190   -7.6499   15.3259 C   0  0  0  0  0  0  0  0  0  0  0  0
   14.8646   -7.1166   15.7571 O   0  0  0  0  0  0  0  0  0  0  0  0
   17.2022   -7.5230   16.1212 C   0  0  0  0  0  0  0  0  0  0  0  0
   18.1867   -8.6949   15.9028 C   0  0  0  0  0  0  0  0  0  0  0  0
   20.2247  -10.6788   14.3310 C   0  0  0  0  0  0  0  0  0  0  0  0
   15.1107   -8.3048   13.4828 H   0  0  0  0  0  0  0  0  0  0  0  0
   16.4307   -9.9560    7.9105 N   0  0  0  0  0  0  0  0  0  0  0  0
   17.7314   -9.7180    8.2323 C   0  0  0  0  0  0  0  0  0  0  0  0
   17.9625   -9.6400    9.5715 N   0  0  0  0  0  0  0  0  0  0  0  0
   16.7442   -9.8255   10.0979 C   0  0  0  0  0  0  0  0  0  0  0  0
   15.8436  -10.0206    9.1114 C   0  0  0  0  0  0  0  0  0  0  0  0
   14.5410  -10.2953    9.3593 N   0  0  0  0  0  0  0  0  0  0  0  0
   14.1375  -10.3762   10.6623 C   0  0  0  0  0  0  0  0  0  0  0  0
   15.0343  -10.1842   11.6815 N   0  0  0  0  0  0  0  0  0  0  0  0
   16.3478   -9.8945   11.4345 C   0  0  0  0  0  0  0  0  0  0  0  0
   18.8153   -9.4852   10.0385 H   0  0  0  0  0  0  0  0  0  0  0  0
   17.8850   -9.8284   16.8310 C   0  0  0  0  0  0  0  0  0  0  0  0
   16.6958  -10.2133   17.0038 O   0  0  0  0  0  0  0  0  0  0  0  0
   18.9637  -10.4906   17.4928 N   0  0  0  0  0  0  0  0  0  0  0  0
   19.8632  -10.0934   17.4446 H   0  0  0  0  0  0  0  0  0  0  0  0
   18.7855  -11.7300   18.2361 C   0  0  0  0  0  0  0  0  0  0  0  0
   17.5947  -12.4668   17.7232 C   0  0  0  0  0  0  0  0  0  0  0  0
   16.5058  -12.7118   18.5671 C   0  0  0  0  0  0  0  0  0  0  0  0
   15.3744  -13.3710   18.0768 C   0  0  0  0  0  0  0  0  0  0  0  0
   15.3287  -13.7822   16.7412 C   0  0  0  0  0  0  0  0  0  0  0  0
   16.4138  -13.5333   15.8952 C   0  0  0  0  0  0  0  0  0  0  0  0
   17.5452  -12.8739   16.3850 C   0  0  0  0  0  0  0  0  0  0  0  0
   14.2325  -14.4204   16.2664 F   0  0  0  0  0  0  0  0  0  0  0  0
 13 14  2  0  0  0
 14 15  1  0  0  0
 15 16  1  0  0  0
 16 17  2  0  0  0
 17 18  1  0  0  0
 18 19  2  0  0  0
 19 20  1  0  0  0
 20 21  2  0  0  0
 21  1  1  0  0  0
  1  2  1  0  0  0
  2  3  2  0  0  0
  3  4  1  0  0  0
  4  5  2  0  0  0
  5  6  1  0  0  0
  6  7  1  0  0  0
  7  8  2  0  0  0
  7  9  1  0  0  0
  9 10  1  0  0  0
 10 23  1  0  0  0
 23 24  2  0  0  0
 23 25  1  0  0  0
 25 27  1  0  0  0
 27 28  1  0  0  0
 28 29  2  0  0  0
 29 30  1  0  0  0
 30 31  2  0  0  0
 31 32  1  0  0  0
 32 33  2  0  0  0
 31 34  1  0  0  0
  3 11  1  0  0  0
 17 13  1  0  0  0
  5  1  1  0  0  0
 33 28  1  0  0  0
 21 16  1  0  0  0
 10  4  1  0  0  0
 15 22  1  0  0  0
  6 12  1  0  0  0
 25 26  1  0  0  0
M  END
>  <minimizedAffinity>
15.19492

>  <minimizedRMSD>
2.93704

$$$$
CHEMBL2235568 PubChem-25108273


 28 31  0  0  0  0  0  0  0  0999 V2000
   16.5042   -8.6178   13.9910 C   0  0  0  0  0  0  0  0  0  0  0  0
   15.3621   -9.1624   13.5322 N   0  0  0  0  0  0  0  0  0  0  0  0
   15.7058   -9.9337   12.5126 N   0  0  0  0  0  0  0  0  0  0  0  0
   17.0425   -9.8279   12.3961 C   0  0  0  0  0  0  0  0  0  0  0  0
   17.5412   -9.0175   13.2970 O   0  0  0  0  0  0  0  0  0  0  0  0
   16.5900   -7.4844   15.3718 S   0  0  0  0  0  0  0  0  0  0  0  0
   15.9728   -8.7207   16.5552 C   0  0  0  0  0  0  0  0  0  0  0  0
   14.1749   -7.3759   17.3288 O   0  0  0  0  0  0  0  0  0  0  0  0
   15.1885   -8.0586   17.6337 C   0  0  0  0  0  0  0  0  0  0  0  0
   15.6130   -8.1935   18.9962 N   0  0  0  0  0  0  0  0  0  0  0  0
   16.4116   -8.7464   19.1571 H   0  0  0  0  0  0  0  0  0  0  0  0
   14.9947   -7.6063   20.1491 C   0  0  0  0  0  0  0  0  0  0  0  0
   15.7949   -6.9059   21.0587 C   0  0  0  0  0  0  0  0  0  0  0  0
   15.2283   -6.3184   22.1940 C   0  0  0  0  0  0  0  0  0  0  0  0
   13.8546   -6.4284   22.4259 C   0  0  0  0  0  0  0  0  0  0  0  0
   13.3055   -5.8592   23.5254 F   0  0  0  0  0  0  0  0  0  0  0  0
   13.0478   -7.1253   21.5227 C   0  0  0  0  0  0  0  0  0  0  0  0
   13.6156   -7.7121   20.3880 C   0  0  0  0  0  0  0  0  0  0  0  0
   17.8458  -10.5153   11.3471 C   0  0  0  0  0  0  0  0  0  0  0  0
   18.5152   -9.5301   10.5121 N   0  0  0  0  0  0  0  0  0  0  0  0
   19.5715   -8.8131   10.8820 N   0  0  0  0  0  0  0  0  0  0  0  0
   19.9198   -7.9520    9.9256 N   0  0  0  0  0  0  0  0  0  0  0  0
   19.0367   -8.1396    8.9271 C   0  0  0  0  0  0  0  0  0  0  0  0
   18.9501   -7.4817    7.7044 C   0  0  0  0  0  0  0  0  0  0  0  0
   17.9050   -7.8703    6.8422 C   0  0  0  0  0  0  0  0  0  0  0  0
   16.9929   -8.8843    7.2227 C   0  0  0  0  0  0  0  0  0  0  0  0
   17.1120   -9.5265    8.4709 C   0  0  0  0  0  0  0  0  0  0  0  0
   18.1608   -9.1150    9.2895 C   0  0  0  0  0  0  0  0  0  0  0  0
  8  9  2  0  0  0
  9  7  1  0  0  0
  9 10  1  0  0  0
  7  6  1  0  0  0
  6  1  1  0  0  0
  1  2  2  0  0  0
  2  3  1  0  0  0
  3  4  2  0  0  0
  4 19  1  0  0  0
  4  5  1  0  0  0
 19 20  1  0  0  0
 20 21  1  0  0  0
 21 22  2  0  0  0
 22 23  1  0  0  0
 23 24  2  0  0  0
 24 25  1  0  0  0
 25 26  2  0  0  0
 26 27  1  0  0  0
 27 28  2  0  0  0
 28 20  1  0  0  0
 28 23  1  0  0  0
  5  1  1  0  0  0
 10 12  1  0  0  0
 12 13  2  0  0  0
 13 14  1  0  0  0
 14 15  2  0  0  0
 15 16  1  0  0  0
 15 17  1  0  0  0
 17 18  2  0  0  0
 18 12  1  0  0  0
 10 11  1  0  0  0
M  END
>  <minimizedAffinity>
-6.62721

>  <minimizedRMSD>
2.93814

$$$$
CHEMBL3704179


 34 38  0  0  0  0  0  0  0  0999 V2000
   18.3475   -9.0464    9.9155 C   0  0  0  0  0  0  0  0  0  0  0  0
   19.5347   -9.3949   10.5730 C   0  0  0  0  0  0  0  0  0  0  0  0
   19.5454   -9.6658   11.9369 C   0  0  0  0  0  0  0  0  0  0  0  0
   18.3635   -9.5983   12.6859 C   0  0  0  0  0  0  0  0  0  0  0  0
   17.1575   -9.2436   12.0557 C   0  0  0  0  0  0  0  0  0  0  0  0
   17.1513   -8.9690   10.6655 C   0  0  0  0  0  0  0  0  0  0  0  0
   15.9925   -8.6275   10.0480 F   0  0  0  0  0  0  0  0  0  0  0  0
   18.5170   -7.9899    4.3459 N   0  0  0  0  0  0  0  0  0  0  0  0
   18.4753   -8.2526    5.7429 C   0  0  0  0  0  0  0  0  0  0  0  0
   17.6813   -9.2845    6.2407 C   0  0  0  0  0  0  0  0  0  0  0  0
   17.6560   -9.5186    7.5788 N   0  0  0  0  0  0  0  0  0  0  0  0
   18.3866   -8.7707    8.4530 C   0  0  0  0  0  0  0  0  0  0  0  0
   19.1830   -7.7345    7.9399 C   0  0  0  0  0  0  0  0  0  0  0  0
   19.2091   -7.4994    6.6018 N   0  0  0  0  0  0  0  0  0  0  0  0
   17.9837   -8.5380    3.7258 H   0  0  0  0  0  0  0  0  0  0  0  0
   19.0791   -7.2600    3.9989 H   0  0  0  0  0  0  0  0  0  0  0  0
   18.3690   -9.8803   14.1683 C   0  0  0  0  0  0  0  0  0  0  0  0
   18.7117   -8.6433   14.9773 C   0  0  0  0  0  0  0  0  0  0  0  0
   19.9917   -9.3072   15.4479 C   0  0  0  0  0  0  0  0  0  0  0  0
   19.6568  -10.5394   14.6292 C   0  0  0  0  0  0  0  0  0  0  0  0
   15.9989   -9.1774   12.8478 O   0  0  0  0  0  0  0  0  0  0  0  0
   15.4234  -10.2776   13.5385 C   0  0  0  0  0  0  0  0  0  0  0  0
   15.7919  -10.2115   14.9773 C   0  0  0  0  0  0  0  0  0  0  0  0
   16.6655  -11.1588   15.5194 C   0  0  0  0  0  0  0  0  0  0  0  0
   17.0320  -11.0818   16.8658 C   0  0  0  0  0  0  0  0  0  0  0  0
   16.5298  -10.0539   17.6693 C   0  0  0  0  0  0  0  0  0  0  0  0
   15.6602   -9.0955   17.1304 C   0  0  0  0  0  0  0  0  0  0  0  0
   15.2966   -9.1785   15.7794 C   0  0  0  0  0  0  0  0  0  0  0  0
   15.1358   -8.0114   17.9739 C   0  0  0  0  0  0  0  0  0  0  0  0
   14.0298   -7.2971   17.6955 N   0  0  0  0  0  0  0  0  0  0  0  0
   13.9231   -6.4401   18.6975 N   0  0  0  0  0  0  0  0  0  0  0  0
   14.9186   -6.6220   19.5505 N   0  0  0  0  0  0  0  0  0  0  0  0
   15.6992   -7.6017   19.1253 N   0  0  0  0  0  0  0  0  0  0  0  0
   16.5120   -7.9531   19.5557 H   0  0  0  0  0  0  0  0  0  0  0  0
  8  9  1  0  0  0
  9 10  2  0  0  0
 10 11  1  0  0  0
 11 12  2  0  0  0
 12  1  1  0  0  0
  1  2  2  0  0  0
  2  3  1  0  0  0
  3  4  2  0  0  0
  4 17  1  0  0  0
 17 18  1  0  0  0
 18 19  1  0  0  0
 19 20  1  0  0  0
  4  5  1  0  0  0
  5 21  1  0  0  0
 21 22  1  0  0  0
 22 23  1  0  0  0
 23 24  2  0  0  0
 24 25  1  0  0  0
 25 26  2  0  0  0
 26 27  1  0  0  0
 27 29  1  0  0  0
 29 30  2  0  0  0
 30 31  1  0  0  0
 31 32  2  0  0  0
 32 33  1  0  0  0
 27 28  2  0  0  0
  5  6  2  0  0  0
  6  7  1  0  0  0
 12 13  1  0  0  0
 13 14  2  0  0  0
 14  9  1  0  0  0
  6  1  1  0  0  0
 20 17  1  0  0  0
 28 23  1  0  0  0
 33 29  1  0  0  0
  8 15  1  0  0  0
  8 16  1  0  0  0
 33 34  1  0  0  0
M  END
>  <minimizedAffinity>
-0.39145

>  <minimizedRMSD>
2.96726

$$$$
CHEMBL1965229 PubChem-403976


 29 32  0  0  0  0  0  0  0  0999 V2000
   19.3501  -10.6336   14.2408 O   0  0  0  0  0  0  0  0  0  0  0  0
   18.4226   -9.8981   13.8028 C   0  0  0  0  0  0  0  0  0  0  0  0
   17.4879   -9.3248   14.7231 N   0  0  0  0  0  0  0  0  0  0  0  0
   16.7501   -8.7793   14.3662 H   0  0  0  0  0  0  0  0  0  0  0  0
   18.3153   -9.6483   12.3419 C   0  0  0  0  0  0  0  0  0  0  0  0
   17.1031   -9.7682   11.6178 C   0  0  0  0  0  0  0  0  0  0  0  0
   15.9390  -10.1236   12.2292 N   0  0  0  0  0  0  0  0  0  0  0  0
   14.7781  -10.2369   11.5347 C   0  0  0  0  0  0  0  0  0  0  0  0
   14.7712   -9.9817   10.1484 C   0  0  0  0  0  0  0  0  0  0  0  0
   15.9253   -9.6257    9.5291 N   0  0  0  0  0  0  0  0  0  0  0  0
   17.0876   -9.5119   10.2243 C   0  0  0  0  0  0  0  0  0  0  0  0
   18.2586   -9.1419    9.5636 C   0  0  0  0  0  0  0  0  0  0  0  0
   19.4516   -9.0223   10.2745 C   0  0  0  0  0  0  0  0  0  0  0  0
   19.4772   -9.2726   11.6478 C   0  0  0  0  0  0  0  0  0  0  0  0
   13.5820  -10.0955    9.4233 C   0  0  0  0  0  0  0  0  0  0  0  0
   12.4010  -10.4628   10.0771 C   0  0  0  0  0  0  0  0  0  0  0  0
   12.4080  -10.7161   11.4536 C   0  0  0  0  0  0  0  0  0  0  0  0
   13.5961  -10.6035   12.1835 C   0  0  0  0  0  0  0  0  0  0  0  0
   17.5809   -9.5130   16.1629 C   0  0  0  0  0  0  0  0  0  0  0  0
   16.2357   -9.2445   16.8087 C   0  0  0  0  0  0  0  0  0  0  0  0
   16.3899   -8.1715   17.8736 C   0  0  0  0  0  0  0  0  0  0  0  0
   15.0872   -7.7974   18.5123 C   0  0  0  0  0  0  0  0  0  0  0  0
   14.0317   -7.3519   17.7782 N   0  0  0  0  0  0  0  0  0  0  0  0
   12.8628   -7.0194   18.3816 C   0  0  0  0  0  0  0  0  0  0  0  0
   11.8917   -6.6084   17.6957 O   0  0  0  0  0  0  0  0  0  0  0  0
   12.7466   -7.1324   19.7298 N   0  0  0  0  0  0  0  0  0  0  0  0
   13.7694   -7.5669   20.4674 N   0  0  0  0  0  0  0  0  0  0  0  0
   14.9522   -7.9077   19.8945 C   0  0  0  0  0  0  0  0  0  0  0  0
   11.8985   -6.8910   20.1674 H   0  0  0  0  0  0  0  0  0  0  0  0
  1  2  2  0  0  0
  2  3  1  0  0  0
  3 19  1  0  0  0
 19 20  1  0  0  0
 20 21  1  0  0  0
 21 22  1  0  0  0
 22 23  2  0  0  0
 23 24  1  0  0  0
 24 25  2  0  0  0
 24 26  1  0  0  0
 26 27  1  0  0  0
 27 28  2  0  0  0
  2  5  1  0  0  0
  5  6  1  0  0  0
  6  7  2  0  0  0
  7  8  1  0  0  0
  8  9  2  0  0  0
  9 10  1  0  0  0
 10 11  2  0  0  0
 11 12  1  0  0  0
 12 13  2  0  0  0
 13 14  1  0  0  0
  9 15  1  0  0  0
 15 16  2  0  0  0
 16 17  1  0  0  0
 17 18  2  0  0  0
 28 22  1  0  0  0
 14  5  2  0  0  0
 11  6  1  0  0  0
 18  8  1  0  0  0
  3  4  1  0  0  0
 26 29  1  0  0  0
M  END
>  <minimizedAffinity>
1.02095

>  <minimizedRMSD>
2.96900

$$$$
CHEMBL3397314 PubChem-118726583


 40 44  0  0  0  0  0  0  0  0999 V2000
   16.9924   -9.2657   10.7646 C   0  0  0  0  0  0  0  0  0  0  0  0
   15.9331  -10.2402   11.2191 C   0  0  0  0  0  0  0  0  0  0  0  0
   16.4358  -10.7066   12.5643 C   0  0  0  0  0  0  0  0  0  0  0  0
   17.8182  -10.0983   12.6694 C   0  0  0  0  0  0  0  0  0  0  0  0
   18.1938   -9.5850   11.4157 O   0  0  0  0  0  0  0  0  0  0  0  0
   15.6427  -10.2324   13.6129 O   0  0  0  0  0  0  0  0  0  0  0  0
   14.6959   -9.5964   11.3059 O   0  0  0  0  0  0  0  0  0  0  0  0
   15.6225   -9.2629   13.5903 H   0  0  0  0  0  0  0  0  0  0  0  0
   14.7681   -8.8365   11.9044 H   0  0  0  0  0  0  0  0  0  0  0  0
   17.1652   -9.3417    9.3197 N   0  0  0  0  0  0  0  0  0  0  0  0
   18.0073   -8.6327    8.5638 C   0  0  0  0  0  0  0  0  0  0  0  0
   17.8211   -8.9528    7.2657 C   0  0  0  0  0  0  0  0  0  0  0  0
   16.8466   -9.8736    7.1424 N   0  0  0  0  0  0  0  0  0  0  0  0
   16.4578  -10.0888    8.4317 C   0  0  0  0  0  0  0  0  0  0  0  0
   18.5834   -8.3345    6.2851 C   0  0  0  0  0  0  0  0  0  0  0  0
   19.5072   -7.4107    6.6844 N   0  0  0  0  0  0  0  0  0  0  0  0
   19.6760   -7.1010    8.0111 C   0  0  0  0  0  0  0  0  0  0  0  0
   18.9182   -7.7151    8.9703 N   0  0  0  0  0  0  0  0  0  0  0  0
   18.4143   -8.6445    4.9063 N   0  0  0  0  0  0  0  0  0  0  0  0
   17.7453   -9.3120    4.6303 H   0  0  0  0  0  0  0  0  0  0  0  0
   18.9662   -8.1914    4.2286 H   0  0  0  0  0  0  0  0  0  0  0  0
   18.8103  -11.1579   13.1162 C   0  0  0  0  0  0  0  0  0  0  0  0
   18.8166  -11.3023   14.9298 S   0  0  0  0  0  0  0  0  0  0  0  0
   19.2454   -9.5499   15.1729 C   0  0  0  0  0  0  0  0  0  0  0  0
   18.3830   -8.9297   16.2628 C   0  0  0  0  0  0  0  0  0  0  0  0
   17.0182   -9.6024   16.3559 C   0  0  0  0  0  0  0  0  0  0  0  0
   16.9726  -10.4681   17.5210 N   0  0  0  0  0  0  0  0  0  0  0  0
   17.1027   -9.9098   18.3647 H   0  0  0  0  0  0  0  0  0  0  0  0
   17.7150  -11.1645   17.4564 H   0  0  0  0  0  0  0  0  0  0  0  0
   15.9012   -8.6017   16.4104 C   0  0  0  0  0  0  0  0  0  0  0  0
   15.4297   -8.1704   15.3249 O   0  0  0  0  0  0  0  0  0  0  0  0
   15.3629   -8.1316   17.6558 N   0  0  0  0  0  0  0  0  0  0  0  0
   15.8084   -8.5826   18.9749 C   0  0  0  0  0  0  0  0  0  0  0  0
   14.9528   -7.7998   19.8937 C   0  0  0  0  0  0  0  0  0  0  0  0
   14.0986   -6.9813   19.1930 C   0  0  0  0  0  0  0  0  0  0  0  0
   14.2968   -7.1333   17.7344 C   0  0  0  0  0  0  0  0  0  0  0  0
   13.1944   -6.1454   19.8472 C   0  0  0  0  0  0  0  0  0  0  0  0
   13.1733   -6.1577   21.2512 C   0  0  0  0  0  0  0  0  0  0  0  0
   14.0473   -6.9965   21.9686 C   0  0  0  0  0  0  0  0  0  0  0  0
   14.9499   -7.8292   21.2877 C   0  0  0  0  0  0  0  0  0  0  0  0
  1 10  1  0  0  0
  1  2  1  0  0  0
  2  3  1  0  0  0
  3  4  1  0  0  0
  4  5  1  0  0  0
  4 22  1  0  0  0
 22 23  1  0  0  0
 23 24  1  0  0  0
 24 25  1  0  0  0
 25 26  1  0  0  0
 26 30  1  0  0  0
 30 31  2  0  0  0
 30 32  1  0  0  0
 32 33  1  0  0  0
 33 34  1  0  0  0
 34 35  2  0  0  0
 35 36  1  0  0  0
 35 37  1  0  0  0
 37 38  2  0  0  0
 38 39  1  0  0  0
 39 40  2  0  0  0
 26 27  1  0  0  0
  3  6  1  0  0  0
  2  7  1  0  0  0
 10 11  1  0  0  0
 11 12  2  0  0  0
 12 13  1  0  0  0
 13 14  2  0  0  0
 12 15  1  0  0  0
 15 16  2  0  0  0
 16 17  1  0  0  0
 17 18  2  0  0  0
 15 19  1  0  0  0
 14 10  1  0  0  0
  5  1  1  0  0  0
 36 32  1  0  0  0
 18 11  1  0  0  0
 40 34  1  0  0  0
 27 28  1  0  0  0
 27 29  1  0  0  0
  6  8  1  0  0  0
  7  9  1  0  0  0
 19 20  1  0  0  0
 19 21  1  0  0  0
M  END
>  <minimizedAffinity>
-6.33654

>  <minimizedRMSD>
2.97040

$$$$
CHEMBL5287388


 33 37  0  0  0  0  0  0  0  0999 V2000
   16.7593   -9.5969   15.1579 C   0  0  0  0  0  0  0  0  0  0  0  0
   17.5926   -8.9245   14.0574 C   0  0  0  0  0  0  0  0  0  0  0  0
   17.9927   -9.8863   13.0280 N   0  0  0  0  0  0  0  0  0  0  0  0
   18.6264  -11.1539   13.4203 C   0  0  0  0  0  0  0  0  0  0  0  0
   18.5512  -11.3946   14.9276 C   0  0  0  0  0  0  0  0  0  0  0  0
   17.1453  -11.0750   15.4147 C   0  0  0  0  0  0  0  0  0  0  0  0
   16.9406  -11.5408   16.8477 C   0  0  0  0  0  0  0  0  0  0  0  0
   17.9103   -9.5379   11.6308 C   0  0  0  0  0  0  0  0  0  0  0  0
   16.8301   -9.8586   10.8633 N   0  0  0  0  0  0  0  0  0  0  0  0
   16.7414   -9.5439    9.5680 C   0  0  0  0  0  0  0  0  0  0  0  0
   17.7330   -8.8797    8.9274 N   0  0  0  0  0  0  0  0  0  0  0  0
   18.8475   -8.5279    9.6312 C   0  0  0  0  0  0  0  0  0  0  0  0
   18.9624   -8.8516   10.9961 C   0  0  0  0  0  0  0  0  0  0  0  0
   19.9509   -7.8008    8.9516 C   0  0  0  0  0  0  0  0  0  0  0  0
   15.6014   -9.9766    9.0033 N   0  0  0  0  0  0  0  0  0  0  0  0
   15.0097  -10.5812   10.0660 C   0  0  0  0  0  0  0  0  0  0  0  0
   15.7440  -10.5253   11.2020 N   0  0  0  0  0  0  0  0  0  0  0  0
   13.4157  -11.3863    9.9721 S   0  0  0  0  0  0  0  0  0  0  0  0
   12.6860  -10.3067   11.2443 C   0  0  0  0  0  0  0  0  0  0  0  0
   12.0205   -9.1225   10.6217 C   0  0  0  0  0  0  0  0  0  0  0  0
   10.7081   -9.1163   10.4029 C   0  0  0  0  0  0  0  0  0  0  0  0
   16.7291   -8.7699   16.3682 N   0  0  0  0  0  0  0  0  0  0  0  0
   18.0119   -8.5503   17.0189 C   0  0  0  0  0  0  0  0  0  0  0  0
   15.4960   -8.2447   16.9168 C   0  0  0  0  0  0  0  0  0  0  0  0
   15.3454   -7.8995   18.2683 C   0  0  0  0  0  0  0  0  0  0  0  0
   14.1602   -7.4039   18.7162 C   0  0  0  0  0  0  0  0  0  0  0  0
   14.1909   -7.1196   20.0246 N   0  0  0  0  0  0  0  0  0  0  0  0
   15.4479   -7.4495   20.4103 C   0  0  0  0  0  0  0  0  0  0  0  0
   16.2053   -7.9396   19.3443 C   0  0  0  0  0  0  0  0  0  0  0  0
   13.0970   -7.2241   17.8976 N   0  0  0  0  0  0  0  0  0  0  0  0
   13.2286   -7.5533   16.5807 C   0  0  0  0  0  0  0  0  0  0  0  0
   14.4107   -8.0529   16.1060 N   0  0  0  0  0  0  0  0  0  0  0  0
   13.4651   -6.7539   20.5802 H   0  0  0  0  0  0  0  0  0  0  0  0
 24 25  1  0  0  0
 25 26  2  0  0  0
 26 27  1  0  0  0
 27 28  1  0  0  0
 28 29  2  0  0  0
 26 30  1  0  0  0
 30 31  2  0  0  0
 31 32  1  0  0  0
 24 22  1  0  0  0
  1 22  1  0  0  0
  1  2  1  0  0  0
  2  3  1  0  0  0
  3  8  1  0  0  0
  8  9  1  0  0  0
  9 10  1  0  0  0
 10 11  1  0  0  0
 11 12  2  0  0  0
 12 13  1  0  0  0
 12 14  1  0  0  0
 10 15  2  0  0  0
 15 16  1  0  0  0
 16 17  2  0  0  0
 16 18  1  0  0  0
 18 19  1  0  0  0
 19 20  1  0  0  0
 20 21  2  0  0  0
  3  4  1  0  0  0
  4  5  1  0  0  0
  5  6  1  0  0  0
  6  7  1  0  0  0
 22 23  1  0  0  0
 32 24  2  0  0  0
  6  1  1  0  0  0
 29 25  1  0  0  0
 13  8  2  0  0  0
 17  9  1  0  0  0
 27 33  1  0  0  0
M  END
>  <minimizedAffinity>
4.37272

>  <minimizedRMSD>
2.97188

$$$$
CHEMBL5274962


 30 34  0  0  0  0  0  0  0  0999 V2000
   16.3747   -9.5722   15.7563 C   0  0  0  0  0  0  0  0  0  0  0  0
   16.6211   -8.9135   14.3908 C   0  0  0  0  0  0  0  0  0  0  0  0
   17.0413   -9.8972   13.3879 N   0  0  0  0  0  0  0  0  0  0  0  0
   18.1346  -10.8303   13.6934 C   0  0  0  0  0  0  0  0  0  0  0  0
   18.5279  -10.7979   15.1692 C   0  0  0  0  0  0  0  0  0  0  0  0
   17.2676  -10.8095   16.0207 C   0  0  0  0  0  0  0  0  0  0  0  0
   17.5960  -11.0473   17.4863 C   0  0  0  0  0  0  0  0  0  0  0  0
   16.4840   -9.8329   12.0589 C   0  0  0  0  0  0  0  0  0  0  0  0
   17.2472   -9.5700   10.9600 N   0  0  0  0  0  0  0  0  0  0  0  0
   16.7468   -9.5163    9.7257 C   0  0  0  0  0  0  0  0  0  0  0  0
   15.4307   -9.7222    9.4799 N   0  0  0  0  0  0  0  0  0  0  0  0
   14.6011   -9.9871   10.5309 C   0  0  0  0  0  0  0  0  0  0  0  0
   15.1114  -10.0569   11.8420 C   0  0  0  0  0  0  0  0  0  0  0  0
   17.6856   -9.2701    8.7985 N   0  0  0  0  0  0  0  0  0  0  0  0
   18.8063   -9.1802    9.5640 C   0  0  0  0  0  0  0  0  0  0  0  0
   18.5474   -9.3663   10.8825 N   0  0  0  0  0  0  0  0  0  0  0  0
   13.1545  -10.2387   10.2870 C   0  0  0  0  0  0  0  0  0  0  0  0
   12.5464  -10.9618   11.4729 C   0  0  0  0  0  0  0  0  0  0  0  0
   16.4075   -8.5749   16.8306 N   0  0  0  0  0  0  0  0  0  0  0  0
   17.7293   -8.2024   17.3116 C   0  0  0  0  0  0  0  0  0  0  0  0
   15.2017   -8.0267   17.4161 C   0  0  0  0  0  0  0  0  0  0  0  0
   15.0903   -7.7049   18.7770 C   0  0  0  0  0  0  0  0  0  0  0  0
   13.9300   -7.1850   19.2608 C   0  0  0  0  0  0  0  0  0  0  0  0
   13.9975   -6.9272   20.5733 N   0  0  0  0  0  0  0  0  0  0  0  0
   15.2529   -7.2996   20.9242 C   0  0  0  0  0  0  0  0  0  0  0  0
   15.9725   -7.7897   19.8322 C   0  0  0  0  0  0  0  0  0  0  0  0
   12.8549   -6.9585   18.4696 N   0  0  0  0  0  0  0  0  0  0  0  0
   12.9486   -7.2645   17.1439 C   0  0  0  0  0  0  0  0  0  0  0  0
   14.1053   -7.7876   16.6333 N   0  0  0  0  0  0  0  0  0  0  0  0
   13.2949   -6.5522   21.1521 H   0  0  0  0  0  0  0  0  0  0  0  0
 21 22  1  0  0  0
 22 23  2  0  0  0
 23 24  1  0  0  0
 24 25  1  0  0  0
 25 26  2  0  0  0
 23 27  1  0  0  0
 27 28  2  0  0  0
 28 29  1  0  0  0
 21 19  1  0  0  0
  1 19  1  0  0  0
  1  2  1  0  0  0
  2  3  1  0  0  0
  3  8  1  0  0  0
  8  9  1  0  0  0
  9 10  1  0  0  0
 10 11  1  0  0  0
 11 12  2  0  0  0
 12 13  1  0  0  0
 12 17  1  0  0  0
 17 18  1  0  0  0
 10 14  2  0  0  0
 14 15  1  0  0  0
 15 16  2  0  0  0
  3  4  1  0  0  0
  4  5  1  0  0  0
  5  6  1  0  0  0
  6  7  1  0  0  0
 19 20  1  0  0  0
 29 21  2  0  0  0
  6  1  1  0  0  0
 26 22  1  0  0  0
 13  8  2  0  0  0
 16  9  1  0  0  0
 24 30  1  0  0  0
M  END
>  <minimizedAffinity>
-2.93618

>  <minimizedRMSD>
2.97789

$$$$
CHEMBL1702410 10702314 CSC026378937 MCULE-4363723484 MolPort-009-505-046 PubChem-24980102 Z30341788 ZINC000010702314


 34 36  0  0  0  0  0  0  0  0999 V2000
   18.3356  -10.3257   12.9499 N   0  0  0  0  0  0  0  0  0  0  0  0
   18.5107   -9.7211   11.6545 C   0  0  0  0  0  0  0  0  0  0  0  0
   19.6534   -9.3451   11.2789 O   0  0  0  0  0  0  0  0  0  0  0  0
   19.4114   -9.6673   15.0386 C   0  0  0  0  0  0  0  0  0  0  0  0
   19.4804  -10.5656   13.8176 C   0  0  0  0  0  0  0  0  0  0  0  0
   17.3613   -9.5607   10.7173 C   0  0  0  0  0  0  0  0  0  0  0  0
   17.7088  -10.4257    9.1587 S   0  0  0  0  0  0  0  0  0  0  0  0
   17.1727   -9.0204    8.1844 C   0  0  0  0  0  0  0  0  0  0  0  0
   18.0380   -8.2769    7.3600 C   0  0  0  0  0  0  0  0  0  0  0  0
   17.5032   -7.2061    6.6623 C   0  0  0  0  0  0  0  0  0  0  0  0
   18.6762   -6.4398    5.7423 S   0  0  0  0  0  0  0  0  0  0  0  0
   19.9144   -7.4812    6.2247 C   0  0  0  0  0  0  0  0  0  0  0  0
   19.4184   -8.4390    7.1140 C   0  0  0  0  0  0  0  0  0  0  0  0
   20.2873   -9.4936    7.7156 C   0  0  0  0  0  0  0  0  0  0  0  0
   21.3247   -7.3722    5.7581 C   0  0  0  0  0  0  0  0  0  0  0  0
   16.1967   -6.8619    6.7438 N   0  0  0  0  0  0  0  0  0  0  0  0
   15.3733   -7.5925    7.5437 C   0  0  0  0  0  0  0  0  0  0  0  0
   15.8604   -8.6542    8.2489 N   0  0  0  0  0  0  0  0  0  0  0  0
   17.0520  -10.8826   13.3596 C   0  0  0  0  0  0  0  0  0  0  0  0
   16.2751   -9.8802   14.1425 C   0  0  0  0  0  0  0  0  0  0  0  0
   16.3532   -9.8952   15.5736 N   0  0  0  0  0  0  0  0  0  0  0  0
   15.5740   -9.0280   13.5353 O   0  0  0  0  0  0  0  0  0  0  0  0
   16.9108  -10.5985   15.9782 H   0  0  0  0  0  0  0  0  0  0  0  0
   15.7028   -8.9912   16.4761 C   0  0  0  0  0  0  0  0  0  0  0  0
   16.2993   -8.7312   17.7138 C   0  0  0  0  0  0  0  0  0  0  0  0
   15.6949   -7.8563   18.6210 C   0  0  0  0  0  0  0  0  0  0  0  0
   14.4871   -7.2281   18.3016 C   0  0  0  0  0  0  0  0  0  0  0  0
   13.8904   -7.4826   17.0582 C   0  0  0  0  0  0  0  0  0  0  0  0
   14.4942   -8.3580   16.1518 C   0  0  0  0  0  0  0  0  0  0  0  0
   13.8943   -6.3437   19.2616 N   0  0  0  0  0  0  0  0  0  0  0  0
   13.0204   -6.7060   20.3379 C   0  0  0  0  0  0  0  0  0  0  0  0
   12.4962   -5.6455   21.2367 C   0  0  0  0  0  0  0  0  0  0  0  0
   12.6890   -7.9048   20.5380 O   0  0  0  0  0  0  0  0  0  0  0  0
   14.1102   -5.3873   19.1720 H   0  0  0  0  0  0  0  0  0  0  0  0
  4  5  1  0  0  0
  5  1  1  0  0  0
  1  2  1  0  0  0
  2  6  1  0  0  0
  6  7  1  0  0  0
  7  8  1  0  0  0
  8  9  1  0  0  0
  9 10  2  0  0  0
 10 11  1  0  0  0
 11 12  1  0  0  0
 12 13  2  0  0  0
 13 14  1  0  0  0
 12 15  1  0  0  0
 10 16  1  0  0  0
 16 17  2  0  0  0
 17 18  1  0  0  0
  2  3  2  0  0  0
  1 19  1  0  0  0
 19 20  1  0  0  0
 20 21  1  0  0  0
 21 24  1  0  0  0
 24 25  2  0  0  0
 25 26  1  0  0  0
 26 27  2  0  0  0
 27 30  1  0  0  0
 30 31  1  0  0  0
 31 32  1  0  0  0
 31 33  2  0  0  0
 27 28  1  0  0  0
 28 29  2  0  0  0
 20 22  2  0  0  0
 18  8  2  0  0  0
 29 24  1  0  0  0
 13  9  1  0  0  0
 21 23  1  0  0  0
 30 34  1  0  0  0
M  END
>  <minimizedAffinity>
5.66204

>  <minimizedRMSD>
2.98665

$$$$
CHEMBL3289987 PubChem-56944189


 33 37  0  0  0  0  0  0  0  0999 V2000
   17.5174   -8.7017   16.2592 C   0  0  0  0  0  0  0  0  0  0  0  0
   16.2277   -9.1813   16.9129 C   0  0  0  0  0  0  0  0  0  0  0  0
   15.3714   -8.0100   17.3661 C   0  0  0  0  0  0  0  0  0  0  0  0
   15.4076   -7.8978   18.8157 N   0  0  0  0  0  0  0  0  0  0  0  0
   15.5611   -8.8165   19.2315 H   0  0  0  0  0  0  0  0  0  0  0  0
   13.8818   -7.2639   19.3327 S   0  0  0  0  0  0  0  0  0  0  0  0
   12.8406   -8.3462   19.2597 O   0  0  0  0  0  0  0  0  0  0  0  0
   13.4779   -6.1334   18.4297 O   0  0  0  0  0  0  0  0  0  0  0  0
   14.0008   -6.6704   20.9831 C   0  0  0  0  0  0  0  0  0  0  0  0
   12.9403   -6.3320   21.8099 C   0  0  0  0  0  0  0  0  0  0  0  0
   13.4375   -5.9261   23.0064 N   0  0  0  0  0  0  0  0  0  0  0  0
   14.7739   -6.0323   22.8656 C   0  0  0  0  0  0  0  0  0  0  0  0
   15.1425   -6.4784   21.6562 N   0  0  0  0  0  0  0  0  0  0  0  0
   16.4335   -6.6671   21.2832 C   0  0  0  0  0  0  0  0  0  0  0  0
   17.4359   -6.3771   22.2199 C   0  0  0  0  0  0  0  0  0  0  0  0
   17.0748   -5.9070   23.4974 C   0  0  0  0  0  0  0  0  0  0  0  0
   15.7238   -5.7276   23.8375 C   0  0  0  0  0  0  0  0  0  0  0  0
   17.3769   -8.6349   14.7443 C   0  0  0  0  0  0  0  0  0  0  0  0
   16.6189   -9.7779   14.2540 N   0  0  0  0  0  0  0  0  0  0  0  0
   17.5602  -10.7163   13.6160 C   0  0  0  0  0  0  0  0  0  0  0  0
   17.9469  -10.3031   12.1913 C   0  0  0  0  0  0  0  0  0  0  0  0
   16.7560  -10.0256   11.3896 N   0  0  0  0  0  0  0  0  0  0  0  0
   15.4512  -10.0090   12.0398 C   0  0  0  0  0  0  0  0  0  0  0  0
   15.5677   -9.2537   13.3627 C   0  0  0  0  0  0  0  0  0  0  0  0
   16.8499   -9.7665    9.9804 C   0  0  0  0  0  0  0  0  0  0  0  0
   16.0199  -10.3069    9.0556 N   0  0  0  0  0  0  0  0  0  0  0  0
   16.3921   -9.8546    7.8864 O   0  0  0  0  0  0  0  0  0  0  0  0
   17.4194   -9.0506    8.0153 C   0  0  0  0  0  0  0  0  0  0  0  0
   17.7597   -8.9537    9.3351 C   0  0  0  0  0  0  0  0  0  0  0  0
   18.8207   -8.1627    9.7716 C   0  0  0  0  0  0  0  0  0  0  0  0
   19.5420   -7.4555    8.7914 C   0  0  0  0  0  0  0  0  0  0  0  0
   19.1900   -7.5560    7.4260 C   0  0  0  0  0  0  0  0  0  0  0  0
   18.1115   -8.3651    7.0208 C   0  0  0  0  0  0  0  0  0  0  0  0
  6  7  2  0  0  0
  6  8  2  0  0  0
  6  4  1  0  0  0
  4  3  1  0  0  0
  3  2  1  0  0  0
  2  1  1  0  0  0
  1 18  1  0  0  0
 18 19  1  0  0  0
 19 20  1  0  0  0
 20 21  1  0  0  0
 21 22  1  0  0  0
 22 23  1  0  0  0
 23 24  1  0  0  0
 22 25  1  0  0  0
 25 26  2  0  0  0
 26 27  1  0  0  0
 27 28  1  0  0  0
 28 29  2  0  0  0
 29 30  1  0  0  0
 30 31  2  0  0  0
 31 32  1  0  0  0
 32 33  2  0  0  0
  6  9  1  0  0  0
  9 10  2  0  0  0
 10 11  1  0  0  0
 11 12  2  0  0  0
 12 13  1  0  0  0
 13 14  1  0  0  0
 14 15  2  0  0  0
 15 16  1  0  0  0
 16 17  2  0  0  0
 24 19  1  0  0  0
 29 25  1  0  0  0
 13  9  1  0  0  0
 33 28  1  0  0  0
 17 12  1  0  0  0
  4  5  1  0  0  0
M  END
>  <minimizedAffinity>
-9.93100

>  <minimizedRMSD>
2.99665

$$$$
CHEMBL5266223


 32 36  0  0  0  0  0  0  0  0999 V2000
   16.2149   -9.5026   15.9032 C   0  0  0  0  0  0  0  0  0  0  0  0
   16.4370   -8.8380   14.5352 C   0  0  0  0  0  0  0  0  0  0  0  0
   16.8838   -9.8062   13.5264 N   0  0  0  0  0  0  0  0  0  0  0  0
   18.0024  -10.7098   13.8321 C   0  0  0  0  0  0  0  0  0  0  0  0
   18.3819  -10.6856   15.3105 C   0  0  0  0  0  0  0  0  0  0  0  0
   17.1099  -10.7426   16.1405 C   0  0  0  0  0  0  0  0  0  0  0  0
   17.4166  -11.0265   17.6018 C   0  0  0  0  0  0  0  0  0  0  0  0
   16.3015   -9.7675   12.2040 C   0  0  0  0  0  0  0  0  0  0  0  0
   17.0086   -9.3893   11.0993 N   0  0  0  0  0  0  0  0  0  0  0  0
   16.4790   -9.3607    9.8728 C   0  0  0  0  0  0  0  0  0  0  0  0
   15.1897   -9.7084    9.6459 N   0  0  0  0  0  0  0  0  0  0  0  0
   14.4188  -10.0943   10.7027 C   0  0  0  0  0  0  0  0  0  0  0  0
   14.9573  -10.1362   12.0017 C   0  0  0  0  0  0  0  0  0  0  0  0
   13.0007  -10.4786   10.4809 C   0  0  0  0  0  0  0  0  0  0  0  0
   17.3571   -8.9734    8.9329 N   0  0  0  0  0  0  0  0  0  0  0  0
   18.4628   -8.7680    9.6936 C   0  0  0  0  0  0  0  0  0  0  0  0
   18.2708   -9.0207   11.0094 N   0  0  0  0  0  0  0  0  0  0  0  0
   20.0269   -8.2284    9.0211 S   0  0  0  0  0  0  0  0  0  0  0  0
   19.2686   -7.5904    7.5619 C   0  0  0  0  0  0  0  0  0  0  0  0
   18.7525   -7.1506    6.5663 C   0  0  0  0  0  0  0  0  0  0  0  0
   16.2871   -8.5139   16.9816 N   0  0  0  0  0  0  0  0  0  0  0  0
   17.6188   -8.1072   17.4032 C   0  0  0  0  0  0  0  0  0  0  0  0
   15.1060   -7.9663   17.6079 C   0  0  0  0  0  0  0  0  0  0  0  0
   15.0626   -7.6265   18.9642 C   0  0  0  0  0  0  0  0  0  0  0  0
   13.9398   -7.0688   19.4906 C   0  0  0  0  0  0  0  0  0  0  0  0
   14.0838   -6.7667   20.7879 N   0  0  0  0  0  0  0  0  0  0  0  0
   15.3504   -7.1517   21.0819 C   0  0  0  0  0  0  0  0  0  0  0  0
   16.0017   -7.6933   19.9700 C   0  0  0  0  0  0  0  0  0  0  0  0
   12.8370   -6.8258   18.7442 N   0  0  0  0  0  0  0  0  0  0  0  0
   12.8646   -7.1540   17.4201 C   0  0  0  0  0  0  0  0  0  0  0  0
   13.9864   -7.7089   16.8663 N   0  0  0  0  0  0  0  0  0  0  0  0
   13.4210   -6.3583   21.3906 H   0  0  0  0  0  0  0  0  0  0  0  0
 23 24  1  0  0  0
 24 25  2  0  0  0
 25 26  1  0  0  0
 26 27  1  0  0  0
 27 28  2  0  0  0
 25 29  1  0  0  0
 29 30  2  0  0  0
 30 31  1  0  0  0
 23 21  1  0  0  0
  1 21  1  0  0  0
  1  2  1  0  0  0
  2  3  1  0  0  0
  3  8  1  0  0  0
  8  9  1  0  0  0
  9 10  1  0  0  0
 10 11  1  0  0  0
 11 12  2  0  0  0
 12 13  1  0  0  0
 12 14  1  0  0  0
 10 15  2  0  0  0
 15 16  1  0  0  0
 16 17  2  0  0  0
 16 18  1  0  0  0
 18 19  1  0  0  0
 19 20  3  0  0  0
  3  4  1  0  0  0
  4  5  1  0  0  0
  5  6  1  0  0  0
  6  7  1  0  0  0
 21 22  1  0  0  0
 31 23  2  0  0  0
  6  1  1  0  0  0
 28 24  1  0  0  0
 13  8  2  0  0  0
 17  9  1  0  0  0
 26 32  1  0  0  0
M  END
>  <minimizedAffinity>
-3.39799

>  <minimizedRMSD>
3.00409

$$$$
CHEMBL3928129 PubChem-89743543


 34 38  0  0  0  0  0  0  0  0999 V2000
   18.5241  -12.0650   16.6155 C   0  0  0  0  0  0  0  0  0  0  0  0
   17.9925  -11.1319   15.6344 N   0  0  0  0  0  0  0  0  0  0  0  0
   16.8708  -10.2927   15.9870 C   0  0  0  0  0  0  0  0  0  0  0  0
   15.7556  -10.1772   15.1426 C   0  0  0  0  0  0  0  0  0  0  0  0
   14.6884   -9.3590   15.5116 C   0  0  0  0  0  0  0  0  0  0  0  0
   14.7337   -8.6613   16.7191 C   0  0  0  0  0  0  0  0  0  0  0  0
   15.8570   -8.7915   17.5374 C   0  0  0  0  0  0  0  0  0  0  0  0
   16.8868   -9.5953   17.1596 N   0  0  0  0  0  0  0  0  0  0  0  0
   13.4137   -7.6039   17.1895 S   0  0  0  0  0  0  0  0  0  0  0  0
   12.1198   -8.1724   16.6791 O   0  0  0  0  0  0  0  0  0  0  0  0
   13.6119   -6.2411   16.5855 O   0  0  0  0  0  0  0  0  0  0  0  0
   13.3409   -7.4739   18.9158 N   0  0  0  0  0  0  0  0  0  0  0  0
   13.8236   -8.2645   19.3428 H   0  0  0  0  0  0  0  0  0  0  0  0
   13.9921   -6.2296   19.3033 C   0  0  0  0  0  0  0  0  0  0  0  0
   12.9605   -5.1021   19.3794 C   0  0  0  0  0  0  0  0  0  0  0  0
   12.1198   -5.2480   20.6504 C   0  0  0  0  0  0  0  0  0  0  0  0
   12.9528   -5.2108   21.7828 O   0  0  0  0  0  0  0  0  0  0  0  0
   13.6823   -6.4129   21.7848 C   0  0  0  0  0  0  0  0  0  0  0  0
   14.7063   -6.4026   20.6475 C   0  0  0  0  0  0  0  0  0  0  0  0
   18.6546  -11.1098   14.3284 C   0  0  0  0  0  0  0  0  0  0  0  0
   19.4986   -9.8549   14.1420 C   0  0  0  0  0  0  0  0  0  0  0  0
   19.2013   -9.3494   12.7425 C   0  0  0  0  0  0  0  0  0  0  0  0
   18.0674  -10.1201   12.2646 N   0  0  0  0  0  0  0  0  0  0  0  0
   17.6553  -11.1593   13.1869 C   0  0  0  0  0  0  0  0  0  0  0  0
   17.3963   -9.8993   11.0114 C   0  0  0  0  0  0  0  0  0  0  0  0
   16.1615  -10.4456   10.7936 N   0  0  0  0  0  0  0  0  0  0  0  0
   15.4872  -10.2581    9.6171 C   0  0  0  0  0  0  0  0  0  0  0  0
   16.0366   -9.5099    8.6170 N   0  0  0  0  0  0  0  0  0  0  0  0
   17.2585   -8.9618    8.8179 C   0  0  0  0  0  0  0  0  0  0  0  0
   17.9272   -8.2049    7.9385 N   0  0  0  0  0  0  0  0  0  0  0  0
   19.0823   -7.8914    8.5762 C   0  0  0  0  0  0  0  0  0  0  0  0
   19.1382   -8.4513    9.8549 C   0  0  0  0  0  0  0  0  0  0  0  0
   17.9480   -9.1337    9.9769 C   0  0  0  0  0  0  0  0  0  0  0  0
   17.6444   -7.9368    7.0344 H   0  0  0  0  0  0  0  0  0  0  0  0
  1  2  1  0  0  0
 20  2  1  0  0  0
 20 21  1  0  0  0
 21 22  1  0  0  0
 22 23  1  0  0  0
 23 24  1  0  0  0
 23 25  1  0  0  0
 25 26  2  0  0  0
 26 27  1  0  0  0
 27 28  2  0  0  0
 28 29  1  0  0  0
 29 30  1  0  0  0
 30 31  1  0  0  0
 31 32  2  0  0  0
 32 33  1  0  0  0
  2  3  1  0  0  0
  3  4  2  0  0  0
  4  5  1  0  0  0
  5  6  2  0  0  0
  6  7  1  0  0  0
  7  8  2  0  0  0
  6  9  1  0  0  0
  9 10  2  0  0  0
  9 11  2  0  0  0
  9 12  1  0  0  0
 12 14  1  0  0  0
 14 15  1  0  0  0
 15 16  1  0  0  0
 16 17  1  0  0  0
 17 18  1  0  0  0
 18 19  1  0  0  0
 24 20  1  0  0  0
 33 25  1  0  0  0
  8  3  1  0  0  0
 19 14  1  0  0  0
 33 29  2  0  0  0
 30 34  1  0  0  0
 12 13  1  0  0  0
M  END
>  <minimizedAffinity>
0.57931

>  <minimizedRMSD>
3.00531

$$$$
CHEMBL2079122 CHEMBL3217213 PubChem-70696871 PubChem-70696872 PubChem-71484568


 36 42  0  0  0  0  0  0  0  0999 V2000
   16.8325  -10.9685    7.7117 C   0  0  0  0  0  0  0  0  0  0  0  0
   17.3448   -9.7223    8.0693 C   0  0  0  0  0  0  0  0  0  0  0  0
   17.3394   -9.3220    9.4104 C   0  0  0  0  0  0  0  0  0  0  0  0
   16.7767  -10.1844   10.3829 C   0  0  0  0  0  0  0  0  0  0  0  0
   16.2929  -11.4329    9.9723 C   0  0  0  0  0  0  0  0  0  0  0  0
   16.3320  -11.7967    8.6638 N   0  0  0  0  0  0  0  0  0  0  0  0
   18.0024   -8.0477    9.7437 C   0  0  0  0  0  0  0  0  0  0  0  0
   17.4796   -6.8388    9.4166 N   0  0  0  0  0  0  0  0  0  0  0  0
   18.3252   -5.8330    9.7546 C   0  0  0  0  0  0  0  0  0  0  0  0
   18.0567   -4.4804    9.5525 C   0  0  0  0  0  0  0  0  0  0  0  0
   19.0238   -3.5393    9.9423 C   0  0  0  0  0  0  0  0  0  0  0  0
   20.2439   -3.9511   10.5247 C   0  0  0  0  0  0  0  0  0  0  0  0
   20.4978   -5.3216   10.7171 C   0  0  0  0  0  0  0  0  0  0  0  0
   19.5224   -6.2325   10.3242 C   0  0  0  0  0  0  0  0  0  0  0  0
   19.5554   -7.9051   10.4184 S   0  0  0  0  0  0  0  0  0  0  0  0
   21.2498   -2.9550   10.9283 C   0  0  0  0  0  0  0  0  0  0  0  0
   22.1101   -2.4601   10.1085 N   0  0  0  0  0  0  0  0  0  0  0  0
   22.9607   -1.5105   10.8076 C   0  0  0  0  0  0  0  0  0  0  0  0
   22.4524   -1.5105   12.2499 C   0  0  0  0  0  0  0  0  0  0  0  0
   21.3550   -2.4602   12.2503 N   0  0  0  0  0  0  0  0  0  0  0  0
   20.7938   -2.7111   13.0193 H   0  0  0  0  0  0  0  0  0  0  0  0
   16.5933   -9.8090   11.7971 C   0  0  0  0  0  0  0  0  0  0  0  0
   17.1120  -10.5307   12.8226 N   0  0  0  0  0  0  0  0  0  0  0  0
   16.7234  -10.0270   14.0209 C   0  0  0  0  0  0  0  0  0  0  0  0
   17.1073  -10.5503   15.2542 C   0  0  0  0  0  0  0  0  0  0  0  0
   16.6257   -9.9367   16.4224 C   0  0  0  0  0  0  0  0  0  0  0  0
   15.7690   -8.8162   16.3532 C   0  0  0  0  0  0  0  0  0  0  0  0
   15.3889   -8.3043   15.0976 C   0  0  0  0  0  0  0  0  0  0  0  0
   15.8827   -8.9286   13.9566 C   0  0  0  0  0  0  0  0  0  0  0  0
   15.5933   -8.5512   12.3499 S   0  0  0  0  0  0  0  0  0  0  0  0
   15.2753   -8.1929   17.5921 C   0  0  0  0  0  0  0  0  0  0  0  0
   14.1595   -7.5539   17.6557 N   0  0  0  0  0  0  0  0  0  0  0  0
   13.9553   -7.0609   19.0084 C   0  0  0  0  0  0  0  0  0  0  0  0
   15.1843   -7.5275   19.7895 C   0  0  0  0  0  0  0  0  0  0  0  0
   15.9858   -8.2448   18.8153 N   0  0  0  0  0  0  0  0  0  0  0  0
   16.8536   -8.6818   18.9740 H   0  0  0  0  0  0  0  0  0  0  0  0
  1  2  2  0  0  0
  2  3  1  0  0  0
  3  7  1  0  0  0
  3  4  2  0  0  0
  7  8  2  0  0  0
  8  9  1  0  0  0
  9 10  2  0  0  0
 10 11  1  0  0  0
 11 12  2  0  0  0
 12 16  1  0  0  0
 12 13  1  0  0  0
 16 17  2  0  0  0
 17 18  1  0  0  0
 18 19  1  0  0  0
 19 20  1  0  0  0
 20 16  1  0  0  0
 13 14  2  0  0  0
 14 15  1  0  0  0
 14  9  1  0  0  0
 15  7  1  0  0  0
  4 22  1  0  0  0
  4  5  1  0  0  0
 22 23  2  0  0  0
 23 24  1  0  0  0
 24 25  2  0  0  0
 25 26  1  0  0  0
 26 27  2  0  0  0
 27 31  1  0  0  0
 27 28  1  0  0  0
 31 32  2  0  0  0
 32 33  1  0  0  0
 33 34  1  0  0  0
 34 35  1  0  0  0
 35 31  1  0  0  0
 28 29  2  0  0  0
 29 30  1  0  0  0
 29 24  1  0  0  0
 30 22  1  0  0  0
  5  6  2  0  0  0
  6  1  1  0  0  0
 20 21  1  0  0  0
 35 36  1  0  0  0
M  END
>  <minimizedAffinity>
30.55125

>  <minimizedRMSD>
3.01024

$$$$
CHEMBL2063455 PubChem-66721774 ZINC000084653477


 37 40  0  0  0  0  0  0  0  0999 V2000
   18.6798  -10.2051   11.9919 C   0  0  0  0  0  0  0  0  0  0  0  0
   19.4414  -11.1305   12.7219 C   0  0  0  0  0  0  0  0  0  0  0  0
   19.0069  -11.5717   13.9751 C   0  0  0  0  0  0  0  0  0  0  0  0
   17.8069  -11.0921   14.5061 C   0  0  0  0  0  0  0  0  0  0  0  0
   17.0393  -10.1736   13.7826 C   0  0  0  0  0  0  0  0  0  0  0  0
   17.4784   -9.7319   12.5300 C   0  0  0  0  0  0  0  0  0  0  0  0
   18.3990   -8.7915    9.8694 C   0  0  0  0  0  0  0  0  0  0  0  0
   17.2638   -8.3555   10.2030 O   0  0  0  0  0  0  0  0  0  0  0  0
   19.0898   -9.7328   10.7017 N   0  0  0  0  0  0  0  0  0  0  0  0
   19.9357  -10.0931   10.3499 H   0  0  0  0  0  0  0  0  0  0  0  0
   16.3607  -10.0871    7.7134 N   0  0  0  0  0  0  0  0  0  0  0  0
   17.2374   -9.3089    6.9072 C   0  0  0  0  0  0  0  0  0  0  0  0
   17.1474   -9.2530    5.5610 N   0  0  0  0  0  0  0  0  0  0  0  0
   18.1757   -8.5513    5.0972 N   0  0  0  0  0  0  0  0  0  0  0  0
   18.9163   -8.1741    6.1545 C   0  0  0  0  0  0  0  0  0  0  0  0
   20.1204   -7.4785    6.1222 C   0  0  0  0  0  0  0  0  0  0  0  0
   20.7661   -7.2381    7.3456 C   0  0  0  0  0  0  0  0  0  0  0  0
   20.2001   -7.6881    8.5563 C   0  0  0  0  0  0  0  0  0  0  0  0
   18.9739   -8.3852    8.5736 C   0  0  0  0  0  0  0  0  0  0  0  0
   18.3603   -8.6208    7.3282 C   0  0  0  0  0  0  0  0  0  0  0  0
   15.5859  -10.5369    7.3052 H   0  0  0  0  0  0  0  0  0  0  0  0
   16.5288  -10.1757    8.6793 H   0  0  0  0  0  0  0  0  0  0  0  0
   18.3616   -8.3453    4.1527 H   0  0  0  0  0  0  0  0  0  0  0  0
   15.7656   -9.6489   14.3534 C   0  0  0  0  0  0  0  0  0  0  0  0
   15.8808   -9.4965   15.7976 N   0  0  0  0  0  0  0  0  0  0  0  0
   15.0826   -8.5789   16.5474 C   0  0  0  0  0  0  0  0  0  0  0  0
   14.1942   -7.8952   15.9701 O   0  0  0  0  0  0  0  0  0  0  0  0
   15.3056   -8.4568   17.9578 N   0  0  0  0  0  0  0  0  0  0  0  0
   16.5377  -10.0503   16.2782 H   0  0  0  0  0  0  0  0  0  0  0  0
   16.0077   -9.0287   18.3441 H   0  0  0  0  0  0  0  0  0  0  0  0
   14.6132   -7.5888   18.8655 C   0  0  0  0  0  0  0  0  0  0  0  0
   14.4495   -7.9969   20.1942 C   0  0  0  0  0  0  0  0  0  0  0  0
   13.7819   -7.1775   21.1095 C   0  0  0  0  0  0  0  0  0  0  0  0
   13.2733   -5.9420   20.7000 C   0  0  0  0  0  0  0  0  0  0  0  0
   13.4323   -5.5262   19.3753 C   0  0  0  0  0  0  0  0  0  0  0  0
   12.9397   -4.3291   18.9770 F   0  0  0  0  0  0  0  0  0  0  0  0
   14.0999   -6.3464   18.4612 C   0  0  0  0  0  0  0  0  0  0  0  0
 11 12  1  0  0  0
 12 13  2  0  0  0
 13 14  1  0  0  0
 14 15  1  0  0  0
 15 16  2  0  0  0
 16 17  1  0  0  0
 17 18  2  0  0  0
 18 19  1  0  0  0
 19  7  1  0  0  0
 19 20  2  0  0  0
  7  8  2  0  0  0
  7  9  1  0  0  0
  9  1  1  0  0  0
  1  2  2  0  0  0
  2  3  1  0  0  0
  3  4  2  0  0  0
  4  5  1  0  0  0
  5 24  1  0  0  0
  5  6  2  0  0  0
 24 25  1  0  0  0
 25 26  1  0  0  0
 26 27  2  0  0  0
 26 28  1  0  0  0
 28 31  1  0  0  0
 31 32  2  0  0  0
 32 33  1  0  0  0
 33 34  2  0  0  0
 34 35  1  0  0  0
 35 36  1  0  0  0
 35 37  2  0  0  0
 37 31  1  0  0  0
  6  1  1  0  0  0
 20 12  1  0  0  0
 20 15  1  0  0  0
 11 21  1  0  0  0
 11 22  1  0  0  0
 14 23  1  0  0  0
  9 10  1  0  0  0
 25 29  1  0  0  0
 28 30  1  0  0  0
M  END
>  <minimizedAffinity>
-0.35124

>  <minimizedRMSD>
3.01467

$$$$
CHEMBL156551


 39 41  0  0  0  0  0  0  0  0999 V2000
   17.8127   -9.4094   15.4424 C   0  0  0  0  0  0  0  0  0  0  0  0
   17.6808   -9.8247   16.7706 C   0  0  0  0  0  0  0  0  0  0  0  0
   16.6875   -9.2703   17.5824 C   0  0  0  0  0  0  0  0  0  0  0  0
   15.8129   -8.3004   17.0715 C   0  0  0  0  0  0  0  0  0  0  0  0
   15.9461   -7.8925   15.7360 C   0  0  0  0  0  0  0  0  0  0  0  0
   16.9417   -8.4446   14.9252 C   0  0  0  0  0  0  0  0  0  0  0  0
   14.7639   -7.7210   17.9280 C   0  0  0  0  0  0  0  0  0  0  0  0
   15.0684   -6.8814   18.8189 O   0  0  0  0  0  0  0  0  0  0  0  0
   13.3982   -8.1097   17.7472 N   0  0  0  0  0  0  0  0  0  0  0  0
   13.1846   -8.7534   17.0336 H   0  0  0  0  0  0  0  0  0  0  0  0
   12.3077   -7.5976   18.5700 C   0  0  0  0  0  0  0  0  0  0  0  0
   10.9885   -8.0377   18.0195 C   0  0  0  0  0  0  0  0  0  0  0  0
   10.3844   -9.0283   18.5108 O   0  0  0  0  0  0  0  0  0  0  0  0
   10.4340   -7.3591   16.9428 O   0  0  0  0  0  0  0  0  0  0  0  0
   10.8794   -6.6219   16.5739 H   0  0  0  0  0  0  0  0  0  0  0  0
   12.4834   -7.9816   20.0434 C   0  0  0  0  0  0  0  0  0  0  0  0
   12.5721   -6.7719   20.9708 C   0  0  0  0  0  0  0  0  0  0  0  0
   12.0380   -5.5272   20.3360 C   0  0  0  0  0  0  0  0  0  0  0  0
   10.8240   -5.2335   20.4851 O   0  0  0  0  0  0  0  0  0  0  0  0
   12.8588   -4.6880   19.5897 O   0  0  0  0  0  0  0  0  0  0  0  0
   13.7642   -4.8998   19.4740 H   0  0  0  0  0  0  0  0  0  0  0  0
   18.8597  -10.0234   14.5743 C   0  0  0  0  0  0  0  0  0  0  0  0
   18.2480  -10.9047   13.5850 N   0  0  0  0  0  0  0  0  0  0  0  0
   18.1305  -12.3168   13.9197 C   0  0  0  0  0  0  0  0  0  0  0  0
   16.5754   -9.0399    8.5914 N   0  0  0  0  0  0  0  0  0  0  0  0
   16.9903   -9.4872    9.8046 C   0  0  0  0  0  0  0  0  0  0  0  0
   18.2708   -9.1469   10.2746 C   0  0  0  0  0  0  0  0  0  0  0  0
   19.0864   -8.3486    9.4669 C   0  0  0  0  0  0  0  0  0  0  0  0
   18.6266   -7.9261    8.2596 N   0  0  0  0  0  0  0  0  0  0  0  0
   17.3842   -8.2645    7.8215 C   0  0  0  0  0  0  0  0  0  0  0  0
   16.9344   -7.8151    6.5492 N   0  0  0  0  0  0  0  0  0  0  0  0
   20.3619   -7.9840    9.8829 O   0  0  0  0  0  0  0  0  0  0  0  0
   18.6859   -9.6149   11.5228 C   0  0  0  0  0  0  0  0  0  0  0  0
   17.8314  -10.4135   12.2963 C   0  0  0  0  0  0  0  0  0  0  0  0
   16.5619  -10.7255   11.7833 C   0  0  0  0  0  0  0  0  0  0  0  0
   16.1725  -10.2624   10.5644 N   0  0  0  0  0  0  0  0  0  0  0  0
   17.5190   -7.2535    5.9906 H   0  0  0  0  0  0  0  0  0  0  0  0
   16.0383   -8.0655    6.2273 H   0  0  0  0  0  0  0  0  0  0  0  0
   20.6839   -8.2725   10.7142 H   0  0  0  0  0  0  0  0  0  0  0  0
 25 26  2  0  0  0
 26 27  1  0  0  0
 27 28  2  0  0  0
 28 29  1  0  0  0
 29 30  2  0  0  0
 30 31  1  0  0  0
 28 32  1  0  0  0
 27 33  1  0  0  0
 33 34  2  0  0  0
 34 23  1  0  0  0
 23 22  1  0  0  0
 22  1  1  0  0  0
  1  2  2  0  0  0
  2  3  1  0  0  0
  3  4  2  0  0  0
  4  7  1  0  0  0
  7  8  2  0  0  0
  7  9  1  0  0  0
  9 11  1  0  0  0
 11 12  1  0  0  0
 12 13  2  0  0  0
 12 14  1  0  0  0
 11 16  1  0  0  0
 16 17  1  0  0  0
 17 18  1  0  0  0
 18 19  2  0  0  0
 18 20  1  0  0  0
  4  5  1  0  0  0
  5  6  2  0  0  0
 23 24  1  0  0  0
 34 35  1  0  0  0
 35 36  2  0  0  0
 30 25  1  0  0  0
  6  1  1  0  0  0
 36 26  1  0  0  0
 31 37  1  0  0  0
 31 38  1  0  0  0
 32 39  1  0  0  0
  9 10  1  0  0  0
 14 15  1  0  0  0
 20 21  1  0  0  0
M  END
>  <minimizedAffinity>
-7.41113

>  <minimizedRMSD>
3.01859

$$$$
CHEMBL3730435 PubChem-89579438


 33 37  0  0  0  0  0  0  0  0999 V2000
   17.4649   -9.2563   14.8646 C   0  0  0  0  0  0  0  0  0  0  0  0
   17.6529   -7.8861   14.2165 C   0  0  0  0  0  0  0  0  0  0  0  0
   16.9298   -7.8395   12.8674 C   0  0  0  0  0  0  0  0  0  0  0  0
   16.9962   -9.1303   12.1757 N   0  0  0  0  0  0  0  0  0  0  0  0
   18.0862  -10.0470   12.5096 C   0  0  0  0  0  0  0  0  0  0  0  0
   18.0823  -10.3704   14.0089 C   0  0  0  0  0  0  0  0  0  0  0  0
   15.7902   -9.6752   11.6282 C   0  0  0  0  0  0  0  0  0  0  0  0
   15.6733  -10.0397   10.2708 C   0  0  0  0  0  0  0  0  0  0  0  0
   14.5331  -10.7185    9.8858 C   0  0  0  0  0  0  0  0  0  0  0  0
   13.5134  -10.9829   10.7350 N   0  0  0  0  0  0  0  0  0  0  0  0
   13.6181  -10.5804   12.0299 C   0  0  0  0  0  0  0  0  0  0  0  0
   14.7439   -9.9443   12.4642 N   0  0  0  0  0  0  0  0  0  0  0  0
   14.6128  -11.1290    8.2690 S   0  0  0  0  0  0  0  0  0  0  0  0
   16.1179  -10.4112    7.9899 C   0  0  0  0  0  0  0  0  0  0  0  0
   16.5640   -9.8367    9.1876 C   0  0  0  0  0  0  0  0  0  0  0  0
   17.7862   -9.0151    9.2105 C   0  0  0  0  0  0  0  0  0  0  0  0
   17.9596   -7.9693    8.2924 C   0  0  0  0  0  0  0  0  0  0  0  0
   19.1367   -7.2157    8.2958 C   0  0  0  0  0  0  0  0  0  0  0  0
   20.1534   -7.5128    9.2073 C   0  0  0  0  0  0  0  0  0  0  0  0
   19.9964   -8.5681   10.1103 C   0  0  0  0  0  0  0  0  0  0  0  0
   18.8191   -9.3216   10.1072 C   0  0  0  0  0  0  0  0  0  0  0  0
   18.0857   -9.2805   16.2629 C   0  0  0  0  0  0  0  0  0  0  0  0
   17.1145   -9.5462   17.3380 N   0  0  0  0  0  0  0  0  0  0  0  0
   17.0897  -10.9752   17.6722 C   0  0  0  0  0  0  0  0  0  0  0  0
   18.4904  -11.5648   17.5952 C   0  0  0  0  0  0  0  0  0  0  0  0
   18.0912  -12.3796   16.3833 C   0  0  0  0  0  0  0  0  0  0  0  0
   16.6941  -11.8013   16.4570 C   0  0  0  0  0  0  0  0  0  0  0  0
   15.7830   -9.1381   16.8954 C   0  0  0  0  0  0  0  0  0  0  0  0
   15.2387   -8.0995   17.8132 C   0  0  0  0  0  0  0  0  0  0  0  0
   14.4026   -7.2614   17.3815 O   0  0  0  0  0  0  0  0  0  0  0  0
   15.6953   -8.0423   19.1646 N   0  0  0  0  0  0  0  0  0  0  0  0
   15.2090   -7.0410   20.0985 C   0  0  0  0  0  0  0  0  0  0  0  0
   16.3592   -8.7007   19.4728 H   0  0  0  0  0  0  0  0  0  0  0  0
 29 30  2  0  0  0
 29 28  1  0  0  0
 28 23  1  0  0  0
 23 22  1  0  0  0
 22  1  1  0  0  0
  1  2  1  0  0  0
  2  3  1  0  0  0
  3  4  1  0  0  0
  4  5  1  0  0  0
  5  6  1  0  0  0
  4  7  1  0  0  0
  7  8  2  0  0  0
  8  9  1  0  0  0
  9 10  2  0  0  0
 10 11  1  0  0  0
 11 12  2  0  0  0
  9 13  1  0  0  0
 13 14  1  0  0  0
 14 15  2  0  0  0
 15 16  1  0  0  0
 16 17  2  0  0  0
 17 18  1  0  0  0
 18 19  2  0  0  0
 19 20  1  0  0  0
 20 21  2  0  0  0
 23 24  1  0  0  0
 24 25  1  0  0  0
 25 26  1  0  0  0
 26 27  1  0  0  0
 29 31  1  0  0  0
 31 32  1  0  0  0
  6  1  1  0  0  0
 12  7  1  0  0  0
 21 16  1  0  0  0
 27 24  1  0  0  0
 15  8  1  0  0  0
 31 33  1  0  0  0
M  END
>  <minimizedAffinity>
5.48510

>  <minimizedRMSD>
3.01963

$$$$
CHEMBL2235567 8435623 LN01153020 MCULE-3671819267 MolPort-001-973-883 PubChem-3138138 ZINC000008435623 ZINC08435623


 30 33  0  0  0  0  0  0  0  0999 V2000
   17.8026   -9.4640   15.4265 S   0  0  0  0  0  0  0  0  0  0  0  0
   17.4039   -9.8940   13.7369 C   0  0  0  0  0  0  0  0  0  0  0  0
   18.0660  -10.8193   13.0179 N   0  0  0  0  0  0  0  0  0  0  0  0
   17.4803  -10.8515   11.8311 N   0  0  0  0  0  0  0  0  0  0  0  0
   16.4885   -9.9426   11.8775 C   0  0  0  0  0  0  0  0  0  0  0  0
   16.4308   -9.3529   13.0461 O   0  0  0  0  0  0  0  0  0  0  0  0
   15.5508   -9.6721   10.7524 C   0  0  0  0  0  0  0  0  0  0  0  0
   16.2774   -9.6700    9.4923 N   0  0  0  0  0  0  0  0  0  0  0  0
   16.0250  -10.4791    8.4685 N   0  0  0  0  0  0  0  0  0  0  0  0
   16.8959  -10.2791    7.4788 N   0  0  0  0  0  0  0  0  0  0  0  0
   17.7254   -9.3119    7.9133 C   0  0  0  0  0  0  0  0  0  0  0  0
   18.8185   -8.7445    7.2662 C   0  0  0  0  0  0  0  0  0  0  0  0
   19.5294   -7.7485    7.9659 C   0  0  0  0  0  0  0  0  0  0  0  0
   19.1349   -7.3591    9.2688 C   0  0  0  0  0  0  0  0  0  0  0  0
   18.0230   -7.9587    9.8924 C   0  0  0  0  0  0  0  0  0  0  0  0
   17.3475   -8.9352    9.1645 C   0  0  0  0  0  0  0  0  0  0  0  0
   16.0544   -9.3565   15.9183 C   0  0  0  0  0  0  0  0  0  0  0  0
   14.6109   -8.1532   17.6020 N   0  0  0  0  0  0  0  0  0  0  0  0
   15.9161   -8.5536   17.1645 C   0  0  0  0  0  0  0  0  0  0  0  0
   16.9471   -8.2546   17.8233 O   0  0  0  0  0  0  0  0  0  0  0  0
   13.8546   -8.4073   17.0252 H   0  0  0  0  0  0  0  0  0  0  0  0
   13.6065   -5.9522   21.0948 C   0  0  0  0  0  0  0  0  0  0  0  0
   12.9009   -5.7683   19.8979 C   0  0  0  0  0  0  0  0  0  0  0  0
   13.2431   -6.4984   18.7560 C   0  0  0  0  0  0  0  0  0  0  0  0
   14.2934   -7.4207   18.7932 C   0  0  0  0  0  0  0  0  0  0  0  0
   14.9999   -7.6072   19.9905 C   0  0  0  0  0  0  0  0  0  0  0  0
   14.6594   -6.8782   21.1330 C   0  0  0  0  0  0  0  0  0  0  0  0
   12.8991   -3.8760   22.1580 O   0  0  0  0  0  0  0  0  0  0  0  0
   13.2526   -5.2016   22.2642 N   0  0  0  0  0  0  0  0  0  0  0  0
   13.2585   -5.7411   23.3902 O   0  0  0  0  0  0  0  0  0  0  0  0
 28 29  1  0  0  0
 29 30  2  0  0  0
 29 22  1  0  0  0
 22 23  2  0  0  0
 23 24  1  0  0  0
 24 25  2  0  0  0
 25 18  1  0  0  0
 25 26  1  0  0  0
 18 19  1  0  0  0
 19 20  2  0  0  0
 19 17  1  0  0  0
 17  1  1  0  0  0
  1  2  1  0  0  0
  2  3  2  0  0  0
  3  4  1  0  0  0
  4  5  2  0  0  0
  5  7  1  0  0  0
  5  6  1  0  0  0
  7  8  1  0  0  0
  8  9  1  0  0  0
  9 10  2  0  0  0
 10 11  1  0  0  0
 11 12  2  0  0  0
 12 13  1  0  0  0
 13 14  2  0  0  0
 14 15  1  0  0  0
 15 16  2  0  0  0
 16  8  1  0  0  0
 16 11  1  0  0  0
  6  2  1  0  0  0
 26 27  2  0  0  0
 27 22  1  0  0  0
 18 21  1  0  0  0
M  CHG 1  28  -1
M  CHG 1  29   1
M  END
>  <minimizedAffinity>
-6.71179

>  <minimizedRMSD>
3.02331

$$$$
CHEMBL3110127 PubChem-136264280


 34 38  0  0  0  0  0  0  0  0999 V2000
   15.1171   -9.6878   14.5871 N   0  0  0  0  0  0  0  0  0  0  0  0
   15.2010   -8.6630   15.5848 C   0  0  0  0  0  0  0  0  0  0  0  0
   15.4591   -7.4690   15.2735 O   0  0  0  0  0  0  0  0  0  0  0  0
   14.6886  -10.5338   14.8517 H   0  0  0  0  0  0  0  0  0  0  0  0
   16.4903   -9.5114   10.5728 C   0  0  0  0  0  0  0  0  0  0  0  0
   15.1320   -9.7008   10.8634 C   0  0  0  0  0  0  0  0  0  0  0  0
   14.6909   -9.7468   12.1883 C   0  0  0  0  0  0  0  0  0  0  0  0
   15.5983   -9.5974   13.2404 C   0  0  0  0  0  0  0  0  0  0  0  0
   16.9591   -9.4161   12.9532 C   0  0  0  0  0  0  0  0  0  0  0  0
   17.4005   -9.3714   11.6288 C   0  0  0  0  0  0  0  0  0  0  0  0
   16.7057  -10.5037    5.7554 C   0  0  0  0  0  0  0  0  0  0  0  0
   17.0179   -9.9042    7.0406 N   0  0  0  0  0  0  0  0  0  0  0  0
   16.3796  -10.1911    8.1692 N   0  0  0  0  0  0  0  0  0  0  0  0
   16.9408   -9.4618    9.1677 C   0  0  0  0  0  0  0  0  0  0  0  0
   17.9684   -8.6995    8.6295 C   0  0  0  0  0  0  0  0  0  0  0  0
   18.8647   -7.7892    9.1868 C   0  0  0  0  0  0  0  0  0  0  0  0
   19.7966   -7.1867    8.3220 C   0  0  0  0  0  0  0  0  0  0  0  0
   19.8109   -7.5046    6.9455 C   0  0  0  0  0  0  0  0  0  0  0  0
   18.8929   -8.4282    6.4133 C   0  0  0  0  0  0  0  0  0  0  0  0
   17.9819   -9.0055    7.2966 C   0  0  0  0  0  0  0  0  0  0  0  0
   14.9944   -9.0252   17.0173 C   0  0  0  0  0  0  0  0  0  0  0  0
   15.9665  -10.1157   17.4552 C   0  0  0  0  0  0  0  0  0  0  0  0
   17.2542  -10.0524   16.7021 C   0  0  0  0  0  0  0  0  0  0  0  0
   18.1211   -9.0251   16.9114 N   0  0  0  0  0  0  0  0  0  0  0  0
   19.3087   -8.9682   16.2588 C   0  0  0  0  0  0  0  0  0  0  0  0
   20.1826   -7.9017   16.4850 C   0  0  0  0  0  0  0  0  0  0  0  0
   21.4124   -7.8528   15.8196 C   0  0  0  0  0  0  0  0  0  0  0  0
   21.7701   -8.8690   14.9269 C   0  0  0  0  0  0  0  0  0  0  0  0
   20.8976   -9.9370   14.6931 C   0  0  0  0  0  0  0  0  0  0  0  0
   19.6631   -9.9912   15.3553 C   0  0  0  0  0  0  0  0  0  0  0  0
   18.7567  -11.0425   15.1598 C   0  0  0  0  0  0  0  0  0  0  0  0
   19.0220  -11.9844   14.3662 O   0  0  0  0  0  0  0  0  0  0  0  0
   17.5798  -11.0509   15.8383 N   0  0  0  0  0  0  0  0  0  0  0  0
   16.9499  -11.7951   15.7019 H   0  0  0  0  0  0  0  0  0  0  0  0
 11 12  1  0  0  0
 12 13  1  0  0  0
 13 14  2  0  0  0
 14  5  1  0  0  0
 14 15  1  0  0  0
  5  6  2  0  0  0
  6  7  1  0  0  0
  7  8  2  0  0  0
  8  1  1  0  0  0
  8  9  1  0  0  0
  1  2  1  0  0  0
  2  3  2  0  0  0
  2 21  1  0  0  0
 21 22  1  0  0  0
 22 23  1  0  0  0
 23 24  2  0  0  0
 24 25  1  0  0  0
 25 26  2  0  0  0
 26 27  1  0  0  0
 27 28  2  0  0  0
 28 29  1  0  0  0
 29 30  2  0  0  0
 30 31  1  0  0  0
 30 25  1  0  0  0
 31 32  2  0  0  0
 31 33  1  0  0  0
 33 23  1  0  0  0
  9 10  2  0  0  0
 10  5  1  0  0  0
 15 16  2  0  0  0
 16 17  1  0  0  0
 17 18  2  0  0  0
 18 19  1  0  0  0
 19 20  2  0  0  0
 20 12  1  0  0  0
 20 15  1  0  0  0
  1  4  1  0  0  0
 33 34  1  0  0  0
M  END
>  <minimizedAffinity>
6.06804

>  <minimizedRMSD>
3.02597

$$$$
CHEMBL183431 PubChem-18002764


 36 39  0  0  0  0  0  0  0  0999 V2000
   16.8572   -8.9869   10.7292 C   0  0  0  0  0  0  0  0  0  0  0  0
   18.2030   -9.3685   10.7635 C   0  0  0  0  0  0  0  0  0  0  0  0
   18.6789  -10.1844   11.7931 C   0  0  0  0  0  0  0  0  0  0  0  0
   17.8101  -10.6276   12.7964 C   0  0  0  0  0  0  0  0  0  0  0  0
   16.4638  -10.2458   12.7709 C   0  0  0  0  0  0  0  0  0  0  0  0
   15.9871   -9.4303   11.7404 C   0  0  0  0  0  0  0  0  0  0  0  0
   18.4163  -11.6245   14.1074 S   0  0  0  0  0  0  0  0  0  0  0  0
   19.8400  -11.2596   14.4045 O   0  0  0  0  0  0  0  0  0  0  0  0
   18.3627  -13.0693   13.7062 O   0  0  0  0  0  0  0  0  0  0  0  0
   17.4209  -11.3773   15.5561 C   0  0  0  0  0  0  0  0  0  0  0  0
   18.1787  -10.5393   16.5804 C   0  0  0  0  0  0  0  0  0  0  0  0
   18.9699  -11.4676   17.5108 C   0  0  0  0  0  0  0  0  0  0  0  0
   18.2252  -11.7739   18.8190 C   0  0  0  0  0  0  0  0  0  0  0  0
   16.7794  -11.7658   18.6020 N   0  0  0  0  0  0  0  0  0  0  0  0
   16.3256  -10.3905   18.3567 C   0  0  0  0  0  0  0  0  0  0  0  0
   17.2444   -9.6227   17.3885 C   0  0  0  0  0  0  0  0  0  0  0  0
   16.3100  -12.1358   19.4285 H   0  0  0  0  0  0  0  0  0  0  0  0
   16.4907   -8.6395   16.5485 C   0  0  0  0  0  0  0  0  0  0  0  0
   15.2496   -8.4812   16.7087 O   0  0  0  0  0  0  0  0  0  0  0  0
   17.1865   -7.8832   15.5604 N   0  0  0  0  0  0  0  0  0  0  0  0
   16.5266   -7.0028   14.7712 O   0  0  0  0  0  0  0  0  0  0  0  0
   18.1576   -8.0024   15.4506 H   0  0  0  0  0  0  0  0  0  0  0  0
   15.5848   -7.0035   15.0033 H   0  0  0  0  0  0  0  0  0  0  0  0
   16.4144   -8.1695    9.6833 O   0  0  0  0  0  0  0  0  0  0  0  0
   16.1101   -8.6561    8.3787 C   0  0  0  0  0  0  0  0  0  0  0  0
   19.1715  -12.4627    7.4063 C   0  0  0  0  0  0  0  0  0  0  0  0
   18.8265  -11.0262    7.2557 C   0  0  0  0  0  0  0  0  0  0  0  0
   17.6688  -10.5224    7.8510 C   0  0  0  0  0  0  0  0  0  0  0  0
   17.3474   -9.1713    7.7112 C   0  0  0  0  0  0  0  0  0  0  0  0
   18.2008   -8.3316    6.9726 C   0  0  0  0  0  0  0  0  0  0  0  0
   17.9290   -6.9660    6.8031 C   0  0  0  0  0  0  0  0  0  0  0  0
   18.8024   -6.1601    6.0694 C   0  0  0  0  0  0  0  0  0  0  0  0
   19.9526   -6.7115    5.4977 C   0  0  0  0  0  0  0  0  0  0  0  0
   20.2339   -8.0709    5.6578 C   0  0  0  0  0  0  0  0  0  0  0  0
   19.3654   -8.8838    6.3902 C   0  0  0  0  0  0  0  0  0  0  0  0
   19.6442  -10.2045    6.5462 N   0  0  0  0  0  0  0  0  0  0  0  0
 26 27  1  0  0  0
 27 28  2  0  0  0
 28 29  1  0  0  0
 29 25  1  0  0  0
 29 30  2  0  0  0
 25 24  1  0  0  0
 24  1  1  0  0  0
  1  2  2  0  0  0
  2  3  1  0  0  0
  3  4  2  0  0  0
  4  7  1  0  0  0
  4  5  1  0  0  0
  7  8  2  0  0  0
  7  9  2  0  0  0
  7 10  1  0  0  0
 11 10  1  0  0  0
 11 12  1  0  0  0
 12 13  1  0  0  0
 13 14  1  0  0  0
 14 15  1  0  0  0
 15 16  1  0  0  0
 16 18  1  0  0  0
 16 11  1  0  0  0
 18 19  2  0  0  0
 18 20  1  0  0  0
 20 21  1  0  0  0
  5  6  2  0  0  0
  6  1  1  0  0  0
 30 31  1  0  0  0
 31 32  2  0  0  0
 32 33  1  0  0  0
 33 34  2  0  0  0
 34 35  1  0  0  0
 35 36  2  0  0  0
 35 30  1  0  0  0
 36 27  1  0  0  0
 14 17  1  0  0  0
 20 22  1  0  0  0
 21 23  1  0  0  0
M  END
>  <minimizedAffinity>
11.02251

>  <minimizedRMSD>
3.02610

$$$$
CHEMBL3397322 PubChem-118726591


 41 44  0  0  0  0  0  0  0  0999 V2000
   17.4257   -8.6880   12.5752 C   0  0  0  0  0  0  0  0  0  0  0  0
   16.1564   -8.4834   13.3614 C   0  0  0  0  0  0  0  0  0  0  0  0
   16.6008   -8.6952   14.7789 C   0  0  0  0  0  0  0  0  0  0  0  0
   17.8057   -9.6024   14.6224 C   0  0  0  0  0  0  0  0  0  0  0  0
   18.2789   -9.5474   13.2943 O   0  0  0  0  0  0  0  0  0  0  0  0
   17.0169   -7.4936   15.3597 O   0  0  0  0  0  0  0  0  0  0  0  0
   15.6516   -7.1971   13.1551 O   0  0  0  0  0  0  0  0  0  0  0  0
   17.7262   -7.1044   14.8245 H   0  0  0  0  0  0  0  0  0  0  0  0
   16.3270   -6.5427   13.3929 H   0  0  0  0  0  0  0  0  0  0  0  0
   17.1255   -9.2540   11.2663 N   0  0  0  0  0  0  0  0  0  0  0  0
   17.6448   -8.8984   10.0885 C   0  0  0  0  0  0  0  0  0  0  0  0
   17.0643   -9.6211    9.1072 C   0  0  0  0  0  0  0  0  0  0  0  0
   16.1454  -10.4605    9.6206 N   0  0  0  0  0  0  0  0  0  0  0  0
   16.2039  -10.2043   10.9588 C   0  0  0  0  0  0  0  0  0  0  0  0
   17.4410   -9.4217    7.7869 C   0  0  0  0  0  0  0  0  0  0  0  0
   18.4015   -8.4840    7.5332 N   0  0  0  0  0  0  0  0  0  0  0  0
   18.9751   -7.7602    8.5489 C   0  0  0  0  0  0  0  0  0  0  0  0
   18.5960   -7.9635    9.8474 N   0  0  0  0  0  0  0  0  0  0  0  0
   16.8497  -10.1626    6.7252 N   0  0  0  0  0  0  0  0  0  0  0  0
   16.1584  -10.8359    6.9202 H   0  0  0  0  0  0  0  0  0  0  0  0
   17.1320  -10.0018    5.7959 H   0  0  0  0  0  0  0  0  0  0  0  0
   17.4464  -11.0406   14.9664 C   0  0  0  0  0  0  0  0  0  0  0  0
   17.3602  -11.2676   16.7673 S   0  0  0  0  0  0  0  0  0  0  0  0
   16.4760   -9.6966   16.9934 C   0  0  0  0  0  0  0  0  0  0  0  0
   15.9428   -9.5900   18.4164 C   0  0  0  0  0  0  0  0  0  0  0  0
   15.1965   -8.2798   18.6756 C   0  0  0  0  0  0  0  0  0  0  0  0
   15.2122   -7.4372   17.4881 N   0  0  0  0  0  0  0  0  0  0  0  0
   16.1748   -7.1876   17.2610 H   0  0  0  0  0  0  0  0  0  0  0  0
   14.6740   -6.5892   17.6657 H   0  0  0  0  0  0  0  0  0  0  0  0
   15.7195   -7.5507   19.8790 C   0  0  0  0  0  0  0  0  0  0  0  0
   16.6824   -6.7426   19.7715 O   0  0  0  0  0  0  0  0  0  0  0  0
   15.1094   -7.7745   21.1504 N   0  0  0  0  0  0  0  0  0  0  0  0
   14.3483   -8.3959   21.2118 H   0  0  0  0  0  0  0  0  0  0  0  0
   15.5784   -7.1123   22.3575 C   0  0  0  0  0  0  0  0  0  0  0  0
   14.4949   -7.1454   23.4233 C   0  0  0  0  0  0  0  0  0  0  0  0
   13.6215   -5.9388   23.3377 C   0  0  0  0  0  0  0  0  0  0  0  0
   12.5518   -5.7731   22.4849 C   0  0  0  0  0  0  0  0  0  0  0  0
   12.0492   -4.5570   22.7549 N   0  0  0  0  0  0  0  0  0  0  0  0
   12.7323   -3.9618   23.7184 N   0  0  0  0  0  0  0  0  0  0  0  0
   13.7181   -4.7937   24.1072 C   0  0  0  0  0  0  0  0  0  0  0  0
   10.9069   -3.9599   22.0896 C   0  0  0  0  0  0  0  0  0  0  0  0
  1 10  1  0  0  0
  1  2  1  0  0  0
  2  3  1  0  0  0
  3  4  1  0  0  0
  4  5  1  0  0  0
  4 22  1  0  0  0
 22 23  1  0  0  0
 23 24  1  0  0  0
 24 25  1  0  0  0
 25 26  1  0  0  0
 26 30  1  0  0  0
 30 31  2  0  0  0
 30 32  1  0  0  0
 32 34  1  0  0  0
 34 35  1  0  0  0
 35 36  1  0  0  0
 36 37  2  0  0  0
 37 38  1  0  0  0
 38 39  1  0  0  0
 39 40  2  0  0  0
 38 41  1  0  0  0
 26 27  1  0  0  0
  3  6  1  0  0  0
  2  7  1  0  0  0
 10 11  1  0  0  0
 11 12  2  0  0  0
 12 13  1  0  0  0
 13 14  2  0  0  0
 12 15  1  0  0  0
 15 16  2  0  0  0
 16 17  1  0  0  0
 17 18  2  0  0  0
 15 19  1  0  0  0
 14 10  1  0  0  0
  5  1  1  0  0  0
 40 36  1  0  0  0
 18 11  1  0  0  0
 32 33  1  0  0  0
 27 28  1  0  0  0
 27 29  1  0  0  0
  6  8  1  0  0  0
  7  9  1  0  0  0
 19 20  1  0  0  0
 19 21  1  0  0  0
M  END
>  <minimizedAffinity>
-2.07502

>  <minimizedRMSD>
3.03452

$$$$
CHEMBL49848 PubChem-44294610


 34 38  0  0  0  0  0  0  0  0999 V2000
   16.2994   -8.4576   15.9545 C   0  0  0  0  0  0  0  0  0  0  0  0
   15.6674   -8.5631   14.7074 C   0  0  0  0  0  0  0  0  0  0  0  0
   16.4267   -8.6643   13.5391 C   0  0  0  0  0  0  0  0  0  0  0  0
   17.8246   -8.6536   13.6068 C   0  0  0  0  0  0  0  0  0  0  0  0
   18.4594   -8.5223   14.8452 C   0  0  0  0  0  0  0  0  0  0  0  0
   17.7006   -8.4214   16.0144 C   0  0  0  0  0  0  0  0  0  0  0  0
   15.7040   -9.0856   18.3521 C   0  0  0  0  0  0  0  0  0  0  0  0
   15.4941   -8.3061   17.1821 C   0  0  0  0  0  0  0  0  0  0  0  0
   14.5232   -7.2931   17.1999 C   0  0  0  0  0  0  0  0  0  0  0  0
   13.7843   -7.0287   18.3531 C   0  0  0  0  0  0  0  0  0  0  0  0
   14.0102   -7.7727   19.5094 C   0  0  0  0  0  0  0  0  0  0  0  0
   14.9612   -8.7934   19.5060 C   0  0  0  0  0  0  0  0  0  0  0  0
   16.6220  -10.2449   18.4065 C   0  0  0  0  0  0  0  0  0  0  0  0
   17.3773  -10.6822   17.3818 N   0  0  0  0  0  0  0  0  0  0  0  0
   17.9811  -11.7647   17.8433 N   0  0  0  0  0  0  0  0  0  0  0  0
   17.6043  -11.9888   19.0915 N   0  0  0  0  0  0  0  0  0  0  0  0
   16.7457  -11.0576   19.4729 N   0  0  0  0  0  0  0  0  0  0  0  0
   17.9159  -12.7358   19.6520 H   0  0  0  0  0  0  0  0  0  0  0  0
   18.6455   -8.7534   12.3639 C   0  0  0  0  0  0  0  0  0  0  0  0
   18.2058   -9.8717   11.5340 N   0  0  0  0  0  0  0  0  0  0  0  0
   17.5353   -9.6908   10.2619 C   0  0  0  0  0  0  0  0  0  0  0  0
   18.0676   -8.8982    9.2177 C   0  0  0  0  0  0  0  0  0  0  0  0
   19.2708   -8.2674    9.3207 N   0  0  0  0  0  0  0  0  0  0  0  0
   19.7750   -7.5091    8.3103 C   0  0  0  0  0  0  0  0  0  0  0  0
   19.0606   -7.3612    7.1198 C   0  0  0  0  0  0  0  0  0  0  0  0
   17.8300   -8.0029    6.9777 C   0  0  0  0  0  0  0  0  0  0  0  0
   17.3275   -8.7784    8.0230 C   0  0  0  0  0  0  0  0  0  0  0  0
   16.1418   -9.4209    7.8861 N   0  0  0  0  0  0  0  0  0  0  0  0
   15.6518  -10.1893    8.8903 C   0  0  0  0  0  0  0  0  0  0  0  0
   16.3434  -10.3183   10.0517 N   0  0  0  0  0  0  0  0  0  0  0  0
   18.5515  -11.2124   12.0026 C   0  0  0  0  0  0  0  0  0  0  0  0
   17.5835  -11.6990   13.0774 C   0  0  0  0  0  0  0  0  0  0  0  0
   18.3176  -12.3022   14.2626 C   0  0  0  0  0  0  0  0  0  0  0  0
   19.5680  -11.5014   14.5729 C   0  0  0  0  0  0  0  0  0  0  0  0
 13 14  1  0  0  0
 14 15  2  0  0  0
 15 16  1  0  0  0
 16 17  1  0  0  0
 13  7  1  0  0  0
  7  8  1  0  0  0
  8  1  1  0  0  0
  1  2  2  0  0  0
  2  3  1  0  0  0
  3  4  2  0  0  0
  4 19  1  0  0  0
 19 20  1  0  0  0
 20 21  1  0  0  0
 21 22  1  0  0  0
 22 23  2  0  0  0
 23 24  1  0  0  0
 24 25  2  0  0  0
 25 26  1  0  0  0
 26 27  2  0  0  0
 27 28  1  0  0  0
 28 29  2  0  0  0
 29 30  1  0  0  0
 20 31  1  0  0  0
 31 32  1  0  0  0
 32 33  1  0  0  0
 33 34  1  0  0  0
  4  5  1  0  0  0
  5  6  2  0  0  0
  8  9  2  0  0  0
  9 10  1  0  0  0
 10 11  2  0  0  0
 11 12  1  0  0  0
 17 13  2  0  0  0
 12  7  2  0  0  0
  6  1  1  0  0  0
 30 21  2  0  0  0
 27 22  1  0  0  0
 16 18  1  0  0  0
M  END
>  <minimizedAffinity>
7.01303

>  <minimizedRMSD>
3.03789

$$$$
CHEMBL4243609 PubChem-145986192


 39 42  0  0  0  0  0  0  0  0999 V2000
   18.0896  -10.2802   12.9239 C   0  0  0  0  0  0  0  0  0  0  0  0
   19.2812   -9.5589   13.0556 C   0  0  0  0  0  0  0  0  0  0  0  0
   19.7800   -9.2406   14.3221 C   0  0  0  0  0  0  0  0  0  0  0  0
   19.0871   -9.6427   15.4664 C   0  0  0  0  0  0  0  0  0  0  0  0
   17.8896  -10.3631   15.3465 C   0  0  0  0  0  0  0  0  0  0  0  0
   17.3979  -10.6793   14.0764 C   0  0  0  0  0  0  0  0  0  0  0  0
   17.6069  -10.5841   11.6087 N   0  0  0  0  0  0  0  0  0  0  0  0
   16.2592  -10.4535   11.1391 C   0  0  0  0  0  0  0  0  0  0  0  0
   15.3287  -10.0970   11.9103 O   0  0  0  0  0  0  0  0  0  0  0  0
   18.2696  -10.9168   10.9612 H   0  0  0  0  0  0  0  0  0  0  0  0
   15.9588  -10.7210    9.7055 C   0  0  0  0  0  0  0  0  0  0  0  0
   15.1799   -9.2651    8.9400 S   0  0  0  0  0  0  0  0  0  0  0  0
   16.6679   -8.8010    8.0614 C   0  0  0  0  0  0  0  0  0  0  0  0
   16.9070   -9.1804    6.7789 N   0  0  0  0  0  0  0  0  0  0  0  0
   18.1033   -8.6268    6.5363 C   0  0  0  0  0  0  0  0  0  0  0  0
   18.5411   -7.9497    7.6340 C   0  0  0  0  0  0  0  0  0  0  0  0
   17.6425   -8.0392    8.6235 N   0  0  0  0  0  0  0  0  0  0  0  0
   19.7661   -7.2858    7.6551 C   0  0  0  0  0  0  0  0  0  0  0  0
   20.5469   -7.3317    6.4844 C   0  0  0  0  0  0  0  0  0  0  0  0
   20.0890   -8.0289    5.3429 C   0  0  0  0  0  0  0  0  0  0  0  0
   18.8477   -8.6921    5.3604 C   0  0  0  0  0  0  0  0  0  0  0  0
   17.6790   -7.6517    9.5278 H   0  0  0  0  0  0  0  0  0  0  0  0
   17.1333  -10.8225   16.5566 C   0  0  0  0  0  0  0  0  0  0  0  0
   16.6890   -9.6900   17.3628 N   0  0  0  0  0  0  0  0  0  0  0  0
   15.7945   -8.6942   16.8627 C   0  0  0  0  0  0  0  0  0  0  0  0
   15.3223   -8.7904   15.6966 O   0  0  0  0  0  0  0  0  0  0  0  0
   17.0184   -9.6089   18.2871 H   0  0  0  0  0  0  0  0  0  0  0  0
   15.4462   -7.6205   17.6810 O   0  0  0  0  0  0  0  0  0  0  0  0
   14.0916   -7.3146   17.9829 C   0  0  0  0  0  0  0  0  0  0  0  0
   13.9281   -7.1634   19.4537 C   0  0  0  0  0  0  0  0  0  0  0  0
   12.8514   -6.4323   19.9667 C   0  0  0  0  0  0  0  0  0  0  0  0
   12.7114   -6.2686   21.3486 C   0  0  0  0  0  0  0  0  0  0  0  0
   13.6519   -6.8310   22.2179 C   0  0  0  0  0  0  0  0  0  0  0  0
   14.7333   -7.5552   21.7056 C   0  0  0  0  0  0  0  0  0  0  0  0
   14.8731   -7.7190   20.3239 C   0  0  0  0  0  0  0  0  0  0  0  0
   17.9457  -11.7714   17.3785 C   0  0  0  0  0  0  0  0  0  0  0  0
   18.0670  -11.6033   18.6218 O   0  0  0  0  0  0  0  0  0  0  0  0
   18.6080  -12.8226   16.7579 O   0  0  0  0  0  0  0  0  0  0  0  0
   18.5205  -12.9511   15.8338 H   0  0  0  0  0  0  0  0  0  0  0  0
  1  2  2  0  0  0
  2  3  1  0  0  0
  3  4  2  0  0  0
  4  5  1  0  0  0
  5  6  2  0  0  0
  5 23  1  0  0  0
 23 24  1  0  0  0
 24 25  1  0  0  0
 25 26  2  0  0  0
 25 28  1  0  0  0
 28 29  1  0  0  0
 29 30  1  0  0  0
 30 31  2  0  0  0
 31 32  1  0  0  0
 32 33  2  0  0  0
 33 34  1  0  0  0
 34 35  2  0  0  0
 23 36  1  0  0  0
 36 37  2  0  0  0
 36 38  1  0  0  0
  1  7  1  0  0  0
  7  8  1  0  0  0
  8  9  2  0  0  0
  8 11  1  0  0  0
 11 12  1  0  0  0
 12 13  1  0  0  0
 13 14  2  0  0  0
 14 15  1  0  0  0
 15 16  2  0  0  0
 16 17  1  0  0  0
 16 18  1  0  0  0
 18 19  2  0  0  0
 19 20  1  0  0  0
 20 21  2  0  0  0
  6  1  1  0  0  0
 35 30  1  0  0  0
 17 13  1  0  0  0
 21 15  1  0  0  0
 24 27  1  0  0  0
 38 39  1  0  0  0
  7 10  1  0  0  0
 17 22  1  0  0  0
M  END
>  <minimizedAffinity>
-2.96937

>  <minimizedRMSD>
3.03983

$$$$
CHEMBL45701 PubChem-44291562


 36 39  0  0  0  0  0  0  0  0999 V2000
   16.7484   -9.0422   14.6462 C   0  0  0  0  0  0  0  0  0  0  0  0
   17.2131  -10.0583   15.4883 C   0  0  0  0  0  0  0  0  0  0  0  0
   17.0167   -9.9777   16.8696 C   0  0  0  0  0  0  0  0  0  0  0  0
   16.3501   -8.8784   17.4194 C   0  0  0  0  0  0  0  0  0  0  0  0
   15.8866   -7.8564   16.5847 C   0  0  0  0  0  0  0  0  0  0  0  0
   16.0835   -7.9391   15.2036 C   0  0  0  0  0  0  0  0  0  0  0  0
   16.0571   -9.6573   12.2487 C   0  0  0  0  0  0  0  0  0  0  0  0
   14.9224  -10.0806   12.6028 O   0  0  0  0  0  0  0  0  0  0  0  0
   16.9745   -9.1606   13.2351 N   0  0  0  0  0  0  0  0  0  0  0  0
   17.8557   -8.8694   12.9067 H   0  0  0  0  0  0  0  0  0  0  0  0
   16.4277   -9.6987   10.8067 C   0  0  0  0  0  0  0  0  0  0  0  0
   17.6038   -9.1138   10.2685 C   0  0  0  0  0  0  0  0  0  0  0  0
   17.8491   -9.2236    8.8754 C   0  0  0  0  0  0  0  0  0  0  0  0
   16.9689   -9.8769    8.0743 N   0  0  0  0  0  0  0  0  0  0  0  0
   15.8379  -10.4392    8.5694 C   0  0  0  0  0  0  0  0  0  0  0  0
   15.5529  -10.3582    9.9310 C   0  0  0  0  0  0  0  0  0  0  0  0
   18.9975   -8.6565    8.3144 C   0  0  0  0  0  0  0  0  0  0  0  0
   19.9105   -7.9749    9.1209 C   0  0  0  0  0  0  0  0  0  0  0  0
   19.6787   -7.8563   10.4922 C   0  0  0  0  0  0  0  0  0  0  0  0
   18.5339   -8.4207   11.0600 C   0  0  0  0  0  0  0  0  0  0  0  0
   16.1771   -8.7775   18.8980 C   0  0  0  0  0  0  0  0  0  0  0  0
   15.6711   -7.3955   19.2947 C   0  0  0  0  0  0  0  0  0  0  0  0
   15.9994   -7.1194   20.6859 N   0  0  0  0  0  0  0  0  0  0  0  0
   17.2794   -6.6159   21.0761 C   0  0  0  0  0  0  0  0  0  0  0  0
   18.1522   -6.3560   20.2055 O   0  0  0  0  0  0  0  0  0  0  0  0
   15.3197   -7.2843   21.3788 H   0  0  0  0  0  0  0  0  0  0  0  0
   17.6116   -6.4196   22.5232 C   0  0  0  0  0  0  0  0  0  0  0  0
   18.8078   -7.2648   22.9787 C   0  0  0  0  0  0  0  0  0  0  0  0
   20.1365   -6.6734   22.5070 C   0  0  0  0  0  0  0  0  0  0  0  0
   20.2691   -5.2277   22.9725 C   0  0  0  0  0  0  0  0  0  0  0  0
   19.1268   -4.3917   22.4068 C   0  0  0  0  0  0  0  0  0  0  0  0
   17.7830   -4.9400   22.8853 C   0  0  0  0  0  0  0  0  0  0  0  0
   14.1947   -7.3105   19.0971 C   0  0  0  0  0  0  0  0  0  0  0  0
   13.4193   -8.0882   19.7144 O   0  0  0  0  0  0  0  0  0  0  0  0
   13.6720   -6.3627   18.2280 O   0  0  0  0  0  0  0  0  0  0  0  0
   14.2458   -5.7827   17.7672 H   0  0  0  0  0  0  0  0  0  0  0  0
  7  8  2  0  0  0
  7 11  1  0  0  0
 11 12  2  0  0  0
 12 13  1  0  0  0
 13 14  2  0  0  0
 14 15  1  0  0  0
 15 16  2  0  0  0
 13 17  1  0  0  0
 17 18  2  0  0  0
 18 19  1  0  0  0
 19 20  2  0  0  0
  7  9  1  0  0  0
  9  1  1  0  0  0
  1  2  2  0  0  0
  2  3  1  0  0  0
  3  4  2  0  0  0
  4 21  1  0  0  0
 22 21  1  0  0  0
 22 23  1  0  0  0
 23 24  1  0  0  0
 24 25  2  0  0  0
 24 27  1  0  0  0
 27 28  1  0  0  0
 28 29  1  0  0  0
 29 30  1  0  0  0
 30 31  1  0  0  0
 31 32  1  0  0  0
 22 33  1  0  0  0
 33 34  2  0  0  0
 33 35  1  0  0  0
  4  5  1  0  0  0
  5  6  2  0  0  0
 16 11  1  0  0  0
  6  1  1  0  0  0
 20 12  1  0  0  0
 32 27  1  0  0  0
  9 10  1  0  0  0
 23 26  1  0  0  0
 35 36  1  0  0  0
M  END
>  <minimizedAffinity>
-2.86934

>  <minimizedRMSD>
3.04026

$$$$
CHEMBL4473306 PubChem-155536226


 35 38  0  0  0  0  0  0  0  0999 V2000
   17.2866   -8.8229    8.1003 C   0  0  0  0  0  0  0  0  0  0  0  0
   16.0386   -8.9619    7.4695 C   0  0  0  0  0  0  0  0  0  0  0  0
   14.9225   -9.4084    8.1826 C   0  0  0  0  0  0  0  0  0  0  0  0
   15.0399   -9.7222    9.5380 C   0  0  0  0  0  0  0  0  0  0  0  0
   16.2839   -9.5884   10.1855 C   0  0  0  0  0  0  0  0  0  0  0  0
   17.3977   -9.1405    9.4641 C   0  0  0  0  0  0  0  0  0  0  0  0
   16.3636   -9.9135   11.5462 C   0  0  0  0  0  0  0  0  0  0  0  0
   15.2469  -10.3424   12.1965 N   0  0  0  0  0  0  0  0  0  0  0  0
   14.0562  -10.4644   11.5526 C   0  0  0  0  0  0  0  0  0  0  0  0
   13.9576  -10.1558   10.2333 N   0  0  0  0  0  0  0  0  0  0  0  0
   18.4670   -8.3493    7.3398 C   0  0  0  0  0  0  0  0  0  0  0  0
   18.5992   -8.6235    5.9719 C   0  0  0  0  0  0  0  0  0  0  0  0
   19.7135   -8.1742    5.2627 C   0  0  0  0  0  0  0  0  0  0  0  0
   20.7039   -7.4426    5.9336 C   0  0  0  0  0  0  0  0  0  0  0  0
   20.5614   -7.1837    7.2641 N   0  0  0  0  0  0  0  0  0  0  0  0
   19.4818   -7.6145    7.9691 C   0  0  0  0  0  0  0  0  0  0  0  0
   21.8268   -6.9848    5.2384 O   0  0  0  0  0  0  0  0  0  0  0  0
   21.7939   -5.8088    4.4437 C   0  0  0  0  0  0  0  0  0  0  0  0
   19.8249   -8.4693    3.8589 C   0  0  0  0  0  0  0  0  0  0  0  0
   19.9148   -8.7066    2.7298 N   0  0  0  0  0  0  0  0  0  0  0  0
   17.6053   -9.7913   12.2493 N   0  0  0  0  0  0  0  0  0  0  0  0
   18.4338   -9.6911   11.7271 H   0  0  0  0  0  0  0  0  0  0  0  0
   17.6961   -9.8086   13.7012 C   0  0  0  0  0  0  0  0  0  0  0  0
   17.0238   -8.5612   14.2657 C   0  0  0  0  0  0  0  0  0  0  0  0
   17.2166   -8.5184   15.7124 N   0  0  0  0  0  0  0  0  0  0  0  0
   18.5826   -8.5975   16.2244 C   0  0  0  0  0  0  0  0  0  0  0  0
   19.2680   -9.8382   15.6580 C   0  0  0  0  0  0  0  0  0  0  0  0
   19.1634   -9.8461   14.1343 C   0  0  0  0  0  0  0  0  0  0  0  0
   16.0913   -8.4342   16.5990 C   0  0  0  0  0  0  0  0  0  0  0  0
   14.9215   -8.3763   16.1290 O   0  0  0  0  0  0  0  0  0  0  0  0
   16.2909   -8.4060   18.0833 C   0  0  0  0  0  0  0  0  0  0  0  0
   16.3978   -9.7592   18.6003 N   0  0  0  0  0  0  0  0  0  0  0  0
   15.1390   -7.6881   18.7593 C   0  0  0  0  0  0  0  0  0  0  0  0
   15.5356  -10.2675   18.4035 H   0  0  0  0  0  0  0  0  0  0  0  0
   16.5509   -9.7270   19.6083 H   0  0  0  0  0  0  0  0  0  0  0  0
  1  2  2  0  0  0
  2  3  1  0  0  0
  3  4  2  0  0  0
  4  5  1  0  0  0
  5  6  2  0  0  0
  5  7  1  0  0  0
  7  8  2  0  0  0
  8  9  1  0  0  0
  9 10  2  0  0  0
  7 21  1  0  0  0
 23 21  1  0  0  0
 23 24  1  0  0  0
 24 25  1  0  0  0
 25 26  1  0  0  0
 26 27  1  0  0  0
 27 28  1  0  0  0
 25 29  1  0  0  0
 29 30  2  0  0  0
 29 31  1  0  0  0
 31 32  1  0  0  0
 31 33  1  0  0  0
  1 11  1  0  0  0
 11 12  2  0  0  0
 12 13  1  0  0  0
 13 14  2  0  0  0
 14 15  1  0  0  0
 15 16  2  0  0  0
 14 17  1  0  0  0
 17 18  1  0  0  0
 13 19  1  0  0  0
 19 20  3  0  0  0
  6  1  1  0  0  0
 28 23  1  0  0  0
 16 11  1  0  0  0
 10  4  1  0  0  0
 21 22  1  0  0  0
 32 34  1  0  0  0
 32 35  1  0  0  0
M  END
>  <minimizedAffinity>
1.16021

>  <minimizedRMSD>
3.04247

$$$$
CHEMBL1271529 PubChem-52946970


 32 35  0  0  0  0  0  0  0  0999 V2000
   18.3887   -9.8223    9.1252 C   0  0  0  0  0  0  0  0  0  0  0  0
   18.1005   -8.9128    8.0221 N   0  0  0  0  0  0  0  0  0  0  0  0
   16.8878   -8.5153    7.5609 C   0  0  0  0  0  0  0  0  0  0  0  0
   16.9641   -7.6299    6.5324 N   0  0  0  0  0  0  0  0  0  0  0  0
   18.2918   -7.4692    6.3741 C   0  0  0  0  0  0  0  0  0  0  0  0
   18.9431   -6.6540    5.4518 C   0  0  0  0  0  0  0  0  0  0  0  0
   20.3506   -6.6464    5.4742 C   0  0  0  0  0  0  0  0  0  0  0  0
   21.0602   -7.4410    6.4030 C   0  0  0  0  0  0  0  0  0  0  0  0
   20.3720   -8.2550    7.3218 C   0  0  0  0  0  0  0  0  0  0  0  0
   18.9788   -8.2370    7.2696 C   0  0  0  0  0  0  0  0  0  0  0  0
   15.5879   -9.0367    8.0787 C   0  0  0  0  0  0  0  0  0  0  0  0
   15.7783   -9.6233    9.3947 N   0  0  0  0  0  0  0  0  0  0  0  0
   14.6118   -9.2511   10.1991 C   0  0  0  0  0  0  0  0  0  0  0  0
   14.5529  -10.0707   11.4993 C   0  0  0  0  0  0  0  0  0  0  0  0
   15.6961  -10.8802   11.6413 O   0  0  0  0  0  0  0  0  0  0  0  0
   15.6764  -11.7991   10.5750 C   0  0  0  0  0  0  0  0  0  0  0  0
   15.8125  -11.0794    9.2225 C   0  0  0  0  0  0  0  0  0  0  0  0
   18.4818   -9.0635   10.4115 C   0  0  0  0  0  0  0  0  0  0  0  0
   18.6026   -7.8094   10.3714 O   0  0  0  0  0  0  0  0  0  0  0  0
   17.7600   -9.7761   14.0580 C   0  0  0  0  0  0  0  0  0  0  0  0
   17.8316   -9.1305   12.8179 C   0  0  0  0  0  0  0  0  0  0  0  0
   18.4176   -9.7590   11.7111 C   0  0  0  0  0  0  0  0  0  0  0  0
   18.9406  -11.0498   11.8587 C   0  0  0  0  0  0  0  0  0  0  0  0
   18.8745  -11.7032   13.0904 C   0  0  0  0  0  0  0  0  0  0  0  0
   18.2870  -11.0761   14.1926 C   0  0  0  0  0  0  0  0  0  0  0  0
   18.2349  -11.9553   15.7133 Cl  0  0  0  0  0  0  0  0  0  0  0  0
   18.1581   -8.7490   16.6895 N   0  0  0  0  0  0  0  0  0  0  0  0
   17.0103   -8.9336   15.4117 S   0  0  0  0  0  0  0  0  0  0  0  0
   15.8252   -9.7165   15.9019 O   0  0  0  0  0  0  0  0  0  0  0  0
   16.5478   -7.5726   14.9722 O   0  0  0  0  0  0  0  0  0  0  0  0
   17.7209   -8.2611   17.4713 H   0  0  0  0  0  0  0  0  0  0  0  0
   18.9557   -8.2086   16.3546 H   0  0  0  0  0  0  0  0  0  0  0  0
 27 28  1  0  0  0
 28 29  2  0  0  0
 28 30  2  0  0  0
 28 20  1  0  0  0
 20 21  2  0  0  0
 21 22  1  0  0  0
 22 18  1  0  0  0
 22 23  2  0  0  0
 18 19  2  0  0  0
 18  1  1  0  0  0
  1  2  1  0  0  0
  2  3  1  0  0  0
  3 11  1  0  0  0
  3  4  2  0  0  0
 11 12  1  0  0  0
 12 13  1  0  0  0
 13 14  1  0  0  0
 14 15  1  0  0  0
 15 16  1  0  0  0
 16 17  1  0  0  0
 17 12  1  0  0  0
  4  5  1  0  0  0
  5  6  2  0  0  0
  6  7  1  0  0  0
  7  8  2  0  0  0
  8  9  1  0  0  0
  9 10  2  0  0  0
 10  2  1  0  0  0
 10  5  1  0  0  0
 23 24  1  0  0  0
 24 25  2  0  0  0
 25 26  1  0  0  0
 25 20  1  0  0  0
 27 31  1  0  0  0
 27 32  1  0  0  0
M  END
>  <minimizedAffinity>
5.10805

>  <minimizedRMSD>
3.05999

$$$$
CHEMBL569621 PubChem-11612373


 35 38  0  0  0  0  0  0  0  0999 V2000
   16.4056   -9.8239   12.3881 C   0  0  0  0  0  0  0  0  0  0  0  0
   15.1979  -10.0872   12.6413 O   0  0  0  0  0  0  0  0  0  0  0  0
   16.8469   -9.7146   11.0262 N   0  0  0  0  0  0  0  0  0  0  0  0
   15.8957   -9.9103    9.9285 C   0  0  0  0  0  0  0  0  0  0  0  0
   16.0890   -8.8243    8.8714 C   0  0  0  0  0  0  0  0  0  0  0  0
   17.5086   -8.6833    8.5564 N   0  0  0  0  0  0  0  0  0  0  0  0
   18.4196   -8.4207    9.6676 C   0  0  0  0  0  0  0  0  0  0  0  0
   18.2650   -9.5170   10.7167 C   0  0  0  0  0  0  0  0  0  0  0  0
   16.0696  -11.2897    9.3151 C   0  0  0  0  0  0  0  0  0  0  0  0
   17.9343   -8.6138    7.1828 C   0  0  0  0  0  0  0  0  0  0  0  0
   17.1197   -9.1282    6.2174 N   0  0  0  0  0  0  0  0  0  0  0  0
   17.4403   -9.1008    4.8972 C   0  0  0  0  0  0  0  0  0  0  0  0
   18.6444   -8.5396    4.4792 C   0  0  0  0  0  0  0  0  0  0  0  0
   19.5177   -8.0156    5.4291 C   0  0  0  0  0  0  0  0  0  0  0  0
   19.1759   -8.0502    6.8023 C   0  0  0  0  0  0  0  0  0  0  0  0
   20.0930   -7.5536    7.7411 C   0  0  0  0  0  0  0  0  0  0  0  0
   21.3131   -7.0129    7.3264 C   0  0  0  0  0  0  0  0  0  0  0  0
   21.6339   -6.9688    5.9677 C   0  0  0  0  0  0  0  0  0  0  0  0
   20.7387   -7.4714    5.0205 C   0  0  0  0  0  0  0  0  0  0  0  0
   17.3631   -9.6034   13.5220 C   0  0  0  0  0  0  0  0  0  0  0  0
   18.7100  -10.2179   13.1941 C   0  0  0  0  0  0  0  0  0  0  0  0
   16.8549  -10.1805   14.7211 O   0  0  0  0  0  0  0  0  0  0  0  0
   16.8644   -9.4993   17.0432 C   0  0  0  0  0  0  0  0  0  0  0  0
   16.3072   -8.7435   18.0846 C   0  0  0  0  0  0  0  0  0  0  0  0
   15.1994   -7.9254   17.8376 C   0  0  0  0  0  0  0  0  0  0  0  0
   14.6727   -7.8702   16.5837 N   0  0  0  0  0  0  0  0  0  0  0  0
   15.1928   -8.5920   15.5564 C   0  0  0  0  0  0  0  0  0  0  0  0
   16.3009   -9.4260   15.7634 C   0  0  0  0  0  0  0  0  0  0  0  0
   14.6038   -7.1277   18.9204 C   0  0  0  0  0  0  0  0  0  0  0  0
   13.6478   -6.3449   18.6677 O   0  0  0  0  0  0  0  0  0  0  0  0
   15.1053   -7.2381   20.2550 N   0  0  0  0  0  0  0  0  0  0  0  0
   14.5467   -6.4694   21.3542 C   0  0  0  0  0  0  0  0  0  0  0  0
   15.8520   -7.8540   20.4346 H   0  0  0  0  0  0  0  0  0  0  0  0
   17.9718  -10.3270   17.2578 O   0  0  0  0  0  0  0  0  0  0  0  0
   17.9001  -11.7440   17.1756 C   0  0  0  0  0  0  0  0  0  0  0  0
 23 24  2  0  0  0
 24 25  1  0  0  0
 25 26  2  0  0  0
 26 27  1  0  0  0
 27 28  2  0  0  0
 28 22  1  0  0  0
 22 20  1  0  0  0
 20 21  1  0  0  0
 20  1  1  0  0  0
  1  2  2  0  0  0
  1  3  1  0  0  0
  3  4  1  0  0  0
  4  5  1  0  0  0
  5  6  1  0  0  0
  6  7  1  0  0  0
  7  8  1  0  0  0
  6 10  1  0  0  0
 10 11  2  0  0  0
 11 12  1  0  0  0
 12 13  2  0  0  0
 13 14  1  0  0  0
 14 15  2  0  0  0
 15 16  1  0  0  0
 16 17  2  0  0  0
 17 18  1  0  0  0
 18 19  2  0  0  0
  4  9  1  0  0  0
 25 29  1  0  0  0
 29 30  2  0  0  0
 29 31  1  0  0  0
 31 32  1  0  0  0
 23 34  1  0  0  0
 34 35  1  0  0  0
 28 23  1  0  0  0
  8  3  1  0  0  0
 15 10  1  0  0  0
 19 14  1  0  0  0
 31 33  1  0  0  0
M  END
>  <minimizedAffinity>
-0.12451

>  <minimizedRMSD>
3.06767

$$$$
CHEMBL3397321 PubChem-118726590


 39 42  0  0  0  0  0  0  0  0999 V2000
   16.5618   -9.2634   10.8833 C   0  0  0  0  0  0  0  0  0  0  0  0
   15.7045  -10.4187   11.3308 C   0  0  0  0  0  0  0  0  0  0  0  0
   16.0931  -10.5843   12.7709 C   0  0  0  0  0  0  0  0  0  0  0  0
   17.4961  -10.0093   12.8146 C   0  0  0  0  0  0  0  0  0  0  0  0
   17.7381   -9.2417   11.6561 O   0  0  0  0  0  0  0  0  0  0  0  0
   15.2704   -9.8225   13.6057 O   0  0  0  0  0  0  0  0  0  0  0  0
   14.3496  -10.1116   11.1838 O   0  0  0  0  0  0  0  0  0  0  0  0
   15.3129   -8.8909   13.3389 H   0  0  0  0  0  0  0  0  0  0  0  0
   14.1458   -9.3029   11.6791 H   0  0  0  0  0  0  0  0  0  0  0  0
   16.8890   -9.3926    9.4691 N   0  0  0  0  0  0  0  0  0  0  0  0
   17.7700   -8.6727    8.7699 C   0  0  0  0  0  0  0  0  0  0  0  0
   17.7398   -9.0613    7.4775 C   0  0  0  0  0  0  0  0  0  0  0  0
   16.8325  -10.0400    7.3007 N   0  0  0  0  0  0  0  0  0  0  0  0
   16.3195  -10.2177    8.5519 C   0  0  0  0  0  0  0  0  0  0  0  0
   18.5727   -8.4488    6.5521 C   0  0  0  0  0  0  0  0  0  0  0  0
   19.4018   -7.4592    6.9984 N   0  0  0  0  0  0  0  0  0  0  0  0
   19.4124   -7.0806    8.3179 C   0  0  0  0  0  0  0  0  0  0  0  0
   18.5874   -7.6908    9.2226 N   0  0  0  0  0  0  0  0  0  0  0  0
   18.5679   -8.8299    5.1807 N   0  0  0  0  0  0  0  0  0  0  0  0
   17.9660   -9.5446    4.8705 H   0  0  0  0  0  0  0  0  0  0  0  0
   19.1664   -8.3789    4.5423 H   0  0  0  0  0  0  0  0  0  0  0  0
   18.5327  -11.1199   12.9053 C   0  0  0  0  0  0  0  0  0  0  0  0
   19.3796  -11.0800   14.5134 S   0  0  0  0  0  0  0  0  0  0  0  0
   17.8703  -11.5791   15.3945 C   0  0  0  0  0  0  0  0  0  0  0  0
   17.6614  -10.7124   16.6263 C   0  0  0  0  0  0  0  0  0  0  0  0
   17.6755   -9.2301   16.2737 C   0  0  0  0  0  0  0  0  0  0  0  0
   18.7993   -8.5865   16.9307 N   0  0  0  0  0  0  0  0  0  0  0  0
   18.7004   -8.6786   17.9417 H   0  0  0  0  0  0  0  0  0  0  0  0
   18.8194   -7.5981   16.6796 H   0  0  0  0  0  0  0  0  0  0  0  0
   16.4021   -8.5632   16.6825 C   0  0  0  0  0  0  0  0  0  0  0  0
   15.5839   -8.2077   15.7935 O   0  0  0  0  0  0  0  0  0  0  0  0
   16.1260   -8.3349   18.0705 N   0  0  0  0  0  0  0  0  0  0  0  0
   16.8165   -8.6022   18.7194 H   0  0  0  0  0  0  0  0  0  0  0  0
   14.9269   -7.7495   18.5888 C   0  0  0  0  0  0  0  0  0  0  0  0
   13.7998   -7.3798   17.8769 C   0  0  0  0  0  0  0  0  0  0  0  0
   12.9164   -6.8823   18.7643 N   0  0  0  0  0  0  0  0  0  0  0  0
   13.4636   -6.9394   19.9680 N   0  0  0  0  0  0  0  0  0  0  0  0
   14.6988   -7.4658   19.9163 C   0  0  0  0  0  0  0  0  0  0  0  0
   12.7995   -6.4890   21.1765 C   0  0  0  0  0  0  0  0  0  0  0  0
  1 10  1  0  0  0
  1  2  1  0  0  0
  2  3  1  0  0  0
  3  4  1  0  0  0
  4  5  1  0  0  0
  4 22  1  0  0  0
 22 23  1  0  0  0
 23 24  1  0  0  0
 24 25  1  0  0  0
 25 26  1  0  0  0
 26 30  1  0  0  0
 30 31  2  0  0  0
 30 32  1  0  0  0
 32 34  1  0  0  0
 34 35  1  0  0  0
 35 36  2  0  0  0
 36 37  1  0  0  0
 37 38  1  0  0  0
 37 39  1  0  0  0
 26 27  1  0  0  0
  3  6  1  0  0  0
  2  7  1  0  0  0
 10 11  1  0  0  0
 11 12  2  0  0  0
 12 13  1  0  0  0
 13 14  2  0  0  0
 12 15  1  0  0  0
 15 16  2  0  0  0
 16 17  1  0  0  0
 17 18  2  0  0  0
 15 19  1  0  0  0
 14 10  1  0  0  0
  5  1  1  0  0  0
 38 34  2  0  0  0
 18 11  1  0  0  0
 32 33  1  0  0  0
 27 28  1  0  0  0
 27 29  1  0  0  0
  6  8  1  0  0  0
  7  9  1  0  0  0
 19 20  1  0  0  0
 19 21  1  0  0  0
M  END
>  <minimizedAffinity>
-7.25322

>  <minimizedRMSD>
3.06771

$$$$
CHEMBL3964074 PubChem-126842437


 34 38  0  0  0  0  0  0  0  0999 V2000
   15.6205   -8.8206   17.1079 C   0  0  0  0  0  0  0  0  0  0  0  0
   15.8804   -8.7447   15.7544 C   0  0  0  0  0  0  0  0  0  0  0  0
   16.9238   -9.5663   15.5350 N   0  0  0  0  0  0  0  0  0  0  0  0
   17.3341  -10.1236   16.6630 N   0  0  0  0  0  0  0  0  0  0  0  0
   16.5493   -9.6751   17.6659 C   0  0  0  0  0  0  0  0  0  0  0  0
   14.8436   -7.4875   19.1408 C   0  0  0  0  0  0  0  0  0  0  0  0
   13.8279   -7.1695   19.8103 O   0  0  0  0  0  0  0  0  0  0  0  0
   14.6484   -8.0689   17.8469 N   0  0  0  0  0  0  0  0  0  0  0  0
   13.7673   -7.9411   17.4267 H   0  0  0  0  0  0  0  0  0  0  0  0
   16.5666   -6.6422   20.8844 C   0  0  0  0  0  0  0  0  0  0  0  0
   16.1915   -7.1350   19.6384 C   0  0  0  0  0  0  0  0  0  0  0  0
   17.3004   -7.2958   18.8912 N   0  0  0  0  0  0  0  0  0  0  0  0
   18.3109   -6.8841   19.6900 C   0  0  0  0  0  0  0  0  0  0  0  0
   17.8710   -6.5033   20.8696 O   0  0  0  0  0  0  0  0  0  0  0  0
   13.1940   -3.8358   23.3349 C   0  0  0  0  0  0  0  0  0  0  0  0
   14.1143   -5.0028   23.2858 C   0  0  0  0  0  0  0  0  0  0  0  0
   14.2245   -5.8489   24.3897 C   0  0  0  0  0  0  0  0  0  0  0  0
   15.0926   -6.9445   24.3445 C   0  0  0  0  0  0  0  0  0  0  0  0
   15.8552   -7.1872   23.1966 C   0  0  0  0  0  0  0  0  0  0  0  0
   15.7484   -6.3461   22.0799 C   0  0  0  0  0  0  0  0  0  0  0  0
   14.8678   -5.2553   22.1336 C   0  0  0  0  0  0  0  0  0  0  0  0
   17.5393   -9.8130   14.2406 C   0  0  0  0  0  0  0  0  0  0  0  0
   16.7600   -9.1042   13.1461 C   0  0  0  0  0  0  0  0  0  0  0  0
   16.4283  -10.0168   12.1097 O   0  0  0  0  0  0  0  0  0  0  0  0
   16.7396   -9.7482   10.7753 C   0  0  0  0  0  0  0  0  0  0  0  0
   17.7417   -8.8814   10.4516 N   0  0  0  0  0  0  0  0  0  0  0  0
   18.0331   -8.5964    9.1559 C   0  0  0  0  0  0  0  0  0  0  0  0
   19.0579   -7.7013    8.8380 C   0  0  0  0  0  0  0  0  0  0  0  0
   19.3444   -7.4211    7.4965 C   0  0  0  0  0  0  0  0  0  0  0  0
   18.6095   -8.0362    6.4745 C   0  0  0  0  0  0  0  0  0  0  0  0
   17.5832   -8.9357    6.7878 C   0  0  0  0  0  0  0  0  0  0  0  0
   17.2925   -9.2175    8.1283 C   0  0  0  0  0  0  0  0  0  0  0  0
   16.3044  -10.0932    8.4530 N   0  0  0  0  0  0  0  0  0  0  0  0
   16.0120  -10.3693    9.7553 C   0  0  0  0  0  0  0  0  0  0  0  0
 15 16  1  0  0  0
 16 17  2  0  0  0
 17 18  1  0  0  0
 18 19  2  0  0  0
 19 20  1  0  0  0
 20 21  2  0  0  0
 20 10  1  0  0  0
 10 11  2  0  0  0
 11 12  1  0  0  0
 12 13  2  0  0  0
 13 14  1  0  0  0
 11  6  1  0  0  0
  6  7  2  0  0  0
  6  8  1  0  0  0
  8  1  1  0  0  0
  1  2  2  0  0  0
  2  3  1  0  0  0
  3  4  1  0  0  0
  4  5  2  0  0  0
  3 22  1  0  0  0
 22 23  1  0  0  0
 23 24  1  0  0  0
 24 25  1  0  0  0
 25 26  2  0  0  0
 26 27  1  0  0  0
 27 28  2  0  0  0
 28 29  1  0  0  0
 29 30  2  0  0  0
 30 31  1  0  0  0
 31 32  2  0  0  0
 32 33  1  0  0  0
 33 34  2  0  0  0
 21 16  1  0  0  0
 14 10  1  0  0  0
  5  1  1  0  0  0
 34 25  1  0  0  0
 32 27  1  0  0  0
  8  9  1  0  0  0
M  END
>  <minimizedAffinity>
-4.24595

>  <minimizedRMSD>
3.07391

$$$$
CHEMBL605462 PubChem-46874345


 38 40  0  0  0  0  0  0  0  0999 V2000
   18.4348   -9.5298    9.2700 C   0  0  0  0  0  0  0  0  0  0  0  0
   18.7848   -8.2032    9.9129 C   0  0  0  0  0  0  0  0  0  0  0  0
   18.0218   -8.2246   11.2168 C   0  0  0  0  0  0  0  0  0  0  0  0
   17.4418   -9.6162   11.2663 C   0  0  0  0  0  0  0  0  0  0  0  0
   17.3459  -10.0974    9.9520 O   0  0  0  0  0  0  0  0  0  0  0  0
   18.8512   -8.0128   12.3219 O   0  0  0  0  0  0  0  0  0  0  0  0
   20.1663   -8.1368   10.1127 O   0  0  0  0  0  0  0  0  0  0  0  0
   19.5436   -8.6919   12.3415 H   0  0  0  0  0  0  0  0  0  0  0  0
   20.4526   -8.8945   10.6463 H   0  0  0  0  0  0  0  0  0  0  0  0
   18.1048   -9.3414    7.8635 N   0  0  0  0  0  0  0  0  0  0  0  0
   18.7945   -8.6501    6.9529 C   0  0  0  0  0  0  0  0  0  0  0  0
   18.1353   -8.6805    5.7752 C   0  0  0  0  0  0  0  0  0  0  0  0
   16.9956   -9.3880    5.8909 N   0  0  0  0  0  0  0  0  0  0  0  0
   17.0045   -9.7798    7.1971 C   0  0  0  0  0  0  0  0  0  0  0  0
   18.6609   -8.0238    4.6719 C   0  0  0  0  0  0  0  0  0  0  0  0
   19.8454   -7.3617    4.8295 N   0  0  0  0  0  0  0  0  0  0  0  0
   20.4957   -7.3443    6.0384 C   0  0  0  0  0  0  0  0  0  0  0  0
   19.9690   -7.9948    7.1205 N   0  0  0  0  0  0  0  0  0  0  0  0
   17.9938   -8.0317    3.4147 N   0  0  0  0  0  0  0  0  0  0  0  0
   17.1406   -8.5123    3.3132 H   0  0  0  0  0  0  0  0  0  0  0  0
   18.3856   -7.5565    2.6466 H   0  0  0  0  0  0  0  0  0  0  0  0
   16.0683   -9.5868   11.9182 C   0  0  0  0  0  0  0  0  0  0  0  0
   16.1331  -10.1331   13.2669 N   0  0  0  0  0  0  0  0  0  0  0  0
   16.3868   -9.3294   14.4214 C   0  0  0  0  0  0  0  0  0  0  0  0
   16.4838   -8.0760   14.3173 O   0  0  0  0  0  0  0  0  0  0  0  0
   15.9958  -11.1003   13.3889 H   0  0  0  0  0  0  0  0  0  0  0  0
   16.5416   -9.9944   15.7577 C   0  0  0  0  0  0  0  0  0  0  0  0
   16.5215   -9.0064   16.8322 N   0  0  0  0  0  0  0  0  0  0  0  0
   15.3014   -8.4738   17.3463 C   0  0  0  0  0  0  0  0  0  0  0  0
   14.1916   -8.8481   16.8833 O   0  0  0  0  0  0  0  0  0  0  0  0
   15.3417   -7.4681   18.4392 C   0  0  0  0  0  0  0  0  0  0  0  0
   17.3752   -8.6982   17.2136 H   0  0  0  0  0  0  0  0  0  0  0  0
   17.7533  -10.9437   15.8770 C   0  0  0  0  0  0  0  0  0  0  0  0
   17.3583  -12.3741   15.5309 C   0  0  0  0  0  0  0  0  0  0  0  0
   18.1958  -10.9660   17.3289 C   0  0  0  0  0  0  0  0  0  0  0  0
   19.1920  -10.3677   14.8799 S   0  0  0  0  0  0  0  0  0  0  0  0
   19.3659  -11.8171   13.9061 N   0  0  0  0  0  0  0  0  0  0  0  0
   18.7293  -11.9517   12.9071 O   0  0  0  0  0  0  0  0  0  0  0  0
 10  1  1  0  0  0
  1  2  1  0  0  0
  2  3  1  0  0  0
  3  4  1  0  0  0
  4  5  1  0  0  0
  4 22  1  0  0  0
 22 23  1  0  0  0
 23 24  1  0  0  0
 24 25  2  0  0  0
 24 27  1  0  0  0
 27 33  1  0  0  0
 33 36  1  0  0  0
 36 37  1  0  0  0
 37 38  2  0  0  0
 33 34  1  0  0  0
 33 35  1  0  0  0
 27 28  1  0  0  0
 28 29  1  0  0  0
 29 30  2  0  0  0
 29 31  1  0  0  0
  3  6  1  0  0  0
  2  7  1  0  0  0
 10 11  1  0  0  0
 11 12  2  0  0  0
 12 13  1  0  0  0
 13 14  2  0  0  0
 12 15  1  0  0  0
 15 16  2  0  0  0
 16 17  1  0  0  0
 17 18  2  0  0  0
 15 19  1  0  0  0
 14 10  1  0  0  0
  5  1  1  0  0  0
 18 11  1  0  0  0
 23 26  1  0  0  0
 28 32  1  0  0  0
  6  8  1  0  0  0
  7  9  1  0  0  0
 19 20  1  0  0  0
 19 21  1  0  0  0
M  END
>  <minimizedAffinity>
1.06284

>  <minimizedRMSD>
3.07590

$$$$
CHEMBL4089408 PubChem-132609302


 36 38  0  0  0  0  0  0  0  0999 V2000
   17.0138   -9.2246   15.9488 C   0  0  0  0  0  0  0  0  0  0  0  0
   18.4019   -9.3885   15.9025 C   0  0  0  0  0  0  0  0  0  0  0  0
   19.0094   -9.9002   14.7523 C   0  0  0  0  0  0  0  0  0  0  0  0
   18.2375  -10.2477   13.6383 C   0  0  0  0  0  0  0  0  0  0  0  0
   16.8437  -10.0965   13.6958 C   0  0  0  0  0  0  0  0  0  0  0  0
   16.2348   -9.5851   14.8448 C   0  0  0  0  0  0  0  0  0  0  0  0
   18.8958  -10.7891   12.4849 N   0  0  0  0  0  0  0  0  0  0  0  0
   18.7318  -10.3829   11.1192 C   0  0  0  0  0  0  0  0  0  0  0  0
   19.2115  -11.1050   10.2066 O   0  0  0  0  0  0  0  0  0  0  0  0
   19.5320  -11.5222   12.6491 H   0  0  0  0  0  0  0  0  0  0  0  0
   18.0579   -9.0980   10.7478 C   0  0  0  0  0  0  0  0  0  0  0  0
   18.0523   -8.9197    9.2934 N   0  0  0  0  0  0  0  0  0  0  0  0
   17.0355   -9.4512    8.5411 C   0  0  0  0  0  0  0  0  0  0  0  0
   17.0316   -9.3011    7.1912 N   0  0  0  0  0  0  0  0  0  0  0  0
   18.0204   -8.6291    6.5544 C   0  0  0  0  0  0  0  0  0  0  0  0
   17.9926   -8.4933    5.1633 C   0  0  0  0  0  0  0  0  0  0  0  0
   19.0139   -7.7987    4.5080 C   0  0  0  0  0  0  0  0  0  0  0  0
   20.0638   -7.2381    5.2418 C   0  0  0  0  0  0  0  0  0  0  0  0
   20.0961   -7.3709    6.6332 C   0  0  0  0  0  0  0  0  0  0  0  0
   19.0748   -8.0674    7.2967 C   0  0  0  0  0  0  0  0  0  0  0  0
   19.0685   -8.2263    8.6889 C   0  0  0  0  0  0  0  0  0  0  0  0
   20.0003   -7.7280    9.3811 O   0  0  0  0  0  0  0  0  0  0  0  0
   15.9059  -10.1982    9.1725 C   0  0  0  0  0  0  0  0  0  0  0  0
   16.2545   -8.5920   17.3976 S   0  0  0  0  0  0  0  0  0  0  0  0
   15.9857   -9.7213   18.3522 O   0  0  0  0  0  0  0  0  0  0  0  0
   17.1721   -7.5964   18.0509 O   0  0  0  0  0  0  0  0  0  0  0  0
   12.6453   -6.6918   17.5086 N   0  0  0  0  0  0  0  0  0  0  0  0
   13.8538   -7.3161   17.9402 C   0  0  0  0  0  0  0  0  0  0  0  0
   14.1121   -7.4211   19.1701 O   0  0  0  0  0  0  0  0  0  0  0  0
   14.7671   -7.8191   16.9654 N   0  0  0  0  0  0  0  0  0  0  0  0
   12.4625   -6.6216   16.5438 H   0  0  0  0  0  0  0  0  0  0  0  0
   14.5428   -7.7227   16.0116 H   0  0  0  0  0  0  0  0  0  0  0  0
   11.6753   -6.1558   18.4511 C   0  0  0  0  0  0  0  0  0  0  0  0
   12.2104   -4.8790   19.0812 C   0  0  0  0  0  0  0  0  0  0  0  0
   11.6919   -6.0570   21.2186 C   0  0  0  0  0  0  0  0  0  0  0  0
   11.7112   -4.7168   20.5086 C   0  0  0  0  0  0  0  0  0  0  0  0
 35 36  1  0  0  0
 36 34  1  0  0  0
 34 33  1  0  0  0
 33 27  1  0  0  0
 27 28  1  0  0  0
 28 29  2  0  0  0
 28 30  1  0  0  0
 30 24  1  0  0  0
 24 25  2  0  0  0
 24 26  2  0  0  0
 24  1  1  0  0  0
  1  2  2  0  0  0
  2  3  1  0  0  0
  3  4  2  0  0  0
  4  5  1  0  0  0
  5  6  2  0  0  0
  4  7  1  0  0  0
  7  8  1  0  0  0
  8  9  2  0  0  0
  8 11  1  0  0  0
 11 12  1  0  0  0
 12 13  1  0  0  0
 13 14  2  0  0  0
 14 15  1  0  0  0
 15 16  2  0  0  0
 16 17  1  0  0  0
 17 18  2  0  0  0
 18 19  1  0  0  0
 19 20  2  0  0  0
 20 21  1  0  0  0
 21 22  2  0  0  0
 13 23  1  0  0  0
  6  1  1  0  0  0
 21 12  1  0  0  0
 20 15  1  0  0  0
 27 31  1  0  0  0
 30 32  1  0  0  0
  7 10  1  0  0  0
M  END
>  <minimizedAffinity>
-3.33177

>  <minimizedRMSD>
3.07696

$$$$
CHEMBL3973443 PubChem-130409062


 35 38  0  0  0  0  0  0  0  0999 V2000
   17.3698  -11.0587   14.1723 C   0  0  0  0  0  0  0  0  0  0  0  0
   17.9456  -12.3298   14.2350 O   0  0  0  0  0  0  0  0  0  0  0  0
   18.9103  -12.2513   14.1706 H   0  0  0  0  0  0  0  0  0  0  0  0
   17.8369  -10.2018   15.3568 C   0  0  0  0  0  0  0  0  0  0  0  0
   17.6889   -8.8121   15.1034 O   0  0  0  0  0  0  0  0  0  0  0  0
   16.3372   -8.4517   15.2832 C   0  0  0  0  0  0  0  0  0  0  0  0
   15.9723   -8.4487   16.7732 C   0  0  0  0  0  0  0  0  0  0  0  0
   14.6135   -8.7279   16.9195 O   0  0  0  0  0  0  0  0  0  0  0  0
   16.7954   -9.4698   17.5643 C   0  0  0  0  0  0  0  0  0  0  0  0
   17.9382   -8.8490   18.0749 O   0  0  0  0  0  0  0  0  0  0  0  0
   17.1845  -10.6588   16.6793 C   0  0  0  0  0  0  0  0  0  0  0  0
   18.0380  -11.5244   17.3649 O   0  0  0  0  0  0  0  0  0  0  0  0
   14.4242   -9.6095   16.5620 H   0  0  0  0  0  0  0  0  0  0  0  0
   18.4771   -8.5111   17.3425 H   0  0  0  0  0  0  0  0  0  0  0  0
   18.8581  -11.0582   17.5908 H   0  0  0  0  0  0  0  0  0  0  0  0
   16.0859   -7.0765   14.6924 C   0  0  0  0  0  0  0  0  0  0  0  0
   17.0219   -6.1683   15.1869 O   0  0  0  0  0  0  0  0  0  0  0  0
   16.9442   -6.1173   16.1524 H   0  0  0  0  0  0  0  0  0  0  0  0
   17.6927  -10.4185   12.8518 C   0  0  0  0  0  0  0  0  0  0  0  0
   19.0215  -10.3628   12.4091 C   0  0  0  0  0  0  0  0  0  0  0  0
   19.3353   -9.7594   11.1898 C   0  0  0  0  0  0  0  0  0  0  0  0
   18.3296   -9.1938   10.3913 C   0  0  0  0  0  0  0  0  0  0  0  0
   16.9991   -9.2690   10.8304 C   0  0  0  0  0  0  0  0  0  0  0  0
   16.6752   -9.8715   12.0489 C   0  0  0  0  0  0  0  0  0  0  0  0
   15.2434   -9.9189   12.4638 C   0  0  0  0  0  0  0  0  0  0  0  0
   18.6787   -8.5752    9.0834 C   0  0  0  0  0  0  0  0  0  0  0  0
   19.6620   -7.5711    9.0701 C   0  0  0  0  0  0  0  0  0  0  0  0
   20.0536   -6.9552    7.8807 C   0  0  0  0  0  0  0  0  0  0  0  0
   19.4654   -7.3280    6.6740 C   0  0  0  0  0  0  0  0  0  0  0  0
   18.4789   -8.3133    6.6541 C   0  0  0  0  0  0  0  0  0  0  0  0
   18.0703   -8.9457    7.8540 C   0  0  0  0  0  0  0  0  0  0  0  0
   17.0487   -9.9044    7.7853 C   0  0  0  0  0  0  0  0  0  0  0  0
   16.4759  -10.2282    6.5542 C   0  0  0  0  0  0  0  0  0  0  0  0
   16.9007   -9.6125    5.4193 N   0  0  0  0  0  0  0  0  0  0  0  0
   17.8793   -8.6697    5.4448 C   0  0  0  0  0  0  0  0  0  0  0  0
  1  4  1  0  0  0
  4  5  1  0  0  0
  5  6  1  0  0  0
  6  7  1  0  0  0
  7  8  1  0  0  0
  7  9  1  0  0  0
  9 10  1  0  0  0
  9 11  1  0  0  0
 11 12  1  0  0  0
  6 16  1  0  0  0
 16 17  1  0  0  0
  1  2  1  0  0  0
  1 19  1  0  0  0
 19 20  2  0  0  0
 20 21  1  0  0  0
 21 22  2  0  0  0
 22 23  1  0  0  0
 23 24  2  0  0  0
 24 25  1  0  0  0
 22 26  1  0  0  0
 26 27  2  0  0  0
 27 28  1  0  0  0
 28 29  2  0  0  0
 29 30  1  0  0  0
 30 31  2  0  0  0
 31 32  1  0  0  0
 32 33  2  0  0  0
 33 34  1  0  0  0
 34 35  2  0  0  0
 11  4  1  0  0  0
 24 19  1  0  0  0
 31 26  1  0  0  0
 35 30  1  0  0  0
  8 13  1  0  0  0
 10 14  1  0  0  0
 12 15  1  0  0  0
 17 18  1  0  0  0
  2  3  1  0  0  0
M  END
>  <minimizedAffinity>
2.61941

>  <minimizedRMSD>
3.07873

$$$$
CHEMBL4475237 PubChem-157291937 PubChem-58138789


 33 36  0  0  0  0  0  0  0  0999 V2000
   15.8970   -9.3776   10.6427 N   0  0  0  0  0  0  0  0  0  0  0  0
   17.3010   -9.6524   10.6779 C   0  0  0  0  0  0  0  0  0  0  0  0
   17.7581  -10.4652   11.5276 O   0  0  0  0  0  0  0  0  0  0  0  0
   15.5520   -8.7835    9.9375 H   0  0  0  0  0  0  0  0  0  0  0  0
   18.2215   -8.9969    9.7235 C   0  0  0  0  0  0  0  0  0  0  0  0
   18.0210   -9.0042    8.3337 C   0  0  0  0  0  0  0  0  0  0  0  0
   17.0284   -9.5581    7.5454 C   0  0  0  0  0  0  0  0  0  0  0  0
   17.3222   -9.2628    6.2552 N   0  0  0  0  0  0  0  0  0  0  0  0
   18.4457   -8.5544    6.2073 N   0  0  0  0  0  0  0  0  0  0  0  0
   18.8867   -8.3867    7.4703 C   0  0  0  0  0  0  0  0  0  0  0  0
   20.0217   -7.7129    7.9233 C   0  0  0  0  0  0  0  0  0  0  0  0
   20.2550   -7.6844    9.3077 C   0  0  0  0  0  0  0  0  0  0  0  0
   19.3643   -8.3190   10.1979 C   0  0  0  0  0  0  0  0  0  0  0  0
   19.0300   -8.0817    4.9776 C   0  0  0  0  0  0  0  0  0  0  0  0
   20.1845   -7.2822    4.9765 C   0  0  0  0  0  0  0  0  0  0  0  0
   20.7377   -6.8329    3.7742 C   0  0  0  0  0  0  0  0  0  0  0  0
   20.1418   -7.1788    2.5593 C   0  0  0  0  0  0  0  0  0  0  0  0
   18.9932   -7.9737    2.5467 C   0  0  0  0  0  0  0  0  0  0  0  0
   18.4409   -8.4223    3.7498 C   0  0  0  0  0  0  0  0  0  0  0  0
   20.6773   -6.7437    1.3937 F   0  0  0  0  0  0  0  0  0  0  0  0
   14.9553   -9.9369   11.6029 C   0  0  0  0  0  0  0  0  0  0  0  0
   16.2846   -9.1342   15.6033 C   0  0  0  0  0  0  0  0  0  0  0  0
   16.2450   -8.1035   14.6579 C   0  0  0  0  0  0  0  0  0  0  0  0
   15.8077   -8.3630   13.3558 C   0  0  0  0  0  0  0  0  0  0  0  0
   15.4056   -9.6542   12.9960 C   0  0  0  0  0  0  0  0  0  0  0  0
   15.4471  -10.6857   13.9399 C   0  0  0  0  0  0  0  0  0  0  0  0
   15.8845  -10.4259   15.2418 C   0  0  0  0  0  0  0  0  0  0  0  0
   16.8304   -8.7986   17.2383 S   0  0  0  0  0  0  0  0  0  0  0  0
   18.2493   -8.3064   17.1919 O   0  0  0  0  0  0  0  0  0  0  0  0
   16.7800  -10.0552   18.0634 O   0  0  0  0  0  0  0  0  0  0  0  0
   15.4161   -8.0775   19.2703 C   0  0  0  0  0  0  0  0  0  0  0  0
   15.8261   -7.5891   17.9645 N   0  0  0  0  0  0  0  0  0  0  0  0
   16.3495   -6.7197   18.0678 H   0  0  0  0  0  0  0  0  0  0  0  0
 31 32  1  0  0  0
 32 28  1  0  0  0
 28 29  2  0  0  0
 28 30  2  0  0  0
 28 22  1  0  0  0
 22 23  2  0  0  0
 23 24  1  0  0  0
 24 25  2  0  0  0
 25 26  1  0  0  0
 25 21  1  0  0  0
 26 27  2  0  0  0
 27 22  1  0  0  0
 21  1  1  0  0  0
  1  2  1  0  0  0
  2  3  2  0  0  0
  2  5  1  0  0  0
  5  6  2  0  0  0
  6  7  1  0  0  0
  7  8  2  0  0  0
  8  9  1  0  0  0
  9 10  1  0  0  0
  9 14  1  0  0  0
 10 11  2  0  0  0
 10  6  1  0  0  0
 11 12  1  0  0  0
 12 13  2  0  0  0
 13  5  1  0  0  0
 14 15  2  0  0  0
 15 16  1  0  0  0
 16 17  2  0  0  0
 17 18  1  0  0  0
 17 20  1  0  0  0
 18 19  2  0  0  0
 19 14  1  0  0  0
 32 33  1  0  0  0
  1  4  1  0  0  0
M  END
>  <minimizedAffinity>
-2.45245

>  <minimizedRMSD>
3.07976

$$$$
CHEMBL4475237 PubChem-157291937 PubChem-58138789


 33 36  0  0  0  0  0  0  0  0999 V2000
   15.9272   -9.4415   10.5758 N   0  0  0  0  0  0  0  0  0  0  0  0
   17.3369   -9.6795   10.6391 C   0  0  0  0  0  0  0  0  0  0  0  0
   17.7975  -10.4833   11.4956 O   0  0  0  0  0  0  0  0  0  0  0  0
   15.5799   -8.8595    9.8617 H   0  0  0  0  0  0  0  0  0  0  0  0
   18.2590   -8.9992    9.7040 C   0  0  0  0  0  0  0  0  0  0  0  0
   18.0633   -8.9737    8.3139 C   0  0  0  0  0  0  0  0  0  0  0  0
   17.0722   -9.5070    7.5096 C   0  0  0  0  0  0  0  0  0  0  0  0
   17.3695   -9.1801    6.2278 N   0  0  0  0  0  0  0  0  0  0  0  0
   18.4938   -8.4717    6.2005 N   0  0  0  0  0  0  0  0  0  0  0  0
   18.9313   -8.3352    7.4683 C   0  0  0  0  0  0  0  0  0  0  0  0
   20.0631   -7.6699    7.9411 C   0  0  0  0  0  0  0  0  0  0  0  0
   20.2910   -7.6729    9.3267 C   0  0  0  0  0  0  0  0  0  0  0  0
   19.3983   -8.3299   10.1986 C   0  0  0  0  0  0  0  0  0  0  0  0
   19.0806   -7.9676    4.9846 C   0  0  0  0  0  0  0  0  0  0  0  0
   20.1908   -7.1080    5.0101 C   0  0  0  0  0  0  0  0  0  0  0  0
   20.7472   -6.6287    3.8210 C   0  0  0  0  0  0  0  0  0  0  0  0
   20.1987   -7.0043    2.5926 C   0  0  0  0  0  0  0  0  0  0  0  0
   19.0946   -7.8590    2.5534 C   0  0  0  0  0  0  0  0  0  0  0  0
   18.5391   -8.3378    3.7434 C   0  0  0  0  0  0  0  0  0  0  0  0
   20.7378   -6.5409    1.4397 F   0  0  0  0  0  0  0  0  0  0  0  0
   14.9836  -10.0221   11.5211 C   0  0  0  0  0  0  0  0  0  0  0  0
   16.1594   -9.0655   15.5351 C   0  0  0  0  0  0  0  0  0  0  0  0
   15.7635  -10.3679   15.2115 C   0  0  0  0  0  0  0  0  0  0  0  0
   15.3745  -10.6780   13.9052 C   0  0  0  0  0  0  0  0  0  0  0  0
   15.3791   -9.6864   12.9186 C   0  0  0  0  0  0  0  0  0  0  0  0
   15.7828   -8.3855   13.2394 C   0  0  0  0  0  0  0  0  0  0  0  0
   16.1711   -8.0754   14.5459 C   0  0  0  0  0  0  0  0  0  0  0  0
   16.6509   -8.6840   17.1772 S   0  0  0  0  0  0  0  0  0  0  0  0
   16.6410   -9.9423   17.9981 O   0  0  0  0  0  0  0  0  0  0  0  0
   18.0416   -8.1110   17.1754 O   0  0  0  0  0  0  0  0  0  0  0  0
   15.3409   -7.9131   19.2611 C   0  0  0  0  0  0  0  0  0  0  0  0
   15.5580   -7.5352   17.8748 N   0  0  0  0  0  0  0  0  0  0  0  0
   15.9624   -6.5999   17.8294 H   0  0  0  0  0  0  0  0  0  0  0  0
 31 32  1  0  0  0
 32 28  1  0  0  0
 28 29  2  0  0  0
 28 30  2  0  0  0
 28 22  1  0  0  0
 22 23  2  0  0  0
 23 24  1  0  0  0
 24 25  2  0  0  0
 25 26  1  0  0  0
 25 21  1  0  0  0
 26 27  2  0  0  0
 27 22  1  0  0  0
 21  1  1  0  0  0
  1  2  1  0  0  0
  2  3  2  0  0  0
  2  5  1  0  0  0
  5  6  2  0  0  0
  6  7  1  0  0  0
  7  8  2  0  0  0
  8  9  1  0  0  0
  9 10  1  0  0  0
  9 14  1  0  0  0
 10 11  2  0  0  0
 10  6  1  0  0  0
 11 12  1  0  0  0
 12 13  2  0  0  0
 13  5  1  0  0  0
 14 15  2  0  0  0
 15 16  1  0  0  0
 16 17  2  0  0  0
 17 18  1  0  0  0
 17 20  1  0  0  0
 18 19  2  0  0  0
 19 14  1  0  0  0
 32 33  1  0  0  0
  1  4  1  0  0  0
M  END
>  <minimizedAffinity>
-2.47271

>  <minimizedRMSD>
3.08205

$$$$
CHEMBL1449450 ChemDiv-K292-1690 MCULE-4984705013 MolPort-007-917-361 PubChem-3566815 ZINC000002932283 ZINC02932283


 33 36  0  0  0  0  0  0  0  0999 V2000
   16.5402   -9.0530   12.3720 N   0  0  0  0  0  0  0  0  0  0  0  0
   16.2230  -10.0386   11.3870 C   0  0  0  0  0  0  0  0  0  0  0  0
   16.6826  -11.2083   11.4765 O   0  0  0  0  0  0  0  0  0  0  0  0
   16.1967   -8.1387   12.2484 H   0  0  0  0  0  0  0  0  0  0  0  0
   17.3482   -9.3376   13.5508 C   0  0  0  0  0  0  0  0  0  0  0  0
   16.6094  -10.2690   14.5046 C   0  0  0  0  0  0  0  0  0  0  0  0
   15.3198   -8.1192   17.9879 C   0  0  0  0  0  0  0  0  0  0  0  0
   16.3326   -9.0791   18.0927 C   0  0  0  0  0  0  0  0  0  0  0  0
   16.7492   -9.7850   16.9605 C   0  0  0  0  0  0  0  0  0  0  0  0
   16.1500   -9.5367   15.7204 C   0  0  0  0  0  0  0  0  0  0  0  0
   15.1363   -8.5781   15.6154 C   0  0  0  0  0  0  0  0  0  0  0  0
   14.7202   -7.8725   16.7478 C   0  0  0  0  0  0  0  0  0  0  0  0
   13.7622   -8.2516   20.3632 N   0  0  0  0  0  0  0  0  0  0  0  0
   14.7908   -7.2423   19.4116 S   0  0  0  0  0  0  0  0  0  0  0  0
   14.0382   -6.0090   18.9979 O   0  0  0  0  0  0  0  0  0  0  0  0
   15.9854   -6.8325   20.2255 O   0  0  0  0  0  0  0  0  0  0  0  0
   13.4554   -7.7404   21.1908 H   0  0  0  0  0  0  0  0  0  0  0  0
   14.2748   -9.0858   20.6494 H   0  0  0  0  0  0  0  0  0  0  0  0
   15.3641   -9.6680   10.2282 C   0  0  0  0  0  0  0  0  0  0  0  0
   16.0818  -10.2804    8.6709 S   0  0  0  0  0  0  0  0  0  0  0  0
   17.6049   -9.3421    8.8741 C   0  0  0  0  0  0  0  0  0  0  0  0
   18.2875   -9.4985   10.0464 N   0  0  0  0  0  0  0  0  0  0  0  0
   19.3950   -8.7631   10.2899 C   0  0  0  0  0  0  0  0  0  0  0  0
   19.8277   -7.8407    9.3766 C   0  0  0  0  0  0  0  0  0  0  0  0
   21.1831   -7.0671    9.9830 S   0  0  0  0  0  0  0  0  0  0  0  0
   21.2290   -7.9264   11.4443 C   0  0  0  0  0  0  0  0  0  0  0  0
   20.1610   -8.8302   11.4559 C   0  0  0  0  0  0  0  0  0  0  0  0
   19.1524   -7.6654    8.1769 C   0  0  0  0  0  0  0  0  0  0  0  0
   19.5382   -6.7818    7.3635 O   0  0  0  0  0  0  0  0  0  0  0  0
   18.0595   -8.4610    7.9066 N   0  0  0  0  0  0  0  0  0  0  0  0
   17.3143   -8.2895    6.6457 C   0  0  0  0  0  0  0  0  0  0  0  0
   18.2585   -8.0583    5.4686 C   0  0  0  0  0  0  0  0  0  0  0  0
   17.6431   -9.4163    5.6717 C   0  0  0  0  0  0  0  0  0  0  0  0
 13 14  1  0  0  0
 14 15  2  0  0  0
 14 16  2  0  0  0
 14  7  1  0  0  0
  7  8  2  0  0  0
  8  9  1  0  0  0
  9 10  2  0  0  0
 10  6  1  0  0  0
 10 11  1  0  0  0
  6  5  1  0  0  0
  5  1  1  0  0  0
  1  2  1  0  0  0
  2  3  2  0  0  0
  2 19  1  0  0  0
 19 20  1  0  0  0
 20 21  1  0  0  0
 21 22  2  0  0  0
 22 23  1  0  0  0
 23 24  2  0  0  0
 24 25  1  0  0  0
 24 28  1  0  0  0
 25 26  1  0  0  0
 26 27  2  0  0  0
 27 23  1  0  0  0
 28 29  2  0  0  0
 28 30  1  0  0  0
 30 31  1  0  0  0
 30 21  1  0  0  0
 31 32  1  0  0  0
 32 33  1  0  0  0
 33 31  1  0  0  0
 11 12  2  0  0  0
 12  7  1  0  0  0
 13 17  1  0  0  0
 13 18  1  0  0  0
  1  4  1  0  0  0
M  END
>  <minimizedAffinity>
6.79489

>  <minimizedRMSD>
3.11158

$$$$
CHEMBL1801346 PubChem-56683320


 38 42  0  0  0  0  0  0  0  0999 V2000
   18.5886   -8.4020   17.2175 C   0  0  0  0  0  0  0  0  0  0  0  0
   17.3004   -9.0918   16.7958 C   0  0  0  0  0  0  0  0  0  0  0  0
   17.2451   -9.2548   15.3076 C   0  0  0  0  0  0  0  0  0  0  0  0
   16.2448   -8.5813   14.6006 C   0  0  0  0  0  0  0  0  0  0  0  0
   16.1608   -8.6980   13.2112 C   0  0  0  0  0  0  0  0  0  0  0  0
   17.0795   -9.4868   12.5042 C   0  0  0  0  0  0  0  0  0  0  0  0
   18.0818  -10.1628   13.2164 C   0  0  0  0  0  0  0  0  0  0  0  0
   18.1692  -10.0521   14.6067 C   0  0  0  0  0  0  0  0  0  0  0  0
   19.1525  -10.7180   15.2625 F   0  0  0  0  0  0  0  0  0  0  0  0
   16.9761   -9.5956   11.0715 N   0  0  0  0  0  0  0  0  0  0  0  0
   16.0629  -10.3477   10.4611 N   0  0  0  0  0  0  0  0  0  0  0  0
   16.2341  -10.2253    9.1244 C   0  0  0  0  0  0  0  0  0  0  0  0
   15.2474  -11.0336    7.9228 Cl  0  0  0  0  0  0  0  0  0  0  0  0
   17.2842   -9.3697    8.8872 C   0  0  0  0  0  0  0  0  0  0  0  0
   17.8573   -8.9001    7.7085 C   0  0  0  0  0  0  0  0  0  0  0  0
   18.9332   -8.0019    7.8302 C   0  0  0  0  0  0  0  0  0  0  0  0
   19.3965   -7.6032    9.1036 C   0  0  0  0  0  0  0  0  0  0  0  0
   18.7915   -8.0980   10.2739 C   0  0  0  0  0  0  0  0  0  0  0  0
   17.7292   -8.9914   10.1244 C   0  0  0  0  0  0  0  0  0  0  0  0
   16.1444   -8.3387   17.2645 N   0  0  0  0  0  0  0  0  0  0  0  0
   15.5086   -8.5924   18.5191 C   0  0  0  0  0  0  0  0  0  0  0  0
   15.9071   -9.5304   19.2606 O   0  0  0  0  0  0  0  0  0  0  0  0
   15.7854   -7.6232   16.6914 H   0  0  0  0  0  0  0  0  0  0  0  0
   14.3910   -7.7140   18.9707 C   0  0  0  0  0  0  0  0  0  0  0  0
   13.9718   -6.5894   18.0515 C   0  0  0  0  0  0  0  0  0  0  0  0
   13.0831   -7.8181   18.2235 C   0  0  0  0  0  0  0  0  0  0  0  0
   14.2545   -7.4316   20.3927 N   0  0  0  0  0  0  0  0  0  0  0  0
   15.3244   -6.9110   21.1897 C   0  0  0  0  0  0  0  0  0  0  0  0
   16.4514   -6.6907   20.6669 O   0  0  0  0  0  0  0  0  0  0  0  0
   13.3878   -7.6063   20.8256 H   0  0  0  0  0  0  0  0  0  0  0  0
   15.1101   -6.6347   22.6201 C   0  0  0  0  0  0  0  0  0  0  0  0
   16.0122   -7.1055   23.5840 C   0  0  0  0  0  0  0  0  0  0  0  0
   15.8079   -6.8424   24.9032 N   0  0  0  0  0  0  0  0  0  0  0  0
   14.7351   -6.1224   25.3281 C   0  0  0  0  0  0  0  0  0  0  0  0
   13.8113   -5.6345   24.4029 C   0  0  0  0  0  0  0  0  0  0  0  0
   12.7134   -4.9001   24.8296 O   0  0  0  0  0  0  0  0  0  0  0  0
   14.0010   -5.8931   23.0450 C   0  0  0  0  0  0  0  0  0  0  0  0
   12.5904   -4.7290   25.7426 H   0  0  0  0  0  0  0  0  0  0  0  0
  2  1  1  0  0  0
  2 20  1  0  0  0
  2  3  1  0  0  0
 20 21  1  0  0  0
 21 22  2  0  0  0
 21 24  1  0  0  0
 24 27  1  0  0  0
 24 25  1  0  0  0
 27 28  1  0  0  0
 28 29  2  0  0  0
 28 31  1  0  0  0
 31 32  2  0  0  0
 32 33  1  0  0  0
 33 34  2  0  0  0
 34 35  1  0  0  0
 35 36  1  0  0  0
 35 37  2  0  0  0
 37 31  1  0  0  0
 25 26  1  0  0  0
 26 24  1  0  0  0
  3  4  2  0  0  0
  4  5  1  0  0  0
  5  6  2  0  0  0
  6 10  1  0  0  0
  6  7  1  0  0  0
 10 11  1  0  0  0
 11 12  2  0  0  0
 12 13  1  0  0  0
 12 14  1  0  0  0
 14 15  2  0  0  0
 15 16  1  0  0  0
 16 17  2  0  0  0
 17 18  1  0  0  0
 18 19  2  0  0  0
 19 10  1  0  0  0
 19 14  1  0  0  0
  7  8  2  0  0  0
  8  9  1  0  0  0
  8  3  1  0  0  0
 20 23  1  0  0  0
 27 30  1  0  0  0
 36 38  1  0  0  0
M  END
>  <minimizedAffinity>
-4.50610

>  <minimizedRMSD>
3.11380

$$$$
CHEMBL4475237 PubChem-157291937 PubChem-58138789


 33 36  0  0  0  0  0  0  0  0999 V2000
   15.9362   -9.4356   10.5797 N   0  0  0  0  0  0  0  0  0  0  0  0
   17.3461   -9.6739   10.6412 C   0  0  0  0  0  0  0  0  0  0  0  0
   17.8083  -10.4742   11.5000 O   0  0  0  0  0  0  0  0  0  0  0  0
   15.5885   -8.8535    9.8659 H   0  0  0  0  0  0  0  0  0  0  0  0
   18.2668   -8.9956    9.7032 C   0  0  0  0  0  0  0  0  0  0  0  0
   18.0676   -8.9707    8.3134 C   0  0  0  0  0  0  0  0  0  0  0  0
   17.0755   -9.5058    7.5116 C   0  0  0  0  0  0  0  0  0  0  0  0
   17.3699   -9.1800    6.2289 N   0  0  0  0  0  0  0  0  0  0  0  0
   18.4935   -8.4705    6.1986 N   0  0  0  0  0  0  0  0  0  0  0  0
   18.9336   -8.3327    7.4654 C   0  0  0  0  0  0  0  0  0  0  0  0
   20.0674   -7.6683    7.9351 C   0  0  0  0  0  0  0  0  0  0  0  0
   20.2993   -7.6715    9.3201 C   0  0  0  0  0  0  0  0  0  0  0  0
   19.4084   -8.3277   10.1943 C   0  0  0  0  0  0  0  0  0  0  0  0
   19.0782   -7.9683    4.9809 C   0  0  0  0  0  0  0  0  0  0  0  0
   18.5357   -8.3419    3.7412 C   0  0  0  0  0  0  0  0  0  0  0  0
   19.0892   -7.8651    2.5495 C   0  0  0  0  0  0  0  0  0  0  0  0
   20.1922   -7.0089    2.5854 C   0  0  0  0  0  0  0  0  0  0  0  0
   20.7416   -6.6297    3.8123 C   0  0  0  0  0  0  0  0  0  0  0  0
   20.1872   -7.1071    5.0032 C   0  0  0  0  0  0  0  0  0  0  0  0
   20.7290   -6.5468    1.4309 F   0  0  0  0  0  0  0  0  0  0  0  0
   14.9927  -10.0156   11.5256 C   0  0  0  0  0  0  0  0  0  0  0  0
   16.1690   -9.0659   15.5414 C   0  0  0  0  0  0  0  0  0  0  0  0
   15.7752  -10.3680   15.2146 C   0  0  0  0  0  0  0  0  0  0  0  0
   15.3874  -10.6759   13.9073 C   0  0  0  0  0  0  0  0  0  0  0  0
   15.3891   -9.6815   12.9236 C   0  0  0  0  0  0  0  0  0  0  0  0
   15.7844   -8.3792   13.2490 C   0  0  0  0  0  0  0  0  0  0  0  0
   16.1720   -8.0717   14.5564 C   0  0  0  0  0  0  0  0  0  0  0  0
   16.6480   -8.6860   17.1877 S   0  0  0  0  0  0  0  0  0  0  0  0
   18.0423   -8.1219   17.1985 O   0  0  0  0  0  0  0  0  0  0  0  0
   16.6297   -9.9445   18.0082 O   0  0  0  0  0  0  0  0  0  0  0  0
   15.3325   -7.9062   19.2640 C   0  0  0  0  0  0  0  0  0  0  0  0
   15.5519   -7.5355   17.8761 N   0  0  0  0  0  0  0  0  0  0  0  0
   15.9548   -6.5997   17.8265 H   0  0  0  0  0  0  0  0  0  0  0  0
 31 32  1  0  0  0
 32 28  1  0  0  0
 28 29  2  0  0  0
 28 30  2  0  0  0
 28 22  1  0  0  0
 22 23  2  0  0  0
 23 24  1  0  0  0
 24 25  2  0  0  0
 25 26  1  0  0  0
 25 21  1  0  0  0
 26 27  2  0  0  0
 27 22  1  0  0  0
 21  1  1  0  0  0
  1  2  1  0  0  0
  2  3  2  0  0  0
  2  5  1  0  0  0
  5  6  2  0  0  0
  6  7  1  0  0  0
  7  8  2  0  0  0
  8  9  1  0  0  0
  9 10  1  0  0  0
  9 14  1  0  0  0
 10 11  2  0  0  0
 10  6  1  0  0  0
 11 12  1  0  0  0
 12 13  2  0  0  0
 13  5  1  0  0  0
 14 15  2  0  0  0
 15 16  1  0  0  0
 16 17  2  0  0  0
 17 18  1  0  0  0
 17 20  1  0  0  0
 18 19  2  0  0  0
 19 14  1  0  0  0
 32 33  1  0  0  0
  1  4  1  0  0  0
M  END
>  <minimizedAffinity>
-2.48727

>  <minimizedRMSD>
3.11554

$$$$
CHEMBL5092838


 36 39  0  0  0  0  0  0  0  0999 V2000
   16.7388   -9.1568   12.3932 N   0  0  0  0  0  0  0  0  0  0  0  0
   16.4493   -8.2518   12.6508 H   0  0  0  0  0  0  0  0  0  0  0  0
   17.1531   -8.7430   10.0284 N   0  0  0  0  0  0  0  0  0  0  0  0
   16.6036   -9.5173   11.0138 C   0  0  0  0  0  0  0  0  0  0  0  0
   15.9126  -10.6558   10.6853 N   0  0  0  0  0  0  0  0  0  0  0  0
   15.7565  -11.0512    9.3871 C   0  0  0  0  0  0  0  0  0  0  0  0
   16.3214  -10.2575    8.4010 C   0  0  0  0  0  0  0  0  0  0  0  0
   16.9968   -9.1334    8.7407 C   0  0  0  0  0  0  0  0  0  0  0  0
   17.4658   -8.5159    7.6509 N   0  0  0  0  0  0  0  0  0  0  0  0
   17.0843   -9.2705    6.5931 C   0  0  0  0  0  0  0  0  0  0  0  0
   16.3517  -10.3853    7.0261 C   0  0  0  0  0  0  0  0  0  0  0  0
   18.2664   -7.3004    7.5990 C   0  0  0  0  0  0  0  0  0  0  0  0
   19.6213   -7.5427    8.1838 C   0  0  0  0  0  0  0  0  0  0  0  0
   20.7764   -7.5602    7.3797 C   0  0  0  0  0  0  0  0  0  0  0  0
   22.0228   -7.8151    7.9612 C   0  0  0  0  0  0  0  0  0  0  0  0
   22.1245   -8.0557    9.3339 C   0  0  0  0  0  0  0  0  0  0  0  0
   20.9784   -8.0425   10.1321 C   0  0  0  0  0  0  0  0  0  0  0  0
   19.7306   -7.7882    9.5575 C   0  0  0  0  0  0  0  0  0  0  0  0
   20.7013   -7.2584    5.6505 Cl  0  0  0  0  0  0  0  0  0  0  0  0
   17.2579   -9.9962   13.4310 C   0  0  0  0  0  0  0  0  0  0  0  0
   18.1118  -11.0754   13.2906 C   0  0  0  0  0  0  0  0  0  0  0  0
   18.3312  -11.5716   14.5234 N   0  0  0  0  0  0  0  0  0  0  0  0
   17.6504  -10.8388   15.3911 N   0  0  0  0  0  0  0  0  0  0  0  0
   16.9701   -9.8599   14.7699 C   0  0  0  0  0  0  0  0  0  0  0  0
   17.6453  -11.0758   16.8261 C   0  0  0  0  0  0  0  0  0  0  0  0
   17.7354   -9.7626   17.5940 C   0  0  0  0  0  0  0  0  0  0  0  0
   16.3549   -9.2334   17.9632 C   0  0  0  0  0  0  0  0  0  0  0  0
   15.7332   -8.4356   16.8231 C   0  0  0  0  0  0  0  0  0  0  0  0
   14.6290   -7.5133   17.3247 C   0  0  0  0  0  0  0  0  0  0  0  0
   14.4657   -7.6189   18.8384 C   0  0  0  0  0  0  0  0  0  0  0  0
   13.4562   -6.6599   19.3951 C   0  0  0  0  0  0  0  0  0  0  0  0
   12.9503   -5.7546   18.6767 O   0  0  0  0  0  0  0  0  0  0  0  0
   13.0740   -6.7782   20.7630 N   0  0  0  0  0  0  0  0  0  0  0  0
   12.1683   -5.9324   21.3072 O   0  0  0  0  0  0  0  0  0  0  0  0
   13.4743   -7.4847   21.3197 H   0  0  0  0  0  0  0  0  0  0  0  0
   11.8715   -5.2999   20.6343 H   0  0  0  0  0  0  0  0  0  0  0  0
  3  4  2  0  0  0
  4  5  1  0  0  0
  5  6  2  0  0  0
  6  7  1  0  0  0
  7  8  2  0  0  0
  8  9  1  0  0  0
  9 10  1  0  0  0
 10 11  2  0  0  0
  9 12  1  0  0  0
 12 13  1  0  0  0
 13 14  2  0  0  0
 14 15  1  0  0  0
 15 16  2  0  0  0
 16 17  1  0  0  0
 17 18  2  0  0  0
 14 19  1  0  0  0
  4  1  1  0  0  0
  1 20  1  0  0  0
 20 21  1  0  0  0
 21 22  2  0  0  0
 22 23  1  0  0  0
 23 24  1  0  0  0
 23 25  1  0  0  0
 25 26  1  0  0  0
 26 27  1  0  0  0
 27 28  1  0  0  0
 28 29  1  0  0  0
 29 30  1  0  0  0
 30 31  1  0  0  0
 31 32  2  0  0  0
 31 33  1  0  0  0
 33 34  1  0  0  0
  8  3  1  0  0  0
 18 13  1  0  0  0
 24 20  2  0  0  0
 11  7  1  0  0  0
  1  2  1  0  0  0
 33 35  1  0  0  0
 34 36  1  0  0  0
M  END
>  <minimizedAffinity>
3.50265

>  <minimizedRMSD>
3.11736

$$$$
CHEMBL44723 PubChem-44291403


 37 40  0  0  0  0  0  0  0  0999 V2000
   17.1635  -10.3386   15.6422 C   0  0  0  0  0  0  0  0  0  0  0  0
   16.1016   -9.8006   14.9061 C   0  0  0  0  0  0  0  0  0  0  0  0
   16.2193   -9.6432   13.5226 C   0  0  0  0  0  0  0  0  0  0  0  0
   17.3973  -10.0253   12.8626 C   0  0  0  0  0  0  0  0  0  0  0  0
   18.4512  -10.5703   13.6040 C   0  0  0  0  0  0  0  0  0  0  0  0
   18.3356  -10.7290   14.9878 C   0  0  0  0  0  0  0  0  0  0  0  0
   17.5588   -9.8739   11.4458 N   0  0  0  0  0  0  0  0  0  0  0  0
   16.5429  -10.0005   10.4391 C   0  0  0  0  0  0  0  0  0  0  0  0
   15.3625  -10.2964   10.7718 O   0  0  0  0  0  0  0  0  0  0  0  0
   18.4658   -9.6595   11.1285 H   0  0  0  0  0  0  0  0  0  0  0  0
   16.8604   -9.8009    8.9975 C   0  0  0  0  0  0  0  0  0  0  0  0
   17.8591   -8.9147    8.5158 C   0  0  0  0  0  0  0  0  0  0  0  0
   18.0709   -8.8148    7.1163 C   0  0  0  0  0  0  0  0  0  0  0  0
   17.3259   -9.5555    6.2563 N   0  0  0  0  0  0  0  0  0  0  0  0
   16.3647  -10.4051    6.6972 C   0  0  0  0  0  0  0  0  0  0  0  0
   16.1196  -10.5385    8.0624 C   0  0  0  0  0  0  0  0  0  0  0  0
   19.0458   -7.9499    6.6104 C   0  0  0  0  0  0  0  0  0  0  0  0
   19.8173   -7.1755    7.4786 C   0  0  0  0  0  0  0  0  0  0  0  0
   19.6163   -7.2616    8.8570 C   0  0  0  0  0  0  0  0  0  0  0  0
   18.6444   -8.1240    9.3701 C   0  0  0  0  0  0  0  0  0  0  0  0
   17.0528  -10.5057   17.1207 C   0  0  0  0  0  0  0  0  0  0  0  0
   17.2380   -9.1788   17.8521 C   0  0  0  0  0  0  0  0  0  0  0  0
   15.6715   -7.6676   19.1524 C   0  0  0  0  0  0  0  0  0  0  0  0
   16.5962   -7.3724   19.9586 O   0  0  0  0  0  0  0  0  0  0  0  0
   15.9518   -8.5185   18.0368 N   0  0  0  0  0  0  0  0  0  0  0  0
   15.2464   -8.6640   17.3657 H   0  0  0  0  0  0  0  0  0  0  0  0
   14.3108   -7.1253   19.3686 C   0  0  0  0  0  0  0  0  0  0  0  0
   13.3930   -6.9452   18.3103 C   0  0  0  0  0  0  0  0  0  0  0  0
   13.7147   -7.2596   17.0311 F   0  0  0  0  0  0  0  0  0  0  0  0
   12.1173   -6.4332   18.5682 C   0  0  0  0  0  0  0  0  0  0  0  0
   11.7409   -6.0971   19.8699 C   0  0  0  0  0  0  0  0  0  0  0  0
   12.6403   -6.2721   20.9221 C   0  0  0  0  0  0  0  0  0  0  0  0
   13.9159   -6.7831   20.6719 C   0  0  0  0  0  0  0  0  0  0  0  0
   18.1482   -8.2923   17.0702 C   0  0  0  0  0  0  0  0  0  0  0  0
   17.7295   -7.6807   16.0513 O   0  0  0  0  0  0  0  0  0  0  0  0
   19.4673   -8.1369   17.4732 O   0  0  0  0  0  0  0  0  0  0  0  0
   19.7823   -8.5901   18.2304 H   0  0  0  0  0  0  0  0  0  0  0  0
 23 24  2  0  0  0
 23 27  1  0  0  0
 27 28  2  0  0  0
 28 29  1  0  0  0
 28 30  1  0  0  0
 30 31  2  0  0  0
 31 32  1  0  0  0
 32 33  2  0  0  0
 23 25  1  0  0  0
 25 22  1  0  0  0
 22 34  1  0  0  0
 34 35  2  0  0  0
 34 36  1  0  0  0
 22 21  1  0  0  0
 21  1  1  0  0  0
  1  2  2  0  0  0
  2  3  1  0  0  0
  3  4  2  0  0  0
  4  7  1  0  0  0
  7  8  1  0  0  0
  8  9  2  0  0  0
  8 11  1  0  0  0
 11 12  2  0  0  0
 12 13  1  0  0  0
 13 14  2  0  0  0
 14 15  1  0  0  0
 15 16  2  0  0  0
 13 17  1  0  0  0
 17 18  2  0  0  0
 18 19  1  0  0  0
 19 20  2  0  0  0
  4  5  1  0  0  0
  5  6  2  0  0  0
 33 27  1  0  0  0
  6  1  1  0  0  0
 16 11  1  0  0  0
 20 12  1  0  0  0
 25 26  1  0  0  0
 36 37  1  0  0  0
  7 10  1  0  0  0
M  END
>  <minimizedAffinity>
-3.53389

>  <minimizedRMSD>
3.12139

$$$$
CHEMBL1308891 873592 MCULE-1919178595 MolPort-000-007-125 PubChem-1132767 ZINC000000873592 ZINC00873592


 29 32  0  0  0  0  0  0  0  0999 V2000
   16.5575   -8.8740   15.7362 C   0  0  0  0  0  0  0  0  0  0  0  0
   16.0943   -7.8015   15.0680 N   0  0  0  0  0  0  0  0  0  0  0  0
   15.8894   -8.2035   13.8234 N   0  0  0  0  0  0  0  0  0  0  0  0
   16.2340   -9.5040   13.7879 C   0  0  0  0  0  0  0  0  0  0  0  0
   16.6503   -9.9236   14.9574 O   0  0  0  0  0  0  0  0  0  0  0  0
   16.9957   -8.8616   17.4700 S   0  0  0  0  0  0  0  0  0  0  0  0
   15.2712   -9.0679   18.0123 C   0  0  0  0  0  0  0  0  0  0  0  0
   14.7833   -7.7136   20.0841 N   0  0  0  0  0  0  0  0  0  0  0  0
   14.7765   -7.8190   18.6547 C   0  0  0  0  0  0  0  0  0  0  0  0
   14.3789   -6.8689   17.9302 O   0  0  0  0  0  0  0  0  0  0  0  0
   15.1092   -8.4985   20.5812 H   0  0  0  0  0  0  0  0  0  0  0  0
   14.9794   -6.3350   22.1141 C   0  0  0  0  0  0  0  0  0  0  0  0
   14.3653   -6.5851   20.8694 C   0  0  0  0  0  0  0  0  0  0  0  0
   13.3482   -5.7254   20.4249 C   0  0  0  0  0  0  0  0  0  0  0  0
   12.9418   -4.6403   21.2047 C   0  0  0  0  0  0  0  0  0  0  0  0
   13.5464   -4.4044   22.4404 C   0  0  0  0  0  0  0  0  0  0  0  0
   14.5599   -5.2512   22.8939 C   0  0  0  0  0  0  0  0  0  0  0  0
   17.3935   -6.4946   22.6521 C   0  0  0  0  0  0  0  0  0  0  0  0
   16.0598   -7.2196   22.6489 C   0  0  0  0  0  0  0  0  0  0  0  0
   16.1831  -10.3474   12.5609 C   0  0  0  0  0  0  0  0  0  0  0  0
   17.2221   -9.9340   11.6297 N   0  0  0  0  0  0  0  0  0  0  0  0
   18.5204   -9.6829   11.9245 C   0  0  0  0  0  0  0  0  0  0  0  0
   19.2238   -9.2595   10.8389 N   0  0  0  0  0  0  0  0  0  0  0  0
   18.3069   -9.2476    9.8534 C   0  0  0  0  0  0  0  0  0  0  0  0
   18.4915   -8.8782    8.5234 C   0  0  0  0  0  0  0  0  0  0  0  0
   17.3697   -8.9354    7.6743 C   0  0  0  0  0  0  0  0  0  0  0  0
   16.1127   -9.3516    8.1697 C   0  0  0  0  0  0  0  0  0  0  0  0
   15.9609   -9.7172    9.5203 C   0  0  0  0  0  0  0  0  0  0  0  0
   17.0955   -9.6500   10.3278 C   0  0  0  0  0  0  0  0  0  0  0  0
 18 19  1  0  0  0
 19 12  1  0  0  0
 12 13  2  0  0  0
 13  8  1  0  0  0
 13 14  1  0  0  0
  8  9  1  0  0  0
  9 10  2  0  0  0
  9  7  1  0  0  0
  7  6  1  0  0  0
  6  1  1  0  0  0
  1  2  2  0  0  0
  2  3  1  0  0  0
  3  4  2  0  0  0
  4 20  1  0  0  0
  4  5  1  0  0  0
 20 21  1  0  0  0
 21 22  1  0  0  0
 22 23  2  0  0  0
 23 24  1  0  0  0
 24 25  2  0  0  0
 25 26  1  0  0  0
 26 27  2  0  0  0
 27 28  1  0  0  0
 28 29  2  0  0  0
 29 21  1  0  0  0
 29 24  1  0  0  0
  5  1  1  0  0  0
 14 15  2  0  0  0
 15 16  1  0  0  0
 16 17  2  0  0  0
 17 12  1  0  0  0
  8 11  1  0  0  0
M  END
>  <minimizedAffinity>
-4.36919

>  <minimizedRMSD>
3.12426

$$$$
CHEMBL2103991 LN01341912 MCULE-1399137972 MolPort-044-559-842 PubChem-11422469 PubChem-141989543 PubChem-141989544 PubChem-21960172 PubChem-87914601 PubChem-87980529 PubChem-9889199 PubChem-9889200


 29 32  0  0  0  0  0  0  0  0999 V2000
   15.4674   -9.2851   12.3032 C   0  0  0  0  0  0  0  0  0  0  0  0
   15.8437   -8.0470   12.8493 C   0  0  0  0  0  0  0  0  0  0  0  0
   16.2120   -7.9521   14.1939 C   0  0  0  0  0  0  0  0  0  0  0  0
   16.2036   -9.0927   15.0038 C   0  0  0  0  0  0  0  0  0  0  0  0
   15.8269  -10.3269   14.4646 C   0  0  0  0  0  0  0  0  0  0  0  0
   15.4588  -10.4212   13.1193 C   0  0  0  0  0  0  0  0  0  0  0  0
   15.0953   -9.4139   10.9605 O   0  0  0  0  0  0  0  0  0  0  0  0
   15.7333  -10.3078   10.0533 C   0  0  0  0  0  0  0  0  0  0  0  0
   18.1131   -9.5101   11.4803 C   0  0  0  0  0  0  0  0  0  0  0  0
   17.9941   -9.2308   10.0514 N   0  0  0  0  0  0  0  0  0  0  0  0
   16.8741   -9.6223    9.3645 C   0  0  0  0  0  0  0  0  0  0  0  0
   16.7611   -9.3596    8.0364 N   0  0  0  0  0  0  0  0  0  0  0  0
   17.7426   -8.7170    7.3593 C   0  0  0  0  0  0  0  0  0  0  0  0
   17.5989   -8.4602    5.9928 C   0  0  0  0  0  0  0  0  0  0  0  0
   18.6124   -7.7953    5.2961 C   0  0  0  0  0  0  0  0  0  0  0  0
   19.7707   -7.3855    5.9640 C   0  0  0  0  0  0  0  0  0  0  0  0
   19.9188   -7.6394    7.3310 C   0  0  0  0  0  0  0  0  0  0  0  0
   18.9057   -8.3061    8.0357 C   0  0  0  0  0  0  0  0  0  0  0  0
   19.0106   -8.5794    9.4063 C   0  0  0  0  0  0  0  0  0  0  0  0
   20.0428   -8.2225   10.0419 O   0  0  0  0  0  0  0  0  0  0  0  0
   16.6106   -8.9978   16.4355 C   0  0  0  0  0  0  0  0  0  0  0  0
   17.9394   -9.7035   16.6740 C   0  0  0  0  0  0  0  0  0  0  0  0
   19.0598   -9.4468   15.2407 S   0  0  0  0  0  0  0  0  0  0  0  0
   19.0860  -11.2069   14.9445 C   0  0  0  0  0  0  0  0  0  0  0  0
   19.7219  -11.7171   13.9865 O   0  0  0  0  0  0  0  0  0  0  0  0
   18.3462  -12.0020   15.8485 N   0  0  0  0  0  0  0  0  0  0  0  0
   17.7175  -11.1746   16.8095 C   0  0  0  0  0  0  0  0  0  0  0  0
   17.0229  -11.6651   17.7379 O   0  0  0  0  0  0  0  0  0  0  0  0
   18.2783  -12.9836   15.8150 H   0  0  0  0  0  0  0  0  0  0  0  0
  9 10  1  0  0  0
 10 11  1  0  0  0
 11  8  1  0  0  0
 11 12  2  0  0  0
  8  7  1  0  0  0
  7  1  1  0  0  0
  1  2  2  0  0  0
  2  3  1  0  0  0
  3  4  2  0  0  0
  4 21  1  0  0  0
  4  5  1  0  0  0
 22 21  1  0  0  0
 22 23  1  0  0  0
 23 24  1  0  0  0
 24 25  2  0  0  0
 24 26  1  0  0  0
 26 27  1  0  0  0
 27 28  2  0  0  0
 27 22  1  0  0  0
  5  6  2  0  0  0
  6  1  1  0  0  0
 12 13  1  0  0  0
 13 14  2  0  0  0
 14 15  1  0  0  0
 15 16  2  0  0  0
 16 17  1  0  0  0
 17 18  2  0  0  0
 18 19  1  0  0  0
 18 13  1  0  0  0
 19 20  2  0  0  0
 19 10  1  0  0  0
 26 29  1  0  0  0
M  END
>  <minimizedAffinity>
-4.41474

>  <minimizedRMSD>
3.13622

$$$$
CHEMBL2048903 PubChem-25026281


 33 37  0  0  0  0  0  0  0  0999 V2000
   16.8798   -9.1793   14.2168 C   0  0  0  0  0  0  0  0  0  0  0  0
   17.2806  -10.2435   15.0359 C   0  0  0  0  0  0  0  0  0  0  0  0
   17.0521  -10.2097   16.4142 C   0  0  0  0  0  0  0  0  0  0  0  0
   16.4047   -9.0963   16.9882 C   0  0  0  0  0  0  0  0  0  0  0  0
   16.0312   -8.0239   16.1726 C   0  0  0  0  0  0  0  0  0  0  0  0
   16.2633   -8.0672   14.7959 C   0  0  0  0  0  0  0  0  0  0  0  0
   17.6511  -11.5414   17.3896 Cl  0  0  0  0  0  0  0  0  0  0  0  0
   17.0979   -9.1851   12.7995 N   0  0  0  0  0  0  0  0  0  0  0  0
   17.9765   -8.8650   12.4916 H   0  0  0  0  0  0  0  0  0  0  0  0
   17.7645   -9.4168    9.8751 N   0  0  0  0  0  0  0  0  0  0  0  0
   16.5777   -9.6815   10.4441 C   0  0  0  0  0  0  0  0  0  0  0  0
   15.6946  -10.0854    9.4950 C   0  0  0  0  0  0  0  0  0  0  0  0
   14.4168  -10.4211    9.7930 N   0  0  0  0  0  0  0  0  0  0  0  0
   14.0148  -10.3481   11.0964 C   0  0  0  0  0  0  0  0  0  0  0  0
   14.8886   -9.9451   12.0716 N   0  0  0  0  0  0  0  0  0  0  0  0
   16.1800   -9.6048   11.7794 C   0  0  0  0  0  0  0  0  0  0  0  0
   16.3158  -10.0818    8.2637 C   0  0  0  0  0  0  0  0  0  0  0  0
   17.6177   -9.6514    8.5478 C   0  0  0  0  0  0  0  0  0  0  0  0
   18.9754   -8.9317   10.5252 C   0  0  0  0  0  0  0  0  0  0  0  0
   19.6329   -7.8457    9.6900 C   0  0  0  0  0  0  0  0  0  0  0  0
   20.9885   -8.1301    9.5248 O   0  0  0  0  0  0  0  0  0  0  0  0
   21.4192   -8.1677   10.3931 H   0  0  0  0  0  0  0  0  0  0  0  0
   16.1521   -9.0107   18.3621 O   0  0  0  0  0  0  0  0  0  0  0  0
   15.3965   -8.0015   18.9761 C   0  0  0  0  0  0  0  0  0  0  0  0
   14.1984   -7.4947   18.4472 C   0  0  0  0  0  0  0  0  0  0  0  0
   13.4932   -7.7791   17.2967 C   0  0  0  0  0  0  0  0  0  0  0  0
   12.4089   -6.9647   17.2832 N   0  0  0  0  0  0  0  0  0  0  0  0
   12.4089   -6.1854   18.3599 N   0  0  0  0  0  0  0  0  0  0  0  0
   13.4990   -6.5021   19.0714 C   0  0  0  0  0  0  0  0  0  0  0  0
   13.9294   -5.9261   20.2629 C   0  0  0  0  0  0  0  0  0  0  0  0
   15.1317   -6.4026   20.8154 C   0  0  0  0  0  0  0  0  0  0  0  0
   15.8608   -7.4281   20.1745 C   0  0  0  0  0  0  0  0  0  0  0  0
   11.7359   -5.5049   18.5906 H   0  0  0  0  0  0  0  0  0  0  0  0
 20 19  1  0  0  0
 19 10  1  0  0  0
 10 11  1  0  0  0
 11 12  2  0  0  0
 12 13  1  0  0  0
 13 14  2  0  0  0
 14 15  1  0  0  0
 15 16  2  0  0  0
 16  8  1  0  0  0
  8  1  1  0  0  0
  1  2  2  0  0  0
  2  3  1  0  0  0
  3  4  2  0  0  0
  4  5  1  0  0  0
  5  6  2  0  0  0
  4 23  1  0  0  0
 23 24  1  0  0  0
 24 25  2  0  0  0
 25 26  1  0  0  0
 26 27  2  0  0  0
 27 28  1  0  0  0
 28 29  1  0  0  0
 29 30  2  0  0  0
 30 31  1  0  0  0
 31 32  2  0  0  0
  3  7  1  0  0  0
 12 17  1  0  0  0
 17 18  2  0  0  0
 20 21  1  0  0  0
 18 10  1  0  0  0
 16 11  1  0  0  0
  6  1  1  0  0  0
 32 24  1  0  0  0
 29 25  1  0  0  0
  8  9  1  0  0  0
 28 33  1  0  0  0
 21 22  1  0  0  0
M  END
>  <minimizedAffinity>
-4.10448

>  <minimizedRMSD>
3.14217

$$$$
CHEMBL4475237 PubChem-157291937 PubChem-58138789


 33 36  0  0  0  0  0  0  0  0999 V2000
   15.9371   -9.4350   10.5794 N   0  0  0  0  0  0  0  0  0  0  0  0
   17.3472   -9.6731   10.6396 C   0  0  0  0  0  0  0  0  0  0  0  0
   17.8103  -10.4741   11.4975 O   0  0  0  0  0  0  0  0  0  0  0  0
   15.5888   -8.8538    9.8652 H   0  0  0  0  0  0  0  0  0  0  0  0
   18.2670   -8.9936    9.7014 C   0  0  0  0  0  0  0  0  0  0  0  0
   18.0667   -8.9679    8.3119 C   0  0  0  0  0  0  0  0  0  0  0  0
   17.0740   -9.5025    7.5104 C   0  0  0  0  0  0  0  0  0  0  0  0
   17.3684   -9.1773    6.2275 N   0  0  0  0  0  0  0  0  0  0  0  0
   18.4923   -8.4684    6.1966 N   0  0  0  0  0  0  0  0  0  0  0  0
   18.9330   -8.3308    7.4633 C   0  0  0  0  0  0  0  0  0  0  0  0
   20.0679   -7.6675    7.9323 C   0  0  0  0  0  0  0  0  0  0  0  0
   20.3000   -7.6703    9.3171 C   0  0  0  0  0  0  0  0  0  0  0  0
   19.4092   -8.3261   10.1921 C   0  0  0  0  0  0  0  0  0  0  0  0
   19.0784   -7.9691    4.9783 C   0  0  0  0  0  0  0  0  0  0  0  0
   18.5369   -8.3450    3.7387 C   0  0  0  0  0  0  0  0  0  0  0  0
   19.0924   -7.8718    2.5461 C   0  0  0  0  0  0  0  0  0  0  0  0
   20.1966   -7.0168    2.5814 C   0  0  0  0  0  0  0  0  0  0  0  0
   20.7440   -6.6339    3.8083 C   0  0  0  0  0  0  0  0  0  0  0  0
   20.1876   -7.1079    4.9998 C   0  0  0  0  0  0  0  0  0  0  0  0
   20.7325   -6.5546    1.4269 F   0  0  0  0  0  0  0  0  0  0  0  0
   14.9941  -10.0135   11.5268 C   0  0  0  0  0  0  0  0  0  0  0  0
   16.1743   -9.0677   15.5423 C   0  0  0  0  0  0  0  0  0  0  0  0
   16.1726   -8.0719   14.5588 C   0  0  0  0  0  0  0  0  0  0  0  0
   15.7846   -8.3783   13.2514 C   0  0  0  0  0  0  0  0  0  0  0  0
   15.3936   -9.6812   12.9242 C   0  0  0  0  0  0  0  0  0  0  0  0
   15.3945  -10.6769   13.9066 C   0  0  0  0  0  0  0  0  0  0  0  0
   15.7824  -10.3701   15.2139 C   0  0  0  0  0  0  0  0  0  0  0  0
   16.6480   -8.6852   17.1897 S   0  0  0  0  0  0  0  0  0  0  0  0
   18.0447   -8.1257   17.2026 O   0  0  0  0  0  0  0  0  0  0  0  0
   16.6263   -9.9431   18.0129 O   0  0  0  0  0  0  0  0  0  0  0  0
   15.3284   -7.9017   19.2643 C   0  0  0  0  0  0  0  0  0  0  0  0
   15.5487   -7.5344   17.8753 N   0  0  0  0  0  0  0  0  0  0  0  0
   15.9500   -6.5981   17.8235 H   0  0  0  0  0  0  0  0  0  0  0  0
 31 32  1  0  0  0
 32 28  1  0  0  0
 28 29  2  0  0  0
 28 30  2  0  0  0
 28 22  1  0  0  0
 22 23  2  0  0  0
 23 24  1  0  0  0
 24 25  2  0  0  0
 25 26  1  0  0  0
 25 21  1  0  0  0
 26 27  2  0  0  0
 27 22  1  0  0  0
 21  1  1  0  0  0
  1  2  1  0  0  0
  2  3  2  0  0  0
  2  5  1  0  0  0
  5  6  2  0  0  0
  6  7  1  0  0  0
  7  8  2  0  0  0
  8  9  1  0  0  0
  9 10  1  0  0  0
  9 14  1  0  0  0
 10 11  2  0  0  0
 10  6  1  0  0  0
 11 12  1  0  0  0
 12 13  2  0  0  0
 13  5  1  0  0  0
 14 15  2  0  0  0
 15 16  1  0  0  0
 16 17  2  0  0  0
 17 18  1  0  0  0
 17 20  1  0  0  0
 18 19  2  0  0  0
 19 14  1  0  0  0
 32 33  1  0  0  0
  1  4  1  0  0  0
M  END
>  <minimizedAffinity>
-2.49485

>  <minimizedRMSD>
3.16205

$$$$
CHEMBL371373 PubChem-11374515 PubChem-142858463


 35 38  0  0  0  0  0  0  0  0999 V2000
   17.3633   -9.1046    8.5552 C   0  0  0  0  0  0  0  0  0  0  0  0
   15.9935   -9.3463    8.5226 C   0  0  0  0  0  0  0  0  0  0  0  0
   15.6126   -9.6541    9.7715 N   0  0  0  0  0  0  0  0  0  0  0  0
   14.3742   -9.9102   10.1857 N   0  0  0  0  0  0  0  0  0  0  0  0
   14.1581  -10.1514   11.5082 C   0  0  0  0  0  0  0  0  0  0  0  0
   15.2079  -10.1346   12.3810 N   0  0  0  0  0  0  0  0  0  0  0  0
   16.4787   -9.8901   11.9551 C   0  0  0  0  0  0  0  0  0  0  0  0
   16.6714   -9.6275   10.5932 C   0  0  0  0  0  0  0  0  0  0  0  0
   17.8056   -9.2821    9.8752 C   0  0  0  0  0  0  0  0  0  0  0  0
   19.3170   -7.5824    6.0662 C   0  0  0  0  0  0  0  0  0  0  0  0
   19.1057   -8.7700    5.4685 N   0  0  0  0  0  0  0  0  0  0  0  0
   18.3643   -9.4768    6.3074 N   0  0  0  0  0  0  0  0  0  0  0  0
   18.1526   -8.6922    7.3826 C   0  0  0  0  0  0  0  0  0  0  0  0
   18.7337   -7.5253    7.2375 O   0  0  0  0  0  0  0  0  0  0  0  0
   21.5805   -6.8188    5.4685 C   0  0  0  0  0  0  0  0  0  0  0  0
   20.1053   -6.4694    5.4685 C   0  0  0  0  0  0  0  0  0  0  0  0
   19.1791   -9.0576   10.4377 C   0  0  0  0  0  0  0  0  0  0  0  0
   20.0600  -10.2842   10.2841 C   0  0  0  0  0  0  0  0  0  0  0  0
   19.8372   -7.8350    9.8274 C   0  0  0  0  0  0  0  0  0  0  0  0
   17.5534   -9.8950   12.8990 N   0  0  0  0  0  0  0  0  0  0  0  0
   18.4598   -9.7297   12.5522 H   0  0  0  0  0  0  0  0  0  0  0  0
   17.4192  -10.1209   14.3094 C   0  0  0  0  0  0  0  0  0  0  0  0
   16.6923   -9.1927   15.0595 C   0  0  0  0  0  0  0  0  0  0  0  0
   16.5166   -9.3468   16.4428 C   0  0  0  0  0  0  0  0  0  0  0  0
   17.0848  -10.4702   17.0782 C   0  0  0  0  0  0  0  0  0  0  0  0
   16.9559  -10.6715   18.4128 F   0  0  0  0  0  0  0  0  0  0  0  0
   17.8002  -11.4092   16.3308 C   0  0  0  0  0  0  0  0  0  0  0  0
   17.9697  -11.2458   14.9548 C   0  0  0  0  0  0  0  0  0  0  0  0
   18.6467  -12.1978   14.2677 F   0  0  0  0  0  0  0  0  0  0  0  0
   15.7353   -8.3281   17.1815 C   0  0  0  0  0  0  0  0  0  0  0  0
   14.9138   -7.5987   16.5614 O   0  0  0  0  0  0  0  0  0  0  0  0
   15.8926   -8.1599   18.5933 N   0  0  0  0  0  0  0  0  0  0  0  0
   16.5458   -8.7167   19.0756 H   0  0  0  0  0  0  0  0  0  0  0  0
   15.1608   -7.2496   19.2802 O   0  0  0  0  0  0  0  0  0  0  0  0
   14.9127   -7.8470   20.5176 C   0  0  0  0  0  0  0  0  0  0  0  0
 15 16  1  0  0  0
 16 10  1  0  0  0
 10 11  2  0  0  0
 11 12  1  0  0  0
 12 13  2  0  0  0
 13  1  1  0  0  0
 13 14  1  0  0  0
  1  2  2  0  0  0
  2  3  1  0  0  0
  3  4  1  0  0  0
  4  5  2  0  0  0
  5  6  1  0  0  0
  6  7  2  0  0  0
  7 20  1  0  0  0
  7  8  1  0  0  0
 20 22  1  0  0  0
 22 23  2  0  0  0
 23 24  1  0  0  0
 24 30  1  0  0  0
 24 25  2  0  0  0
 30 31  2  0  0  0
 30 32  1  0  0  0
 32 34  1  0  0  0
 34 35  1  0  0  0
 25 26  1  0  0  0
 25 27  1  0  0  0
 27 28  2  0  0  0
 28 29  1  0  0  0
 28 22  1  0  0  0
  8  9  2  0  0  0
  8  3  1  0  0  0
  9 17  1  0  0  0
  9  1  1  0  0  0
 17 18  1  0  0  0
 17 19  1  0  0  0
 14 10  1  0  0  0
 20 21  1  0  0  0
 32 33  1  0  0  0
M  END
>  <minimizedAffinity>
-5.18879

>  <minimizedRMSD>
3.16319

$$$$
CHEMBL2048903 PubChem-25026281


 33 37  0  0  0  0  0  0  0  0999 V2000
   16.9109   -9.1505   14.2082 C   0  0  0  0  0  0  0  0  0  0  0  0
   17.3072  -10.2192   15.0238 C   0  0  0  0  0  0  0  0  0  0  0  0
   17.0646  -10.1961   16.3999 C   0  0  0  0  0  0  0  0  0  0  0  0
   16.4070   -9.0894   16.9753 C   0  0  0  0  0  0  0  0  0  0  0  0
   16.0375   -8.0125   16.1635 C   0  0  0  0  0  0  0  0  0  0  0  0
   16.2838   -8.0451   14.7891 C   0  0  0  0  0  0  0  0  0  0  0  0
   17.6585  -11.5327   17.3719 Cl  0  0  0  0  0  0  0  0  0  0  0  0
   17.1411   -9.1462   12.7930 N   0  0  0  0  0  0  0  0  0  0  0  0
   18.0164   -8.8089   12.4940 H   0  0  0  0  0  0  0  0  0  0  0  0
   17.8501   -9.3968    9.8802 N   0  0  0  0  0  0  0  0  0  0  0  0
   16.6572   -9.6643   10.4344 C   0  0  0  0  0  0  0  0  0  0  0  0
   15.7859  -10.0675    9.4742 C   0  0  0  0  0  0  0  0  0  0  0  0
   14.5031  -10.3989    9.7553 N   0  0  0  0  0  0  0  0  0  0  0  0
   14.0828  -10.3196   11.0525 C   0  0  0  0  0  0  0  0  0  0  0  0
   14.9432   -9.9136   12.0383 N   0  0  0  0  0  0  0  0  0  0  0  0
   16.2397   -9.5780   11.7633 C   0  0  0  0  0  0  0  0  0  0  0  0
   16.4246  -10.0709    8.2519 C   0  0  0  0  0  0  0  0  0  0  0  0
   17.7240   -9.6450    8.5532 C   0  0  0  0  0  0  0  0  0  0  0  0
   19.0682   -8.9647   10.5536 C   0  0  0  0  0  0  0  0  0  0  0  0
   19.8965   -8.0740    9.6424 C   0  0  0  0  0  0  0  0  0  0  0  0
   19.1148   -7.0178    9.1740 O   0  0  0  0  0  0  0  0  0  0  0  0
   18.3611   -7.3699    8.6750 H   0  0  0  0  0  0  0  0  0  0  0  0
   16.1401   -9.0147   18.3470 O   0  0  0  0  0  0  0  0  0  0  0  0
   15.3836   -8.0066   18.9619 C   0  0  0  0  0  0  0  0  0  0  0  0
   14.1844   -7.5015   18.4342 C   0  0  0  0  0  0  0  0  0  0  0  0
   13.4784   -7.7868   17.2843 C   0  0  0  0  0  0  0  0  0  0  0  0
   12.3929   -6.9739   17.2719 N   0  0  0  0  0  0  0  0  0  0  0  0
   12.3929   -6.1946   18.3488 N   0  0  0  0  0  0  0  0  0  0  0  0
   13.4842   -6.5098   19.0592 C   0  0  0  0  0  0  0  0  0  0  0  0
   13.9150   -5.9333   20.2503 C   0  0  0  0  0  0  0  0  0  0  0  0
   15.1184   -6.4083   20.8016 C   0  0  0  0  0  0  0  0  0  0  0  0
   15.8483   -7.4327   20.1598 C   0  0  0  0  0  0  0  0  0  0  0  0
   11.7192   -5.5151   18.5802 H   0  0  0  0  0  0  0  0  0  0  0  0
 20 19  1  0  0  0
 19 10  1  0  0  0
 10 11  1  0  0  0
 11 12  2  0  0  0
 12 13  1  0  0  0
 13 14  2  0  0  0
 14 15  1  0  0  0
 15 16  2  0  0  0
 16  8  1  0  0  0
  8  1  1  0  0  0
  1  2  2  0  0  0
  2  3  1  0  0  0
  3  4  2  0  0  0
  4  5  1  0  0  0
  5  6  2  0  0  0
  4 23  1  0  0  0
 23 24  1  0  0  0
 24 25  2  0  0  0
 25 26  1  0  0  0
 26 27  2  0  0  0
 27 28  1  0  0  0
 28 29  1  0  0  0
 29 30  2  0  0  0
 30 31  1  0  0  0
 31 32  2  0  0  0
  3  7  1  0  0  0
 12 17  1  0  0  0
 17 18  2  0  0  0
 20 21  1  0  0  0
 18 10  1  0  0  0
 16 11  1  0  0  0
  6  1  1  0  0  0
 32 24  1  0  0  0
 29 25  1  0  0  0
  8  9  1  0  0  0
 28 33  1  0  0  0
 21 22  1  0  0  0
M  END
>  <minimizedAffinity>
-4.87122

>  <minimizedRMSD>
3.16323

$$$$
CHEMBL5092781 PubChem-141728875


 35 38  0  0  0  0  0  0  0  0999 V2000
   16.5770   -9.8592    8.4750 N   0  0  0  0  0  0  0  0  0  0  0  0
   16.0603  -10.4378    7.8688 H   0  0  0  0  0  0  0  0  0  0  0  0
   18.9923   -8.1205    4.6846 N   0  0  0  0  0  0  0  0  0  0  0  0
   18.7032   -8.2566    5.9833 C   0  0  0  0  0  0  0  0  0  0  0  0
   17.7378   -9.0379    6.5260 N   0  0  0  0  0  0  0  0  0  0  0  0
   17.5911   -9.0379    7.8848 C   0  0  0  0  0  0  0  0  0  0  0  0
   18.4111   -8.2581    8.6636 N   0  0  0  0  0  0  0  0  0  0  0  0
   19.3824   -7.4688    8.1171 C   0  0  0  0  0  0  0  0  0  0  0  0
   19.5181   -7.4803    6.7379 C   0  0  0  0  0  0  0  0  0  0  0  0
   20.3762   -6.8005    5.8958 C   0  0  0  0  0  0  0  0  0  0  0  0
   20.0086   -7.2284    4.6118 C   0  0  0  0  0  0  0  0  0  0  0  0
   18.3128   -8.7461    3.5594 C   0  0  0  0  0  0  0  0  0  0  0  0
   19.3849   -5.5694    0.0029 F   0  0  0  0  0  0  0  0  0  0  0  0
   19.5057   -6.8118    0.5284 C   0  0  0  0  0  0  0  0  0  0  0  0
   18.8781   -7.1228    1.7386 C   0  0  0  0  0  0  0  0  0  0  0  0
   19.0054   -8.4051    2.2839 C   0  0  0  0  0  0  0  0  0  0  0  0
   19.7503   -9.3793    1.6101 C   0  0  0  0  0  0  0  0  0  0  0  0
   20.3771   -9.0681    0.3996 C   0  0  0  0  0  0  0  0  0  0  0  0
   20.2554   -7.7842   -0.1408 C   0  0  0  0  0  0  0  0  0  0  0  0
   16.2467   -9.9148    9.8673 C   0  0  0  0  0  0  0  0  0  0  0  0
   17.1029   -9.7611   10.9380 C   0  0  0  0  0  0  0  0  0  0  0  0
   16.3396   -9.8949   12.0361 N   0  0  0  0  0  0  0  0  0  0  0  0
   15.0768  -10.1265   11.7131 N   0  0  0  0  0  0  0  0  0  0  0  0
   14.9816  -10.1430   10.3689 C   0  0  0  0  0  0  0  0  0  0  0  0
   16.8269   -9.8334   13.4047 C   0  0  0  0  0  0  0  0  0  0  0  0
   18.2794  -10.2877   13.4768 C   0  0  0  0  0  0  0  0  0  0  0  0
   18.6929  -10.6092   14.9082 C   0  0  0  0  0  0  0  0  0  0  0  0
   18.3533   -9.4681   15.8547 C   0  0  0  0  0  0  0  0  0  0  0  0
   17.1449   -9.8276   16.7088 C   0  0  0  0  0  0  0  0  0  0  0  0
   16.2096   -8.6732   16.8963 C   0  0  0  0  0  0  0  0  0  0  0  0
   15.6800   -8.0948   15.9081 O   0  0  0  0  0  0  0  0  0  0  0  0
   15.9195   -8.2287   18.2191 N   0  0  0  0  0  0  0  0  0  0  0  0
   15.0796   -7.1895   18.4345 O   0  0  0  0  0  0  0  0  0  0  0  0
   16.3356   -8.6838   18.9865 H   0  0  0  0  0  0  0  0  0  0  0  0
   14.7563   -6.8534   17.5839 H   0  0  0  0  0  0  0  0  0  0  0  0
 13 14  1  0  0  0
 14 15  2  0  0  0
 15 16  1  0  0  0
 16 12  1  0  0  0
 12  3  1  0  0  0
  3  4  1  0  0  0
  4  5  2  0  0  0
  5  6  1  0  0  0
  6  1  1  0  0  0
  1 20  1  0  0  0
 20 21  2  0  0  0
 21 22  1  0  0  0
 22 23  1  0  0  0
 23 24  2  0  0  0
 22 25  1  0  0  0
 25 26  1  0  0  0
 26 27  1  0  0  0
 27 28  1  0  0  0
 28 29  1  0  0  0
 29 30  1  0  0  0
 30 31  2  0  0  0
 30 32  1  0  0  0
 32 33  1  0  0  0
  6  7  2  0  0  0
  7  8  1  0  0  0
  8  9  2  0  0  0
  9 10  1  0  0  0
 10 11  2  0  0  0
 16 17  2  0  0  0
 17 18  1  0  0  0
 18 19  2  0  0  0
 19 14  1  0  0  0
 11  3  1  0  0  0
  9  4  1  0  0  0
 24 20  1  0  0  0
  1  2  1  0  0  0
 32 34  1  0  0  0
 33 35  1  0  0  0
M  END
>  <minimizedAffinity>
-8.07469

>  <minimizedRMSD>
3.16440

$$$$
CHEMBL3621246 PubChem-78323222


 34 36  0  0  0  0  0  0  0  0999 V2000
   17.9010   -9.6435   11.0842 N   0  0  0  0  0  0  0  0  0  0  0  0
   19.0618   -8.9716   11.2898 C   0  0  0  0  0  0  0  0  0  0  0  0
   19.5313   -8.3839   10.1520 N   0  0  0  0  0  0  0  0  0  0  0  0
   18.6054   -8.7128    9.2311 C   0  0  0  0  0  0  0  0  0  0  0  0
   17.6305   -9.4614    9.7890 C   0  0  0  0  0  0  0  0  0  0  0  0
   16.5628   -9.9171    9.0900 N   0  0  0  0  0  0  0  0  0  0  0  0
   16.4882   -9.5985    7.7621 C   0  0  0  0  0  0  0  0  0  0  0  0
   17.4680   -8.8408    7.1709 N   0  0  0  0  0  0  0  0  0  0  0  0
   18.5424   -8.3839    7.8846 C   0  0  0  0  0  0  0  0  0  0  0  0
   19.5610   -7.5891    7.2723 N   0  0  0  0  0  0  0  0  0  0  0  0
   20.4726   -7.6256    7.6424 H   0  0  0  0  0  0  0  0  0  0  0  0
   19.3096   -6.7278    6.1248 C   0  0  0  0  0  0  0  0  0  0  0  0
   19.7554   -7.3931    4.8666 C   0  0  0  0  0  0  0  0  0  0  0  0
   21.0761   -7.2496    4.4253 C   0  0  0  0  0  0  0  0  0  0  0  0
   21.4951   -7.8848    3.2523 C   0  0  0  0  0  0  0  0  0  0  0  0
   20.5953   -8.6656    2.5201 C   0  0  0  0  0  0  0  0  0  0  0  0
   19.2763   -8.8114    2.9610 C   0  0  0  0  0  0  0  0  0  0  0  0
   18.8569   -8.1762    4.1338 C   0  0  0  0  0  0  0  0  0  0  0  0
   17.0979  -10.3371   12.0793 C   0  0  0  0  0  0  0  0  0  0  0  0
   17.2899   -9.7125   13.4178 C   0  0  0  0  0  0  0  0  0  0  0  0
   18.2964  -10.0198   14.1104 O   0  0  0  0  0  0  0  0  0  0  0  0
   16.3575   -8.7339   13.8804 N   0  0  0  0  0  0  0  0  0  0  0  0
   15.6143   -8.4734   13.2895 H   0  0  0  0  0  0  0  0  0  0  0  0
   16.4614   -8.1062   15.1899 C   0  0  0  0  0  0  0  0  0  0  0  0
   16.0421   -9.0800   16.2832 C   0  0  0  0  0  0  0  0  0  0  0  0
   16.0324   -8.4171   17.6544 C   0  0  0  0  0  0  0  0  0  0  0  0
   14.7081   -7.7191   17.9364 C   0  0  0  0  0  0  0  0  0  0  0  0
   14.5849   -7.3625   19.4138 C   0  0  0  0  0  0  0  0  0  0  0  0
   13.1878   -7.0018   19.8191 C   0  0  0  0  0  0  0  0  0  0  0  0
   12.1936   -7.6367   19.3720 O   0  0  0  0  0  0  0  0  0  0  0  0
   12.9897   -5.9119   20.7157 N   0  0  0  0  0  0  0  0  0  0  0  0
   11.7451   -5.5492   21.1044 O   0  0  0  0  0  0  0  0  0  0  0  0
   13.7688   -5.4161   21.0570 H   0  0  0  0  0  0  0  0  0  0  0  0
   11.0927   -6.1309   20.6839 H   0  0  0  0  0  0  0  0  0  0  0  0
 20 21  2  0  0  0
 20 19  1  0  0  0
 19  1  1  0  0  0
  1  2  1  0  0  0
  2  3  2  0  0  0
  3  4  1  0  0  0
  4  5  2  0  0  0
  5  6  1  0  0  0
  6  7  2  0  0  0
  7  8  1  0  0  0
  8  9  2  0  0  0
  9 10  1  0  0  0
 10 12  1  0  0  0
 12 13  1  0  0  0
 13 14  2  0  0  0
 14 15  1  0  0  0
 15 16  2  0  0  0
 16 17  1  0  0  0
 17 18  2  0  0  0
 20 22  1  0  0  0
 22 24  1  0  0  0
 24 25  1  0  0  0
 25 26  1  0  0  0
 26 27  1  0  0  0
 27 28  1  0  0  0
 28 29  1  0  0  0
 29 30  2  0  0  0
 29 31  1  0  0  0
 31 32  1  0  0  0
  5  1  1  0  0  0
 18 13  1  0  0  0
  9  4  1  0  0  0
 10 11  1  0  0  0
 22 23  1  0  0  0
 31 33  1  0  0  0
 32 34  1  0  0  0
M  END
>  <minimizedAffinity>
-5.57994

>  <minimizedRMSD>
3.16594

$$$$
CHEMBL2037405 PubChem-60166875


 32 36  0  0  0  0  0  0  0  0999 V2000
   16.0136   -9.8058   15.4869 C   0  0  0  0  0  0  0  0  0  0  0  0
   14.9628   -8.2432   17.1637 N   0  0  0  0  0  0  0  0  0  0  0  0
   15.9870   -9.1894   16.8416 C   0  0  0  0  0  0  0  0  0  0  0  0
   16.8559   -9.5214   17.6916 O   0  0  0  0  0  0  0  0  0  0  0  0
   14.3428   -7.9809   16.4453 H   0  0  0  0  0  0  0  0  0  0  0  0
   14.0473   -5.7178   22.6916 C   0  0  0  0  0  0  0  0  0  0  0  0
   15.3706   -6.1914   22.7931 C   0  0  0  0  0  0  0  0  0  0  0  0
   15.9801   -6.8486   21.7110 C   0  0  0  0  0  0  0  0  0  0  0  0
   15.2459   -7.0209   20.5377 C   0  0  0  0  0  0  0  0  0  0  0  0
   15.7167   -7.6374   19.4248 N   0  0  0  0  0  0  0  0  0  0  0  0
   14.7724   -7.6500   18.4515 C   0  0  0  0  0  0  0  0  0  0  0  0
   13.3287   -6.9070   18.9284 S   0  0  0  0  0  0  0  0  0  0  0  0
   13.9445   -6.5505   20.4478 C   0  0  0  0  0  0  0  0  0  0  0  0
   13.3187   -5.8957   21.5048 C   0  0  0  0  0  0  0  0  0  0  0  0
   12.9529   -4.5048   24.7052 N   0  0  0  0  0  0  0  0  0  0  0  0
   13.4421   -5.0458   23.8064 C   0  0  0  0  0  0  0  0  0  0  0  0
   17.5690  -10.7146   15.2420 S   0  0  0  0  0  0  0  0  0  0  0  0
   17.6809  -10.2539   13.5183 C   0  0  0  0  0  0  0  0  0  0  0  0
   18.4053  -10.9250   12.6038 N   0  0  0  0  0  0  0  0  0  0  0  0
   18.2335  -10.2855   11.4571 N   0  0  0  0  0  0  0  0  0  0  0  0
   17.4153   -9.2507   11.7235 C   0  0  0  0  0  0  0  0  0  0  0  0
   17.0669   -9.2260   12.9864 O   0  0  0  0  0  0  0  0  0  0  0  0
   16.9384   -8.2776   10.7012 C   0  0  0  0  0  0  0  0  0  0  0  0
   17.0582   -8.8547    9.3707 N   0  0  0  0  0  0  0  0  0  0  0  0
   16.4064   -9.9437    8.8968 C   0  0  0  0  0  0  0  0  0  0  0  0
   16.7804  -10.2570    7.6262 N   0  0  0  0  0  0  0  0  0  0  0  0
   17.7005   -9.3209    7.3278 C   0  0  0  0  0  0  0  0  0  0  0  0
   18.4214   -9.1833    6.1444 C   0  0  0  0  0  0  0  0  0  0  0  0
   19.3447   -8.1229    6.0690 C   0  0  0  0  0  0  0  0  0  0  0  0
   19.5223   -7.2447    7.1626 C   0  0  0  0  0  0  0  0  0  0  0  0
   18.7803   -7.4157    8.3462 C   0  0  0  0  0  0  0  0  0  0  0  0
   17.8732   -8.4734    8.3798 C   0  0  0  0  0  0  0  0  0  0  0  0
 15 16  3  0  0  0
 16  6  1  0  0  0
  6  7  2  0  0  0
  7  8  1  0  0  0
  8  9  2  0  0  0
  9 10  1  0  0  0
 10 11  2  0  0  0
 11  2  1  0  0  0
 11 12  1  0  0  0
  2  3  1  0  0  0
  3  4  2  0  0  0
  3  1  1  0  0  0
  1 17  1  0  0  0
 17 18  1  0  0  0
 18 19  2  0  0  0
 19 20  1  0  0  0
 20 21  2  0  0  0
 21 23  1  0  0  0
 21 22  1  0  0  0
 23 24  1  0  0  0
 24 25  1  0  0  0
 25 26  2  0  0  0
 26 27  1  0  0  0
 27 28  2  0  0  0
 28 29  1  0  0  0
 29 30  2  0  0  0
 30 31  1  0  0  0
 31 32  2  0  0  0
 32 24  1  0  0  0
 32 27  1  0  0  0
 22 18  1  0  0  0
 12 13  1  0  0  0
 13 14  2  0  0  0
 13  9  1  0  0  0
 14  6  1  0  0  0
  2  5  1  0  0  0
M  END
>  <minimizedAffinity>
-6.37101

>  <minimizedRMSD>
3.17103

$$$$
CHEMBL199329 PubChem-11569099


 36 40  0  0  0  0  0  0  0  0999 V2000
   17.1637   -9.6714   17.2847 C   0  0  0  0  0  0  0  0  0  0  0  0
   16.6994   -9.1870   13.6174 N   0  0  0  0  0  0  0  0  0  0  0  0
   17.7860   -9.9447   14.2370 C   0  0  0  0  0  0  0  0  0  0  0  0
   18.4408   -9.1344   15.3611 C   0  0  0  0  0  0  0  0  0  0  0  0
   17.4700   -8.6089   16.3377 N   0  0  0  0  0  0  0  0  0  0  0  0
   16.1911   -8.1583   15.7593 C   0  0  0  0  0  0  0  0  0  0  0  0
   16.2449   -7.9526   14.2467 C   0  0  0  0  0  0  0  0  0  0  0  0
   17.9774   -9.0596    9.1983 C   0  0  0  0  0  0  0  0  0  0  0  0
   16.9813   -9.6434    8.3806 C   0  0  0  0  0  0  0  0  0  0  0  0
   15.7974  -10.1625    8.9378 C   0  0  0  0  0  0  0  0  0  0  0  0
   15.6510  -10.0766   10.3187 C   0  0  0  0  0  0  0  0  0  0  0  0
   14.6498  -10.4865   11.0591 O   0  0  0  0  0  0  0  0  0  0  0  0
   14.8824  -10.2290   12.3200 N   0  0  0  0  0  0  0  0  0  0  0  0
   16.0927   -9.6236   12.3914 C   0  0  0  0  0  0  0  0  0  0  0  0
   16.6068   -9.5148   11.1154 C   0  0  0  0  0  0  0  0  0  0  0  0
   17.7892   -8.9919   10.5983 C   0  0  0  0  0  0  0  0  0  0  0  0
   20.1084   -7.8088    9.3058 C   0  0  0  0  0  0  0  0  0  0  0  0
   19.1348   -8.5606    8.5945 O   0  0  0  0  0  0  0  0  0  0  0  0
   16.0172   -9.2506   18.1869 C   0  0  0  0  0  0  0  0  0  0  0  0
   16.1473   -7.7816   18.5487 C   0  0  0  0  0  0  0  0  0  0  0  0
   14.8806   -7.2940   19.2331 C   0  0  0  0  0  0  0  0  0  0  0  0
   13.7257   -8.0568   18.7766 N   0  0  0  0  0  0  0  0  0  0  0  0
   12.4222   -7.9147   19.3521 C   0  0  0  0  0  0  0  0  0  0  0  0
   12.2486   -7.1454   20.3368 O   0  0  0  0  0  0  0  0  0  0  0  0
   13.8472   -8.6984   18.0398 H   0  0  0  0  0  0  0  0  0  0  0  0
   11.2850   -8.6693   18.7971 C   0  0  0  0  0  0  0  0  0  0  0  0
   10.4084   -8.0635   17.8861 C   0  0  0  0  0  0  0  0  0  0  0  0
    9.3314   -8.7803   17.3581 C   0  0  0  0  0  0  0  0  0  0  0  0
    9.1136  -10.1151   17.7320 C   0  0  0  0  0  0  0  0  0  0  0  0
    9.9928  -10.7198   18.6433 C   0  0  0  0  0  0  0  0  0  0  0  0
   11.0695  -10.0024   19.1711 C   0  0  0  0  0  0  0  0  0  0  0  0
    8.0066  -10.8522   17.1892 N   0  0  0  0  0  0  0  0  0  0  0  0
    6.8771  -10.3378   16.6705 C   0  0  0  0  0  0  0  0  0  0  0  0
    6.0873  -11.3975   16.2704 C   0  0  0  0  0  0  0  0  0  0  0  0
    6.7292  -12.5526   16.5431 N   0  0  0  0  0  0  0  0  0  0  0  0
    7.8986  -12.1905   17.1038 C   0  0  0  0  0  0  0  0  0  0  0  0
 17 18  1  0  0  0
 18  8  1  0  0  0
  8  9  2  0  0  0
  9 10  1  0  0  0
 10 11  2  0  0  0
 11 12  1  0  0  0
 12 13  1  0  0  0
 13 14  2  0  0  0
 14  2  1  0  0  0
 14 15  1  0  0  0
  2  3  1  0  0  0
  3  4  1  0  0  0
  4  5  1  0  0  0
  5  1  1  0  0  0
  5  6  1  0  0  0
  1 19  1  0  0  0
 19 20  1  0  0  0
 20 21  1  0  0  0
 21 22  1  0  0  0
 22 23  1  0  0  0
 23 24  2  0  0  0
 23 26  1  0  0  0
 26 27  2  0  0  0
 27 28  1  0  0  0
 28 29  2  0  0  0
 29 32  1  0  0  0
 29 30  1  0  0  0
 32 33  1  0  0  0
 33 34  2  0  0  0
 34 35  1  0  0  0
 35 36  2  0  0  0
 36 32  1  0  0  0
 30 31  2  0  0  0
 31 26  1  0  0  0
  6  7  1  0  0  0
  7  2  1  0  0  0
 15 16  2  0  0  0
 15 11  1  0  0  0
 16  8  1  0  0  0
 22 25  1  0  0  0
M  END
>  <minimizedAffinity>
-1.94578

>  <minimizedRMSD>
3.17154

$$$$
CHEMBL1375904 3443799 CSC025843067 MCULE-2049607520 MolPort-004-063-497 PubChem-2563882 Z15437074 ZINC000003443799


 27 30  0  0  0  0  0  0  0  0999 V2000
   17.8079   -9.5544   11.9828 C   0  0  0  0  0  0  0  0  0  0  0  0
   18.4700   -9.0315   10.8483 C   0  0  0  0  0  0  0  0  0  0  0  0
   17.7546   -8.9163    9.6313 C   0  0  0  0  0  0  0  0  0  0  0  0
   18.3823   -8.4034    8.4924 C   0  0  0  0  0  0  0  0  0  0  0  0
   19.7186   -8.0014    8.5482 C   0  0  0  0  0  0  0  0  0  0  0  0
   20.4329   -8.1106    9.7433 C   0  0  0  0  0  0  0  0  0  0  0  0
   19.8126   -8.6225   10.8859 C   0  0  0  0  0  0  0  0  0  0  0  0
   16.4548   -9.3032    9.5634 N   0  0  0  0  0  0  0  0  0  0  0  0
   15.7972   -9.8083   10.6413 C   0  0  0  0  0  0  0  0  0  0  0  0
   16.4674   -9.9388   11.8612 C   0  0  0  0  0  0  0  0  0  0  0  0
   18.8887   -9.6044   15.3340 C   0  0  0  0  0  0  0  0  0  0  0  0
   18.0155   -9.2275   14.4335 O   0  0  0  0  0  0  0  0  0  0  0  0
   18.4636   -9.7167   13.3009 C   0  0  0  0  0  0  0  0  0  0  0  0
   19.6133  -10.3961   13.4919 N   0  0  0  0  0  0  0  0  0  0  0  0
   19.8836  -10.3239   14.7858 N   0  0  0  0  0  0  0  0  0  0  0  0
   18.7766   -9.2118   17.0729 S   0  0  0  0  0  0  0  0  0  0  0  0
   17.0238   -9.6820   17.1390 C   0  0  0  0  0  0  0  0  0  0  0  0
   15.9289   -7.9072   18.5541 N   0  0  0  0  0  0  0  0  0  0  0  0
   16.1804   -8.4643   17.2695 C   0  0  0  0  0  0  0  0  0  0  0  0
   15.7154   -7.9075   16.2413 O   0  0  0  0  0  0  0  0  0  0  0  0
   16.2923   -8.3421   19.3591 H   0  0  0  0  0  0  0  0  0  0  0  0
   15.3914   -7.0866   18.6382 H   0  0  0  0  0  0  0  0  0  0  0  0
   14.3885  -10.2125   10.5177 C   0  0  0  0  0  0  0  0  0  0  0  0
   13.4290  -10.8476   11.7407 S   0  0  0  0  0  0  0  0  0  0  0  0
   12.0266  -11.0318   10.8309 C   0  0  0  0  0  0  0  0  0  0  0  0
   12.3118  -10.5875    9.5419 C   0  0  0  0  0  0  0  0  0  0  0  0
   13.6255  -10.1303    9.3623 C   0  0  0  0  0  0  0  0  0  0  0  0
 18 19  1  0  0  0
 19 17  1  0  0  0
 17 16  1  0  0  0
 16 11  1  0  0  0
 11 12  1  0  0  0
 12 13  1  0  0  0
 13  1  1  0  0  0
  1  2  1  0  0  0
  2  3  1  0  0  0
  3  4  2  0  0  0
  4  5  1  0  0  0
  5  6  2  0  0  0
  6  7  1  0  0  0
  3  8  1  0  0  0
  8  9  2  0  0  0
  9 23  1  0  0  0
 23 24  1  0  0  0
 24 25  1  0  0  0
 25 26  2  0  0  0
 26 27  1  0  0  0
  9 10  1  0  0  0
 13 14  2  0  0  0
 14 15  1  0  0  0
 19 20  2  0  0  0
 15 11  2  0  0  0
 10  1  2  0  0  0
  7  2  2  0  0  0
 27 23  2  0  0  0
 18 21  1  0  0  0
 18 22  1  0  0  0
M  END
>  <minimizedAffinity>
4.88691

>  <minimizedRMSD>
3.17208

$$$$
CHEMBL106588


 41 44  0  0  0  0  0  0  0  0999 V2000
   17.1635   -9.5465    8.2077 C   0  0  0  0  0  0  0  0  0  0  0  0
   17.1070   -9.6623    6.8545 N   0  0  0  0  0  0  0  0  0  0  0  0
   18.0737   -8.8223    6.4390 C   0  0  0  0  0  0  0  0  0  0  0  0
   18.4509   -8.5470    5.1282 C   0  0  0  0  0  0  0  0  0  0  0  0
   19.4975   -7.6210    4.9178 C   0  0  0  0  0  0  0  0  0  0  0  0
   20.1190   -7.0078    6.0359 C   0  0  0  0  0  0  0  0  0  0  0  0
   19.7154   -7.3057    7.3496 C   0  0  0  0  0  0  0  0  0  0  0  0
   18.6820   -8.2262    7.5033 C   0  0  0  0  0  0  0  0  0  0  0  0
   18.1165   -8.6741    8.6309 N   0  0  0  0  0  0  0  0  0  0  0  0
   18.4506   -8.2930    9.9955 C   0  0  0  0  0  0  0  0  0  0  0  0
   16.2021  -11.7769    8.7337 C   0  0  0  0  0  0  0  0  0  0  0  0
   16.2356  -10.3031    9.1097 C   0  0  0  0  0  0  0  0  0  0  0  0
   16.5849  -10.0811   10.5523 C   0  0  0  0  0  0  0  0  0  0  0  0
   15.7504   -9.4278   11.4038 N   0  0  0  0  0  0  0  0  0  0  0  0
   16.4400   -9.4388   12.5526 C   0  0  0  0  0  0  0  0  0  0  0  0
   16.0583   -8.8990   13.7775 C   0  0  0  0  0  0  0  0  0  0  0  0
   16.9547   -9.0277   14.8607 C   0  0  0  0  0  0  0  0  0  0  0  0
   18.1936   -9.6897   14.6723 C   0  0  0  0  0  0  0  0  0  0  0  0
   18.5456  -10.2227   13.4187 C   0  0  0  0  0  0  0  0  0  0  0  0
   17.6309  -10.0724   12.3811 C   0  0  0  0  0  0  0  0  0  0  0  0
   17.7538  -10.4937   11.1152 N   0  0  0  0  0  0  0  0  0  0  0  0
   18.5013  -10.9794   10.6972 H   0  0  0  0  0  0  0  0  0  0  0  0
   16.6044   -8.4760   16.1810 C   0  0  0  0  0  0  0  0  0  0  0  0
   17.4166   -8.7544   17.3180 N   0  0  0  0  0  0  0  0  0  0  0  0
   15.5823   -7.7521   16.3175 O   0  0  0  0  0  0  0  0  0  0  0  0
   18.2178   -9.3187   17.2244 H   0  0  0  0  0  0  0  0  0  0  0  0
   17.1766   -8.3824   18.1974 H   0  0  0  0  0  0  0  0  0  0  0  0
   19.9223   -7.3037    3.5319 C   0  0  0  0  0  0  0  0  0  0  0  0
   19.4200   -6.3053    2.9492 O   0  0  0  0  0  0  0  0  0  0  0  0
   20.9168   -8.1274    2.7619 C   0  0  0  0  0  0  0  0  0  0  0  0
   20.3376   -9.4281    2.2993 C   0  0  0  0  0  0  0  0  0  0  0  0
   19.1991   -9.4443    1.7642 O   0  0  0  0  0  0  0  0  0  0  0  0
   21.0405  -10.6164    2.4545 O   0  0  0  0  0  0  0  0  0  0  0  0
   21.8888  -10.6105    2.8524 H   0  0  0  0  0  0  0  0  0  0  0  0
   22.2425   -8.2929    3.4961 C   0  0  0  0  0  0  0  0  0  0  0  0
   23.6447   -8.0530    2.3641 P   0  0  0  0  0  0  0  0  0  0  0  0
   24.4836   -6.8937    2.8500 O   0  0  0  0  0  0  0  0  0  0  0  0
   24.5961   -9.4505    2.3190 O   0  0  0  0  0  0  0  0  0  0  0  0
   23.0671   -7.7143    0.8112 O   0  0  0  0  0  0  0  0  0  0  0  0
   24.9275   -9.6449    3.2096 H   0  0  0  0  0  0  0  0  0  0  0  0
   22.5214   -6.9128    0.8368 H   0  0  0  0  0  0  0  0  0  0  0  0
 12 11  1  0  0  0
 12 13  1  0  0  0
 12  1  1  0  0  0
 13 14  2  0  0  0
 14 15  1  0  0  0
 15 16  2  0  0  0
 16 17  1  0  0  0
 17 23  1  0  0  0
 17 18  2  0  0  0
 23 24  1  0  0  0
 23 25  2  0  0  0
 18 19  1  0  0  0
 19 20  2  0  0  0
 20 21  1  0  0  0
 20 15  1  0  0  0
 21 13  1  0  0  0
  1  2  2  0  0  0
  2  3  1  0  0  0
  3  4  2  0  0  0
  4  5  1  0  0  0
  5 28  1  0  0  0
  5  6  2  0  0  0
 28 29  2  0  0  0
 30 28  1  0  0  0
 30 35  1  0  0  0
 30 31  1  0  0  0
 35 36  1  0  0  0
 36 37  2  0  0  0
 36 38  1  0  0  0
 36 39  1  0  0  0
 31 32  2  0  0  0
 31 33  1  0  0  0
  6  7  1  0  0  0
  7  8  2  0  0  0
  8  9  1  0  0  0
  8  3  1  0  0  0
  9 10  1  0  0  0
  9  1  1  0  0  0
 24 26  1  0  0  0
 24 27  1  0  0  0
 21 22  1  0  0  0
 38 40  1  0  0  0
 39 41  1  0  0  0
 33 34  1  0  0  0
M  END
>  <minimizedAffinity>
-6.51825

>  <minimizedRMSD>
3.17356

$$$$
CHEMBL5094623 PubChem-156898568


 37 41  0  0  0  0  0  0  0  0999 V2000
   16.8728   -8.7931   14.2605 C   0  0  0  0  0  0  0  0  0  0  0  0
   16.7832   -9.2259   12.8626 N   0  0  0  0  0  0  0  0  0  0  0  0
   15.7988   -9.9224   12.3830 C   0  0  0  0  0  0  0  0  0  0  0  0
   14.7499  -10.3573   13.2460 N   0  0  0  0  0  0  0  0  0  0  0  0
   14.7894  -10.0953   14.6495 C   0  0  0  0  0  0  0  0  0  0  0  0
   15.8049   -9.3787   15.1736 C   0  0  0  0  0  0  0  0  0  0  0  0
   13.6628  -10.6117   15.4828 C   0  0  0  0  0  0  0  0  0  0  0  0
   13.9845  -10.8472   12.8673 H   0  0  0  0  0  0  0  0  0  0  0  0
   18.5226  -11.3405   13.3004 Cl  0  0  0  0  0  0  0  0  0  0  0  0
   19.0731  -10.1030   14.4200 C   0  0  0  0  0  0  0  0  0  0  0  0
   18.2696   -8.9976   14.7819 C   0  0  0  0  0  0  0  0  0  0  0  0
   18.7731   -8.0498   15.6806 C   0  0  0  0  0  0  0  0  0  0  0  0
   20.0540   -8.1917   16.2190 C   0  0  0  0  0  0  0  0  0  0  0  0
   20.8440   -9.2855   15.8617 C   0  0  0  0  0  0  0  0  0  0  0  0
   20.3541  -10.2368   14.9648 C   0  0  0  0  0  0  0  0  0  0  0  0
   15.8963   -9.0849   16.6214 C   0  0  0  0  0  0  0  0  0  0  0  0
   16.4631   -9.9094   17.3890 O   0  0  0  0  0  0  0  0  0  0  0  0
   15.2625   -7.9228   17.1641 N   0  0  0  0  0  0  0  0  0  0  0  0
   14.9899   -7.2017   16.5519 H   0  0  0  0  0  0  0  0  0  0  0  0
   15.0062   -7.7677   18.5887 C   0  0  0  0  0  0  0  0  0  0  0  0
   13.6758   -7.1253   18.7960 C   0  0  0  0  0  0  0  0  0  0  0  0
   13.2876   -6.3900   19.8958 C   0  0  0  0  0  0  0  0  0  0  0  0
   12.0533   -5.9378   19.6202 N   0  0  0  0  0  0  0  0  0  0  0  0
   11.6583   -6.3315   18.4210 N   0  0  0  0  0  0  0  0  0  0  0  0
   12.6464   -7.0675   17.8761 C   0  0  0  0  0  0  0  0  0  0  0  0
   11.2517   -5.1103   20.5013 C   0  0  0  0  0  0  0  0  0  0  0  0
   15.7663  -10.2939   11.0012 N   0  0  0  0  0  0  0  0  0  0  0  0
   15.1448  -11.0100   10.7365 H   0  0  0  0  0  0  0  0  0  0  0  0
   16.5699   -9.7021    9.9756 C   0  0  0  0  0  0  0  0  0  0  0  0
   17.5524   -8.8468   10.2111 O   0  0  0  0  0  0  0  0  0  0  0  0
   18.0373   -8.5435    9.0386 C   0  0  0  0  0  0  0  0  0  0  0  0
   17.3389   -9.2239    8.0860 C   0  0  0  0  0  0  0  0  0  0  0  0
   16.3865   -9.9794    8.6584 N   0  0  0  0  0  0  0  0  0  0  0  0
   17.6306   -9.1019    6.7299 C   0  0  0  0  0  0  0  0  0  0  0  0
   18.6852   -8.2406    6.3712 C   0  0  0  0  0  0  0  0  0  0  0  0
   19.4077   -7.5363    7.3616 C   0  0  0  0  0  0  0  0  0  0  0  0
   19.0856   -7.6836    8.7240 C   0  0  0  0  0  0  0  0  0  0  0  0
  9 10  1  0  0  0
 10 11  2  0  0  0
 11  1  1  0  0  0
  1  2  1  0  0  0
  2  3  2  0  0  0
  3  4  1  0  0  0
  4  5  1  0  0  0
  5  6  2  0  0  0
  6 16  1  0  0  0
 16 17  2  0  0  0
 16 18  1  0  0  0
 18 20  1  0  0  0
 20 21  1  0  0  0
 21 22  2  0  0  0
 22 23  1  0  0  0
 23 24  1  0  0  0
 24 25  2  0  0  0
 23 26  1  0  0  0
  5  7  1  0  0  0
  3 27  1  0  0  0
 27 29  1  0  0  0
 29 30  1  0  0  0
 30 31  1  0  0  0
 31 32  2  0  0  0
 32 33  1  0  0  0
 32 34  1  0  0  0
 34 35  2  0  0  0
 35 36  1  0  0  0
 36 37  2  0  0  0
 11 12  1  0  0  0
 12 13  2  0  0  0
 13 14  1  0  0  0
 14 15  2  0  0  0
 15 10  1  0  0  0
  6  1  1  0  0  0
 25 21  1  0  0  0
 33 29  2  0  0  0
 37 31  1  0  0  0
  4  8  1  0  0  0
 18 19  1  0  0  0
 27 28  1  0  0  0
M  END
>  <minimizedAffinity>
-2.08974

>  <minimizedRMSD>
3.17484

$$$$
CHEMBL5190643


 34 36  0  0  0  0  0  0  0  0999 V2000
   18.6227  -10.0379   13.0382 C   0  0  0  0  0  0  0  0  0  0  0  0
   17.8115   -9.2249   13.8519 O   0  0  0  0  0  0  0  0  0  0  0  0
   17.2342  -10.0543   14.8376 C   0  0  0  0  0  0  0  0  0  0  0  0
   17.6899  -11.4849   14.6458 C   0  0  0  0  0  0  0  0  0  0  0  0
   18.2406  -11.4805   13.2486 C   0  0  0  0  0  0  0  0  0  0  0  0
   19.3582  -12.3089   13.1202 O   0  0  0  0  0  0  0  0  0  0  0  0
   18.6898  -11.7670   15.5813 O   0  0  0  0  0  0  0  0  0  0  0  0
   20.0430  -12.0273   13.7468 H   0  0  0  0  0  0  0  0  0  0  0  0
   19.4073  -11.1203   15.4926 H   0  0  0  0  0  0  0  0  0  0  0  0
   18.4655   -9.6665   11.6375 N   0  0  0  0  0  0  0  0  0  0  0  0
   17.3930   -9.7993   10.8481 C   0  0  0  0  0  0  0  0  0  0  0  0
   17.6923   -9.3525    9.6102 C   0  0  0  0  0  0  0  0  0  0  0  0
   16.7318   -9.3919    8.6099 C   0  0  0  0  0  0  0  0  0  0  0  0
   15.5008   -9.8918    8.9280 N   0  0  0  0  0  0  0  0  0  0  0  0
   15.2214  -10.3417   10.1943 C   0  0  0  0  0  0  0  0  0  0  0  0
   16.1758  -10.2991   11.1732 N   0  0  0  0  0  0  0  0  0  0  0  0
   17.0111   -8.9307    7.2927 N   0  0  0  0  0  0  0  0  0  0  0  0
   18.9669   -8.9220    9.5606 N   0  0  0  0  0  0  0  0  0  0  0  0
   19.4170   -9.1331   10.8307 C   0  0  0  0  0  0  0  0  0  0  0  0
   17.9019   -8.5725    7.0751 H   0  0  0  0  0  0  0  0  0  0  0  0
   16.3134   -8.9700    6.5991 H   0  0  0  0  0  0  0  0  0  0  0  0
   15.7175   -9.9871   14.7465 C   0  0  0  0  0  0  0  0  0  0  0  0
   15.0746   -8.6145   15.7535 S   0  0  0  0  0  0  0  0  0  0  0  0
   16.7082   -8.2187   16.4545 C   0  0  0  0  0  0  0  0  0  0  0  0
   16.7049   -8.3927   17.9660 C   0  0  0  0  0  0  0  0  0  0  0  0
   15.2886   -8.4452   18.5224 C   0  0  0  0  0  0  0  0  0  0  0  0
   15.2152   -7.7456   19.7974 N   0  0  0  0  0  0  0  0  0  0  0  0
   14.1307   -6.8826   20.1432 C   0  0  0  0  0  0  0  0  0  0  0  0
   13.1486   -6.7481   19.3631 O   0  0  0  0  0  0  0  0  0  0  0  0
   14.1645   -6.1820   21.3860 N   0  0  0  0  0  0  0  0  0  0  0  0
   15.9430   -7.8727   20.4480 H   0  0  0  0  0  0  0  0  0  0  0  0
   14.9375   -6.3059   21.9830 H   0  0  0  0  0  0  0  0  0  0  0  0
   13.0925   -5.2913   21.7969 C   0  0  0  0  0  0  0  0  0  0  0  0
   13.6834   -4.0438   22.4185 C   0  0  0  0  0  0  0  0  0  0  0  0
 10 11  1  0  0  0
 11 12  1  0  0  0
 12 13  2  0  0  0
 13 14  1  0  0  0
 14 15  2  0  0  0
 15 16  1  0  0  0
 13 17  1  0  0  0
 12 18  1  0  0  0
 18 19  2  0  0  0
  1 10  1  0  0  0
  1  2  1  0  0  0
  2  3  1  0  0  0
  3  4  1  0  0  0
  4  5  1  0  0  0
  5  6  1  0  0  0
  4  7  1  0  0  0
  3 22  1  0  0  0
 22 23  1  0  0  0
 23 24  1  0  0  0
 24 25  1  0  0  0
 25 26  1  0  0  0
 26 27  1  0  0  0
 27 28  1  0  0  0
 28 29  2  0  0  0
 28 30  1  0  0  0
 30 33  1  0  0  0
 33 34  1  0  0  0
 19 10  1  0  0  0
  5  1  1  0  0  0
 16 11  2  0  0  0
 17 20  1  0  0  0
 17 21  1  0  0  0
  6  8  1  0  0  0
  7  9  1  0  0  0
 27 31  1  0  0  0
 30 32  1  0  0  0
M  END
>  <minimizedAffinity>
-3.29682

>  <minimizedRMSD>
3.18469

$$$$
CHEMBL2037409 PubChem-60166879


 35 39  0  0  0  0  0  0  0  0999 V2000
   15.1233   -8.5753   19.0936 N   0  0  0  0  0  0  0  0  0  0  0  0
   15.2759   -8.1624   17.7316 C   0  0  0  0  0  0  0  0  0  0  0  0
   15.5500   -6.9677   17.4414 O   0  0  0  0  0  0  0  0  0  0  0  0
   14.8989   -9.5193   19.2604 H   0  0  0  0  0  0  0  0  0  0  0  0
   15.6747   -4.9014   24.0008 C   0  0  0  0  0  0  0  0  0  0  0  0
   17.0166   -5.1771   23.6676 C   0  0  0  0  0  0  0  0  0  0  0  0
   17.3368   -6.0016   22.5762 C   0  0  0  0  0  0  0  0  0  0  0  0
   16.2963   -6.5447   21.8249 C   0  0  0  0  0  0  0  0  0  0  0  0
   16.4702   -7.3542   20.7504 N   0  0  0  0  0  0  0  0  0  0  0  0
   15.2722   -7.7202   20.2308 C   0  0  0  0  0  0  0  0  0  0  0  0
   13.9623   -7.0619   21.0758 S   0  0  0  0  0  0  0  0  0  0  0  0
   14.9780   -6.2728   22.1534 C   0  0  0  0  0  0  0  0  0  0  0  0
   14.6362   -5.4597   23.2294 C   0  0  0  0  0  0  0  0  0  0  0  0
   14.0490   -2.9037   26.9084 C   0  0  0  0  0  0  0  0  0  0  0  0
   14.1355   -3.8209   25.7427 C   0  0  0  0  0  0  0  0  0  0  0  0
   13.0895   -4.3783   25.3172 O   0  0  0  0  0  0  0  0  0  0  0  0
   15.4080   -4.0527   25.1258 N   0  0  0  0  0  0  0  0  0  0  0  0
   16.1792   -3.5802   25.5146 H   0  0  0  0  0  0  0  0  0  0  0  0
   15.1292   -9.1649   16.6404 C   0  0  0  0  0  0  0  0  0  0  0  0
   16.7546   -9.8369   16.1748 S   0  0  0  0  0  0  0  0  0  0  0  0
   16.5097   -9.4959   14.4363 C   0  0  0  0  0  0  0  0  0  0  0  0
   15.9186   -8.3837   13.9621 N   0  0  0  0  0  0  0  0  0  0  0  0
   15.9263   -8.4964   12.6430 N   0  0  0  0  0  0  0  0  0  0  0  0
   16.5192   -9.6736   12.3709 C   0  0  0  0  0  0  0  0  0  0  0  0
   16.8854  -10.2926   13.4663 O   0  0  0  0  0  0  0  0  0  0  0  0
   16.7617  -10.1868   10.9934 C   0  0  0  0  0  0  0  0  0  0  0  0
   17.8196   -9.4179   10.3553 N   0  0  0  0  0  0  0  0  0  0  0  0
   18.9980   -9.0459   10.9105 C   0  0  0  0  0  0  0  0  0  0  0  0
   19.7476   -8.2834   10.0685 N   0  0  0  0  0  0  0  0  0  0  0  0
   18.9829   -8.1867    8.9648 C   0  0  0  0  0  0  0  0  0  0  0  0
   19.2698   -7.4995    7.7881 C   0  0  0  0  0  0  0  0  0  0  0  0
   18.3005   -7.5318    6.7673 C   0  0  0  0  0  0  0  0  0  0  0  0
   17.0886   -8.2369    6.9477 C   0  0  0  0  0  0  0  0  0  0  0  0
   16.8302   -8.9201    8.1506 C   0  0  0  0  0  0  0  0  0  0  0  0
   17.8155   -8.8669    9.1355 C   0  0  0  0  0  0  0  0  0  0  0  0
 14 15  1  0  0  0
 15 16  2  0  0  0
 15 17  1  0  0  0
 17  5  1  0  0  0
  5  6  2  0  0  0
  6  7  1  0  0  0
  7  8  2  0  0  0
  8  9  1  0  0  0
  9 10  2  0  0  0
 10  1  1  0  0  0
 10 11  1  0  0  0
  1  2  1  0  0  0
  2  3  2  0  0  0
  2 19  1  0  0  0
 19 20  1  0  0  0
 20 21  1  0  0  0
 21 22  2  0  0  0
 22 23  1  0  0  0
 23 24  2  0  0  0
 24 26  1  0  0  0
 24 25  1  0  0  0
 26 27  1  0  0  0
 27 28  1  0  0  0
 28 29  2  0  0  0
 29 30  1  0  0  0
 30 31  2  0  0  0
 31 32  1  0  0  0
 32 33  2  0  0  0
 33 34  1  0  0  0
 34 35  2  0  0  0
 35 27  1  0  0  0
 35 30  1  0  0  0
 25 21  1  0  0  0
 11 12  1  0  0  0
 12 13  2  0  0  0
 12  8  1  0  0  0
 13  5  1  0  0  0
 17 18  1  0  0  0
  1  4  1  0  0  0
M  END
>  <minimizedAffinity>
-4.91173

>  <minimizedRMSD>
3.18749

$$$$
CHEMBL1886872 9461273 CSC028066727 MCULE-2477605539 MolPort-009-213-288 PubChem-16309419 Z52021703 ZINC000009461273


 33 36  0  0  0  0  0  0  0  0999 V2000
   17.9213   -9.7321   13.2922 C   0  0  0  0  0  0  0  0  0  0  0  0
   17.4521   -8.8555   14.3189 N   0  0  0  0  0  0  0  0  0  0  0  0
   18.8156  -10.5823   13.5528 O   0  0  0  0  0  0  0  0  0  0  0  0
   16.7342   -8.2162   14.1064 H   0  0  0  0  0  0  0  0  0  0  0  0
   18.3514   -8.4019    8.7695 N   0  0  0  0  0  0  0  0  0  0  0  0
   17.4935   -8.9858    9.6192 C   0  0  0  0  0  0  0  0  0  0  0  0
   18.0495   -9.0559   10.8590 C   0  0  0  0  0  0  0  0  0  0  0  0
   17.3581   -9.6311   11.9308 C   0  0  0  0  0  0  0  0  0  0  0  0
   16.0662  -10.1242   11.6544 C   0  0  0  0  0  0  0  0  0  0  0  0
   15.5187  -10.0177   10.3526 C   0  0  0  0  0  0  0  0  0  0  0  0
   16.2524   -9.4567    9.3426 N   0  0  0  0  0  0  0  0  0  0  0  0
   19.3052   -8.4821   10.7391 C   0  0  0  0  0  0  0  0  0  0  0  0
   19.4525   -8.0937    9.4442 N   0  0  0  0  0  0  0  0  0  0  0  0
   19.3268   -7.3059    6.8074 C   0  0  0  0  0  0  0  0  0  0  0  0
   18.1691   -8.1254    7.3479 C   0  0  0  0  0  0  0  0  0  0  0  0
   18.0315   -9.4170    6.5630 C   0  0  0  0  0  0  0  0  0  0  0  0
   14.1612  -10.5797   10.0689 C   0  0  0  0  0  0  0  0  0  0  0  0
   13.3395  -10.6275   11.3457 C   0  0  0  0  0  0  0  0  0  0  0  0
   13.0919   -9.5336   10.3329 C   0  0  0  0  0  0  0  0  0  0  0  0
   17.9984   -8.8753   15.6668 C   0  0  0  0  0  0  0  0  0  0  0  0
   17.1038   -9.7033   16.5771 C   0  0  0  0  0  0  0  0  0  0  0  0
   16.0072   -8.8746   17.1608 C   0  0  0  0  0  0  0  0  0  0  0  0
   14.9513   -8.4532   16.3460 C   0  0  0  0  0  0  0  0  0  0  0  0
   13.9180   -7.6791   16.8821 C   0  0  0  0  0  0  0  0  0  0  0  0
   13.9348   -7.3272   18.2364 C   0  0  0  0  0  0  0  0  0  0  0  0
   14.9884   -7.7525   19.0529 C   0  0  0  0  0  0  0  0  0  0  0  0
   16.0217   -8.5269   18.5175 C   0  0  0  0  0  0  0  0  0  0  0  0
   12.6457   -6.3483   18.9122 S   0  0  0  0  0  0  0  0  0  0  0  0
   13.2078   -4.7295   19.1401 N   0  0  0  0  0  0  0  0  0  0  0  0
   11.4698   -6.3488   17.9754 O   0  0  0  0  0  0  0  0  0  0  0  0
   12.2232   -6.9086   20.2427 O   0  0  0  0  0  0  0  0  0  0  0  0
   13.4969   -4.3405   18.2426 H   0  0  0  0  0  0  0  0  0  0  0  0
   14.0013   -4.7321   19.7810 H   0  0  0  0  0  0  0  0  0  0  0  0
 14 15  1  0  0  0
 15  5  1  0  0  0
  5  6  1  0  0  0
  6  7  2  0  0  0
  7  8  1  0  0  0
  8  1  1  0  0  0
  1  2  1  0  0  0
  2 20  1  0  0  0
 20 21  1  0  0  0
 21 22  1  0  0  0
 22 23  2  0  0  0
 23 24  1  0  0  0
 24 25  2  0  0  0
 25 28  1  0  0  0
 28 29  1  0  0  0
 28 30  2  0  0  0
 28 31  2  0  0  0
 25 26  1  0  0  0
 26 27  2  0  0  0
  1  3  2  0  0  0
  8  9  2  0  0  0
  9 10  1  0  0  0
 10 17  1  0  0  0
 17 18  1  0  0  0
 18 19  1  0  0  0
 10 11  2  0  0  0
  7 12  1  0  0  0
 12 13  2  0  0  0
 15 16  1  0  0  0
 13  5  1  0  0  0
 11  6  1  0  0  0
 27 22  1  0  0  0
 19 17  1  0  0  0
  2  4  1  0  0  0
 29 32  1  0  0  0
 29 33  1  0  0  0
M  END
>  <minimizedAffinity>
-2.50555

>  <minimizedRMSD>
3.19093

$$$$
CHEMBL1493038 LN00860424


 33 36  0  0  0  0  0  0  0  0999 V2000
   16.3504   -8.7512   17.3386 N   0  0  0  0  0  0  0  0  0  0  0  0
   15.3447   -8.3587   18.1422 C   0  0  0  0  0  0  0  0  0  0  0  0
   14.4896   -7.5425   17.4955 N   0  0  0  0  0  0  0  0  0  0  0  0
   14.9484   -7.4042   16.2586 N   0  0  0  0  0  0  0  0  0  0  0  0
   16.0755   -8.1367   16.1755 C   0  0  0  0  0  0  0  0  0  0  0  0
   17.2788  -10.9951   17.0912 C   0  0  0  0  0  0  0  0  0  0  0  0
   17.4922   -9.6014   17.6513 C   0  0  0  0  0  0  0  0  0  0  0  0
   15.2038   -8.7373   19.5806 C   0  0  0  0  0  0  0  0  0  0  0  0
   14.4739   -7.7058   20.3045 N   0  0  0  0  0  0  0  0  0  0  0  0
   15.0717   -6.8992   21.3256 C   0  0  0  0  0  0  0  0  0  0  0  0
   16.2688   -7.1054   21.6642 O   0  0  0  0  0  0  0  0  0  0  0  0
   13.5267   -7.5564   20.0818 H   0  0  0  0  0  0  0  0  0  0  0  0
   14.2796   -5.8330   21.9781 C   0  0  0  0  0  0  0  0  0  0  0  0
   13.5325   -4.9533   21.1797 C   0  0  0  0  0  0  0  0  0  0  0  0
   12.7733   -3.9334   21.7583 C   0  0  0  0  0  0  0  0  0  0  0  0
   12.7523   -3.7808   23.1454 C   0  0  0  0  0  0  0  0  0  0  0  0
   13.4905   -4.6477   23.9533 C   0  0  0  0  0  0  0  0  0  0  0  0
   14.2526   -5.6708   23.3804 C   0  0  0  0  0  0  0  0  0  0  0  0
   14.9562   -6.4917   24.1994 F   0  0  0  0  0  0  0  0  0  0  0  0
   17.0739   -8.2611   14.6950 S   0  0  0  0  0  0  0  0  0  0  0  0
   15.9325   -9.4662   13.9413 C   0  0  0  0  0  0  0  0  0  0  0  0
   16.0825   -9.5685   12.4546 C   0  0  0  0  0  0  0  0  0  0  0  0
   15.0393  -10.0400   11.7206 N   0  0  0  0  0  0  0  0  0  0  0  0
   15.1178  -10.1559   10.3689 C   0  0  0  0  0  0  0  0  0  0  0  0
   14.0270  -10.6428    9.6573 O   0  0  0  0  0  0  0  0  0  0  0  0
   16.2942   -9.7846    9.7101 C   0  0  0  0  0  0  0  0  0  0  0  0
   16.4272   -9.8844    8.3194 C   0  0  0  0  0  0  0  0  0  0  0  0
   17.6230   -9.5011    7.7039 C   0  0  0  0  0  0  0  0  0  0  0  0
   18.6864   -9.0183    8.4742 C   0  0  0  0  0  0  0  0  0  0  0  0
   18.5589   -8.9166    9.8632 C   0  0  0  0  0  0  0  0  0  0  0  0
   17.3663   -9.2981   10.4845 C   0  0  0  0  0  0  0  0  0  0  0  0
   17.2370   -9.2016   11.8321 N   0  0  0  0  0  0  0  0  0  0  0  0
   13.2442  -10.8884   10.1100 H   0  0  0  0  0  0  0  0  0  0  0  0
  6  7  1  0  0  0
  7  1  1  0  0  0
  1  2  1  0  0  0
  2  8  1  0  0  0
  2  3  2  0  0  0
  8  9  1  0  0  0
  9 10  1  0  0  0
 10 11  2  0  0  0
 10 13  1  0  0  0
 13 14  2  0  0  0
 14 15  1  0  0  0
 15 16  2  0  0  0
 16 17  1  0  0  0
 17 18  2  0  0  0
 18 19  1  0  0  0
 18 13  1  0  0  0
  3  4  1  0  0  0
  4  5  2  0  0  0
  5 20  1  0  0  0
  5  1  1  0  0  0
 20 21  1  0  0  0
 21 22  1  0  0  0
 22 23  2  0  0  0
 23 24  1  0  0  0
 24 25  1  0  0  0
 24 26  2  0  0  0
 26 27  1  0  0  0
 27 28  2  0  0  0
 28 29  1  0  0  0
 29 30  2  0  0  0
 30 31  1  0  0  0
 31 32  2  0  0  0
 31 26  1  0  0  0
 32 22  1  0  0  0
  9 12  1  0  0  0
 25 33  1  0  0  0
M  END
>  <minimizedAffinity>
-4.99437

>  <minimizedRMSD>
3.19435

$$$$
CHEMBL5276317


 33 37  0  0  0  0  0  0  0  0999 V2000
   16.4728   -9.2860   16.1168 C   0  0  0  0  0  0  0  0  0  0  0  0
   16.6311   -8.7398   14.6971 C   0  0  0  0  0  0  0  0  0  0  0  0
   16.8058   -9.8506   13.7618 N   0  0  0  0  0  0  0  0  0  0  0  0
   17.8552  -10.8255   14.0568 C   0  0  0  0  0  0  0  0  0  0  0  0
   17.6662  -11.3951   15.4645 C   0  0  0  0  0  0  0  0  0  0  0  0
   17.5803  -10.2800   16.5078 C   0  0  0  0  0  0  0  0  0  0  0  0
   18.9430   -9.6263   16.6903 C   0  0  0  0  0  0  0  0  0  0  0  0
   16.1425   -9.8315   12.4818 C   0  0  0  0  0  0  0  0  0  0  0  0
   16.7829   -9.4600   11.3376 N   0  0  0  0  0  0  0  0  0  0  0  0
   16.1833   -9.4406   10.1440 C   0  0  0  0  0  0  0  0  0  0  0  0
   14.8854   -9.7980    9.9939 N   0  0  0  0  0  0  0  0  0  0  0  0
   14.1807  -10.1865   11.0957 C   0  0  0  0  0  0  0  0  0  0  0  0
   14.7938  -10.2154   12.3625 C   0  0  0  0  0  0  0  0  0  0  0  0
   12.7562  -10.5862   10.9581 C   0  0  0  0  0  0  0  0  0  0  0  0
   17.0076   -9.0608    9.1529 N   0  0  0  0  0  0  0  0  0  0  0  0
   18.1561   -8.8547    9.8482 C   0  0  0  0  0  0  0  0  0  0  0  0
   18.0402   -9.0983   11.1751 N   0  0  0  0  0  0  0  0  0  0  0  0
   19.6815   -8.3206    9.0831 S   0  0  0  0  0  0  0  0  0  0  0  0
   18.9695   -8.3605    7.4072 C   0  0  0  0  0  0  0  0  0  0  0  0
   19.3112   -7.0931    6.6415 C   0  0  0  0  0  0  0  0  0  0  0  0
   20.3060   -7.3949    5.5373 C   0  0  0  0  0  0  0  0  0  0  0  0
   16.2448   -8.2409   17.1182 N   0  0  0  0  0  0  0  0  0  0  0  0
   17.4371   -7.6256   17.6806 C   0  0  0  0  0  0  0  0  0  0  0  0
   14.9320   -7.8864   17.6086 C   0  0  0  0  0  0  0  0  0  0  0  0
   14.6525   -7.7394   18.9730 C   0  0  0  0  0  0  0  0  0  0  0  0
   13.4003   -7.4005   19.3788 C   0  0  0  0  0  0  0  0  0  0  0  0
   13.3140   -7.2839   20.7101 N   0  0  0  0  0  0  0  0  0  0  0  0
   14.5663   -7.5583   21.1524 C   0  0  0  0  0  0  0  0  0  0  0  0
   15.4384   -7.8449   20.0993 C   0  0  0  0  0  0  0  0  0  0  0  0
   12.3888   -7.1945   18.5025 N   0  0  0  0  0  0  0  0  0  0  0  0
   12.6459   -7.3335   17.1697 C   0  0  0  0  0  0  0  0  0  0  0  0
   13.8995   -7.6723   16.7370 N   0  0  0  0  0  0  0  0  0  0  0  0
   12.5214   -7.0518   21.2460 H   0  0  0  0  0  0  0  0  0  0  0  0
 24 25  1  0  0  0
 25 26  2  0  0  0
 26 27  1  0  0  0
 27 28  1  0  0  0
 28 29  2  0  0  0
 26 30  1  0  0  0
 30 31  2  0  0  0
 31 32  1  0  0  0
 24 22  1  0  0  0
  1 22  1  0  0  0
  1  2  1  0  0  0
  2  3  1  0  0  0
  3  8  1  0  0  0
  8  9  1  0  0  0
  9 10  1  0  0  0
 10 11  1  0  0  0
 11 12  2  0  0  0
 12 13  1  0  0  0
 12 14  1  0  0  0
 10 15  2  0  0  0
 15 16  1  0  0  0
 16 17  2  0  0  0
 16 18  1  0  0  0
 18 19  1  0  0  0
 19 20  1  0  0  0
 20 21  1  0  0  0
  3  4  1  0  0  0
  4  5  1  0  0  0
  5  6  1  0  0  0
  6  7  1  0  0  0
 22 23  1  0  0  0
 32 24  2  0  0  0
  6  1  1  0  0  0
 29 25  1  0  0  0
 13  8  2  0  0  0
 17  9  1  0  0  0
 27 33  1  0  0  0
M  END
>  <minimizedAffinity>
-2.28960

>  <minimizedRMSD>
3.19822

$$$$
CHEMBL4282816 PubChem-145982025


 36 39  0  0  0  0  0  0  0  0999 V2000
   17.2995   -9.0600    9.0399 C   0  0  0  0  0  0  0  0  0  0  0  0
   15.9148   -9.0024    8.8236 C   0  0  0  0  0  0  0  0  0  0  0  0
   15.0214   -9.5082    9.7696 C   0  0  0  0  0  0  0  0  0  0  0  0
   15.4946  -10.0803   10.9601 C   0  0  0  0  0  0  0  0  0  0  0  0
   16.8748  -10.1402   11.1957 C   0  0  0  0  0  0  0  0  0  0  0  0
   17.7630   -9.6324   10.2350 C   0  0  0  0  0  0  0  0  0  0  0  0
   21.1085   -6.8997    4.1926 C   0  0  0  0  0  0  0  0  0  0  0  0
   20.0490   -7.5875    3.6021 C   0  0  0  0  0  0  0  0  0  0  0  0
   19.0433   -8.1845    4.3801 C   0  0  0  0  0  0  0  0  0  0  0  0
   19.1071   -8.0853    5.7934 C   0  0  0  0  0  0  0  0  0  0  0  0
   20.1864   -7.3854    6.3852 C   0  0  0  0  0  0  0  0  0  0  0  0
   21.1713   -6.8024    5.5871 C   0  0  0  0  0  0  0  0  0  0  0  0
   20.2795   -7.2740    7.7031 O   0  0  0  0  0  0  0  0  0  0  0  0
   19.3841   -7.7969    8.5289 C   0  0  0  0  0  0  0  0  0  0  0  0
   18.2733   -8.5065    8.0530 C   0  0  0  0  0  0  0  0  0  0  0  0
   18.1407   -8.6568    6.6529 C   0  0  0  0  0  0  0  0  0  0  0  0
   17.1720   -9.3078    6.1751 O   0  0  0  0  0  0  0  0  0  0  0  0
   17.9896   -8.8689    3.7598 O   0  0  0  0  0  0  0  0  0  0  0  0
   18.0882   -9.4241    2.4550 C   0  0  0  0  0  0  0  0  0  0  0  0
   22.0825   -6.3241    3.3723 O   0  0  0  0  0  0  0  0  0  0  0  0
   22.0825   -4.9443    3.0322 C   0  0  0  0  0  0  0  0  0  0  0  0
   14.6140  -10.5911   11.9200 O   0  0  0  0  0  0  0  0  0  0  0  0
   13.2216  -10.7458   11.6818 C   0  0  0  0  0  0  0  0  0  0  0  0
   17.3422  -10.7068   12.3889 O   0  0  0  0  0  0  0  0  0  0  0  0
   18.2075  -10.0280   13.2962 C   0  0  0  0  0  0  0  0  0  0  0  0
   17.4345   -9.4746   14.4461 C   0  0  0  0  0  0  0  0  0  0  0  0
   17.5792  -10.0261   15.7231 C   0  0  0  0  0  0  0  0  0  0  0  0
   16.8435   -9.5119   16.7948 C   0  0  0  0  0  0  0  0  0  0  0  0
   15.9570   -8.4430   16.5986 C   0  0  0  0  0  0  0  0  0  0  0  0
   15.8179   -7.8942   15.3151 C   0  0  0  0  0  0  0  0  0  0  0  0
   16.5537   -8.4078   14.2437 C   0  0  0  0  0  0  0  0  0  0  0  0
   15.1806   -7.9025   17.7281 C   0  0  0  0  0  0  0  0  0  0  0  0
   14.0573   -7.3675   17.5301 O   0  0  0  0  0  0  0  0  0  0  0  0
   15.6904   -7.9786   19.0565 N   0  0  0  0  0  0  0  0  0  0  0  0
   16.5669   -8.3943   19.2243 H   0  0  0  0  0  0  0  0  0  0  0  0
   15.1661   -7.6155   19.8065 H   0  0  0  0  0  0  0  0  0  0  0  0
  7  8  2  0  0  0
  8  9  1  0  0  0
  9 10  2  0  0  0
 10 11  1  0  0  0
 11 12  2  0  0  0
 11 13  1  0  0  0
 13 14  1  0  0  0
 14 15  2  0  0  0
 15 16  1  0  0  0
 16 17  2  0  0  0
 15  1  1  0  0  0
  1  2  2  0  0  0
  2  3  1  0  0  0
  3  4  2  0  0  0
  4  5  1  0  0  0
  5  6  2  0  0  0
  5 24  1  0  0  0
 24 25  1  0  0  0
 25 26  1  0  0  0
 26 27  2  0  0  0
 27 28  1  0  0  0
 28 29  2  0  0  0
 29 30  1  0  0  0
 30 31  2  0  0  0
 29 32  1  0  0  0
 32 33  2  0  0  0
 32 34  1  0  0  0
  4 22  1  0  0  0
 22 23  1  0  0  0
  9 18  1  0  0  0
 18 19  1  0  0  0
  7 20  1  0  0  0
 20 21  1  0  0  0
 12  7  1  0  0  0
  6  1  1  0  0  0
 31 26  1  0  0  0
 16 10  1  0  0  0
 34 35  1  0  0  0
 34 36  1  0  0  0
M  END
>  <minimizedAffinity>
-5.13529

>  <minimizedRMSD>
3.20504

$$$$
CHEMBL5282995 PubChem-155814866


 36 39  0  0  0  0  0  0  0  0999 V2000
   16.1261   -9.3039   13.7441 C   0  0  0  0  0  0  0  0  0  0  0  0
   15.2956  -10.2173   14.0033 O   0  0  0  0  0  0  0  0  0  0  0  0
   16.5019   -8.3476   14.7430 N   0  0  0  0  0  0  0  0  0  0  0  0
   17.1744   -7.6780   14.4812 H   0  0  0  0  0  0  0  0  0  0  0  0
   16.0011   -8.2639   16.0843 C   0  0  0  0  0  0  0  0  0  0  0  0
   14.7882   -7.6262   16.3867 C   0  0  0  0  0  0  0  0  0  0  0  0
   14.3341   -7.5605   17.7066 C   0  0  0  0  0  0  0  0  0  0  0  0
   15.0887   -8.1322   18.7360 C   0  0  0  0  0  0  0  0  0  0  0  0
   16.2984   -8.7678   18.4400 C   0  0  0  0  0  0  0  0  0  0  0  0
   16.7513   -8.8328   17.1193 C   0  0  0  0  0  0  0  0  0  0  0  0
   14.5339   -8.0412   20.3978 S   0  0  0  0  0  0  0  0  0  0  0  0
   13.0651   -8.3518   20.4773 O   0  0  0  0  0  0  0  0  0  0  0  0
   15.2903   -9.0421   21.2243 O   0  0  0  0  0  0  0  0  0  0  0  0
   14.8141   -6.4506   21.0228 N   0  0  0  0  0  0  0  0  0  0  0  0
   15.6665   -6.2661   21.4794 H   0  0  0  0  0  0  0  0  0  0  0  0
   13.8589   -5.3954   20.9028 C   0  0  0  0  0  0  0  0  0  0  0  0
   13.8937   -4.3577   21.7798 N   0  0  0  0  0  0  0  0  0  0  0  0
   13.0013   -3.3370   21.6902 C   0  0  0  0  0  0  0  0  0  0  0  0
   12.0321   -3.3441   20.6883 C   0  0  0  0  0  0  0  0  0  0  0  0
   12.0099   -4.4157   19.7975 C   0  0  0  0  0  0  0  0  0  0  0  0
   12.9184   -5.4181   19.9190 N   0  0  0  0  0  0  0  0  0  0  0  0
   16.7558   -9.2023   12.3876 C   0  0  0  0  0  0  0  0  0  0  0  0
   16.4046  -10.3665   11.4658 C   0  0  0  0  0  0  0  0  0  0  0  0
   17.8588   -8.3662    5.9416 C   0  0  0  0  0  0  0  0  0  0  0  0
   18.1978   -8.5430    7.3482 N   0  0  0  0  0  0  0  0  0  0  0  0
   17.3334   -9.1649    8.1899 C   0  0  0  0  0  0  0  0  0  0  0  0
   17.6098   -9.3466    9.4993 C   0  0  0  0  0  0  0  0  0  0  0  0
   18.8108   -8.8965   10.0346 C   0  0  0  0  0  0  0  0  0  0  0  0
   19.0800   -9.0660   11.2555 O   0  0  0  0  0  0  0  0  0  0  0  0
   19.6931   -8.2657    9.1932 N   0  0  0  0  0  0  0  0  0  0  0  0
   19.3911   -8.0884    7.8574 C   0  0  0  0  0  0  0  0  0  0  0  0
   20.2151   -7.5054    7.0975 O   0  0  0  0  0  0  0  0  0  0  0  0
   20.9647   -7.7781    9.7186 C   0  0  0  0  0  0  0  0  0  0  0  0
   16.5766   -9.9831   10.0706 N   0  0  0  0  0  0  0  0  0  0  0  0
   15.6827  -10.1688    9.0683 C   0  0  0  0  0  0  0  0  0  0  0  0
   16.1239   -9.6721    7.8803 N   0  0  0  0  0  0  0  0  0  0  0  0
 24 25  1  0  0  0
 25 26  1  0  0  0
 26 27  2  0  0  0
 27 28  1  0  0  0
 28 29  2  0  0  0
 28 30  1  0  0  0
 30 31  1  0  0  0
 31 32  2  0  0  0
 30 33  1  0  0  0
 27 34  1  0  0  0
 34 35  1  0  0  0
 35 36  2  0  0  0
 34 23  1  0  0  0
 23 22  1  0  0  0
 22  1  1  0  0  0
  1  2  2  0  0  0
  1  3  1  0  0  0
  3  5  1  0  0  0
  5  6  2  0  0  0
  6  7  1  0  0  0
  7  8  2  0  0  0
  8  9  1  0  0  0
  9 10  2  0  0  0
  8 11  1  0  0  0
 11 12  2  0  0  0
 11 13  2  0  0  0
 11 14  1  0  0  0
 14 16  1  0  0  0
 16 17  2  0  0  0
 17 18  1  0  0  0
 18 19  2  0  0  0
 19 20  1  0  0  0
 20 21  2  0  0  0
 31 25  1  0  0  0
 36 26  1  0  0  0
 10  5  1  0  0  0
 21 16  1  0  0  0
  3  4  1  0  0  0
 14 15  1  0  0  0
M  END
>  <minimizedAffinity>
-0.66961

>  <minimizedRMSD>
3.20892

$$$$
CHEMBL5177608


 34 38  0  0  0  0  0  0  0  0999 V2000
   16.3549   -9.2456   13.9125 N   0  0  0  0  0  0  0  0  0  0  0  0
   17.5897  -10.0276   13.7957 C   0  0  0  0  0  0  0  0  0  0  0  0
   17.7544  -10.9592   14.9864 C   0  0  0  0  0  0  0  0  0  0  0  0
   17.7836  -10.1177   16.2519 C   0  0  0  0  0  0  0  0  0  0  0  0
   16.4431   -9.4139   16.4643 C   0  0  0  0  0  0  0  0  0  0  0  0
   15.9506   -8.7490   15.2036 C   0  0  0  0  0  0  0  0  0  0  0  0
   15.0909   -7.8288   15.2840 O   0  0  0  0  0  0  0  0  0  0  0  0
   17.1552   -9.1212   10.8131 N   0  0  0  0  0  0  0  0  0  0  0  0
   16.9098  -10.5595   10.9233 C   0  0  0  0  0  0  0  0  0  0  0  0
   15.4126  -10.8178   11.0045 C   0  0  0  0  0  0  0  0  0  0  0  0
   14.7801  -10.1195   12.2129 C   0  0  0  0  0  0  0  0  0  0  0  0
   15.5581   -8.8959   12.7274 C   0  0  0  0  0  0  0  0  0  0  0  0
   16.3714   -8.1841   11.6305 C   0  0  0  0  0  0  0  0  0  0  0  0
   18.0207   -8.3956    8.5813 C   0  0  0  0  0  0  0  0  0  0  0  0
   18.2093   -8.6603    9.9438 C   0  0  0  0  0  0  0  0  0  0  0  0
   19.4712   -8.4665   10.4399 N   0  0  0  0  0  0  0  0  0  0  0  0
   20.5043   -8.0359    9.6486 C   0  0  0  0  0  0  0  0  0  0  0  0
   20.3022   -7.7812    8.3221 N   0  0  0  0  0  0  0  0  0  0  0  0
   19.0590   -7.9663    7.8201 C   0  0  0  0  0  0  0  0  0  0  0  0
   18.6777   -7.7815    6.5503 N   0  0  0  0  0  0  0  0  0  0  0  0
   17.3856   -8.0919    6.4964 N   0  0  0  0  0  0  0  0  0  0  0  0
   16.9439   -8.4743    7.7224 C   0  0  0  0  0  0  0  0  0  0  0  0
   19.2423   -7.4761    5.8038 H   0  0  0  0  0  0  0  0  0  0  0  0
   16.5695   -8.4366   17.5392 N   0  0  0  0  0  0  0  0  0  0  0  0
   17.4580   -8.0520   17.7178 H   0  0  0  0  0  0  0  0  0  0  0  0
   15.4704   -8.0076   18.3476 C   0  0  0  0  0  0  0  0  0  0  0  0
   14.2552   -7.6095   17.7721 C   0  0  0  0  0  0  0  0  0  0  0  0
   13.1963   -7.1866   18.5801 C   0  0  0  0  0  0  0  0  0  0  0  0
   13.3471   -7.1577   19.9731 C   0  0  0  0  0  0  0  0  0  0  0  0
   14.5625   -7.5520   20.5502 C   0  0  0  0  0  0  0  0  0  0  0  0
   15.6185   -7.9731   19.7370 C   0  0  0  0  0  0  0  0  0  0  0  0
   14.7770   -7.5233   22.2902 Cl  0  0  0  0  0  0  0  0  0  0  0  0
   12.3191   -6.7511   20.7616 F   0  0  0  0  0  0  0  0  0  0  0  0
   11.6904   -6.6913   17.8316 Cl  0  0  0  0  0  0  0  0  0  0  0  0
 14 15  1  0  0  0
 15 16  2  0  0  0
 16 17  1  0  0  0
 17 18  2  0  0  0
 18 19  1  0  0  0
 19 20  1  0  0  0
 20 21  1  0  0  0
 21 22  2  0  0  0
 15  8  1  0  0  0
  8  9  1  0  0  0
  9 10  1  0  0  0
 10 11  1  0  0  0
 11 12  1  0  0  0
 12 13  1  0  0  0
 12  1  1  0  0  0
  1  2  1  0  0  0
  2  3  1  0  0  0
  3  4  1  0  0  0
  4  5  1  0  0  0
  5  6  1  0  0  0
  6  7  2  0  0  0
  5 24  1  0  0  0
 24 26  1  0  0  0
 26 27  2  0  0  0
 27 28  1  0  0  0
 28 29  2  0  0  0
 29 30  1  0  0  0
 30 31  2  0  0  0
 30 32  1  0  0  0
 29 33  1  0  0  0
 28 34  1  0  0  0
 19 14  2  0  0  0
 13  8  1  0  0  0
  6  1  1  0  0  0
 31 26  1  0  0  0
 22 14  1  0  0  0
 20 23  1  0  0  0
 24 25  1  0  0  0
M  END
>  <minimizedAffinity>
-3.34522

>  <minimizedRMSD>
3.21119

$$$$
CHEMBL3357591 PubChem-118722317


 31 34  0  0  0  0  0  0  0  0999 V2000
   18.0078  -10.3506   14.1157 N   0  0  0  0  0  0  0  0  0  0  0  0
   16.7165  -10.5330   14.7547 C   0  0  0  0  0  0  0  0  0  0  0  0
   16.9960  -10.6454   16.2443 C   0  0  0  0  0  0  0  0  0  0  0  0
   18.5107  -10.6984   16.4038 C   0  0  0  0  0  0  0  0  0  0  0  0
   19.1134  -10.3656   15.0509 C   0  0  0  0  0  0  0  0  0  0  0  0
   18.1939  -10.3363   12.6956 C   0  0  0  0  0  0  0  0  0  0  0  0
   19.3544  -10.2173   12.2146 O   0  0  0  0  0  0  0  0  0  0  0  0
   15.7554   -9.3748   14.4540 C   0  0  0  0  0  0  0  0  0  0  0  0
   15.7553   -8.3061   15.5026 C   0  0  0  0  0  0  0  0  0  0  0  0
   16.5740   -7.3528   15.4138 O   0  0  0  0  0  0  0  0  0  0  0  0
   14.8281   -8.3657   16.5859 N   0  0  0  0  0  0  0  0  0  0  0  0
   14.1826   -9.1083   16.6193 H   0  0  0  0  0  0  0  0  0  0  0  0
   14.8047   -7.3650   17.6436 C   0  0  0  0  0  0  0  0  0  0  0  0
   13.3968   -7.2006   18.2056 C   0  0  0  0  0  0  0  0  0  0  0  0
   13.0652   -8.2895   19.0536 O   0  0  0  0  0  0  0  0  0  0  0  0
   12.7899   -7.8928   20.3350 N   0  0  0  0  0  0  0  0  0  0  0  0
   12.9131   -6.6160   20.4191 C   0  0  0  0  0  0  0  0  0  0  0  0
   13.3087   -5.9834   19.1301 C   0  0  0  0  0  0  0  0  0  0  0  0
   12.6225   -5.6574   22.0396 Br  0  0  0  0  0  0  0  0  0  0  0  0
   17.0865  -10.4478   11.8490 O   0  0  0  0  0  0  0  0  0  0  0  0
   16.5028   -9.3249   11.1985 C   0  0  0  0  0  0  0  0  0  0  0  0
   17.3802   -8.8528   10.0896 C   0  0  0  0  0  0  0  0  0  0  0  0
   18.4643   -8.0102   10.3569 C   0  0  0  0  0  0  0  0  0  0  0  0
   19.2534   -7.5649    9.3416 N   0  0  0  0  0  0  0  0  0  0  0  0
   19.0146   -7.9176    8.0502 C   0  0  0  0  0  0  0  0  0  0  0  0
   17.9269   -8.7634    7.7405 C   0  0  0  0  0  0  0  0  0  0  0  0
   17.1101   -9.2274    8.7714 C   0  0  0  0  0  0  0  0  0  0  0  0
   17.6775   -9.1257    6.4144 C   0  0  0  0  0  0  0  0  0  0  0  0
   18.5083   -8.6492    5.3950 C   0  0  0  0  0  0  0  0  0  0  0  0
   19.5869   -7.8113    5.7001 C   0  0  0  0  0  0  0  0  0  0  0  0
   19.8405   -7.4453    7.0263 C   0  0  0  0  0  0  0  0  0  0  0  0
  1  2  1  0  0  0
  2  3  1  0  0  0
  3  4  1  0  0  0
  4  5  1  0  0  0
  2  8  1  0  0  0
  8  9  1  0  0  0
  9 10  2  0  0  0
  9 11  1  0  0  0
 11 13  1  0  0  0
 14 13  1  0  0  0
 14 15  1  0  0  0
 15 16  1  0  0  0
 16 17  2  0  0  0
 17 18  1  0  0  0
 17 19  1  0  0  0
  1  6  1  0  0  0
  6  7  2  0  0  0
  6 20  1  0  0  0
 20 21  1  0  0  0
 21 22  1  0  0  0
 22 23  2  0  0  0
 23 24  1  0  0  0
 24 25  2  0  0  0
 25 26  1  0  0  0
 26 27  2  0  0  0
 26 28  1  0  0  0
 28 29  2  0  0  0
 29 30  1  0  0  0
 30 31  2  0  0  0
  5  1  1  0  0  0
 18 14  1  0  0  0
 27 22  1  0  0  0
 31 25  1  0  0  0
 11 12  1  0  0  0
M  END
>  <minimizedAffinity>
-6.23817

>  <minimizedRMSD>
3.21137

$$$$
CHEMBL2037398 PubChem-60166750


 32 35  0  0  0  0  0  0  0  0999 V2000
   16.0217   -9.3134   16.7757 C   0  0  0  0  0  0  0  0  0  0  0  0
   15.4535   -8.5453   19.1111 N   0  0  0  0  0  0  0  0  0  0  0  0
   15.4000   -8.3219   17.6962 C   0  0  0  0  0  0  0  0  0  0  0  0
   14.8518   -7.2944   17.2164 O   0  0  0  0  0  0  0  0  0  0  0  0
   15.8886   -9.3761   19.4107 H   0  0  0  0  0  0  0  0  0  0  0  0
   13.9994   -5.9721   22.1622 C   0  0  0  0  0  0  0  0  0  0  0  0
   13.0973   -6.6416   21.3295 C   0  0  0  0  0  0  0  0  0  0  0  0
   13.5621   -7.4916   20.3222 C   0  0  0  0  0  0  0  0  0  0  0  0
   14.9388   -7.6836   20.1351 C   0  0  0  0  0  0  0  0  0  0  0  0
   15.8410   -7.0137   20.9673 C   0  0  0  0  0  0  0  0  0  0  0  0
   15.3762   -6.1637   21.9747 C   0  0  0  0  0  0  0  0  0  0  0  0
   13.0401   -4.2643   25.5162 C   0  0  0  0  0  0  0  0  0  0  0  0
   13.6480   -5.2639   24.6003 C   0  0  0  0  0  0  0  0  0  0  0  0
   14.2962   -6.2294   25.0831 O   0  0  0  0  0  0  0  0  0  0  0  0
   13.4846   -5.1086   23.1850 N   0  0  0  0  0  0  0  0  0  0  0  0
   12.9652   -4.3284   22.8838 H   0  0  0  0  0  0  0  0  0  0  0  0
   17.5695   -8.6522   16.0850 S   0  0  0  0  0  0  0  0  0  0  0  0
   17.0653   -8.9618   14.3974 C   0  0  0  0  0  0  0  0  0  0  0  0
   15.9236   -8.5000   13.8547 N   0  0  0  0  0  0  0  0  0  0  0  0
   15.9093   -8.9325   12.6035 N   0  0  0  0  0  0  0  0  0  0  0  0
   17.0416   -9.6412   12.4389 C   0  0  0  0  0  0  0  0  0  0  0  0
   17.7606   -9.6607   13.5343 O   0  0  0  0  0  0  0  0  0  0  0  0
   17.4422  -10.2883   11.1581 C   0  0  0  0  0  0  0  0  0  0  0  0
   18.2807   -9.3846   10.3852 N   0  0  0  0  0  0  0  0  0  0  0  0
   19.4306   -8.7970   10.7950 C   0  0  0  0  0  0  0  0  0  0  0  0
   19.9472   -7.9608    9.8536 N   0  0  0  0  0  0  0  0  0  0  0  0
   19.0657   -8.0438    8.8396 C   0  0  0  0  0  0  0  0  0  0  0  0
   19.1068   -7.3745    7.6191 C   0  0  0  0  0  0  0  0  0  0  0  0
   18.0556   -7.6148    6.7136 C   0  0  0  0  0  0  0  0  0  0  0  0
   17.0068   -8.5019    7.0476 C   0  0  0  0  0  0  0  0  0  0  0  0
   16.9957   -9.1613    8.2909 C   0  0  0  0  0  0  0  0  0  0  0  0
   18.0553   -8.8992    9.1583 C   0  0  0  0  0  0  0  0  0  0  0  0
 12 13  1  0  0  0
 13 14  2  0  0  0
 13 15  1  0  0  0
 15  6  1  0  0  0
  6  7  2  0  0  0
  7  8  1  0  0  0
  8  9  2  0  0  0
  9  2  1  0  0  0
  9 10  1  0  0  0
  2  3  1  0  0  0
  3  4  2  0  0  0
  3  1  1  0  0  0
  1 17  1  0  0  0
 17 18  1  0  0  0
 18 19  2  0  0  0
 19 20  1  0  0  0
 20 21  2  0  0  0
 21 23  1  0  0  0
 21 22  1  0  0  0
 23 24  1  0  0  0
 24 25  1  0  0  0
 25 26  2  0  0  0
 26 27  1  0  0  0
 27 28  2  0  0  0
 28 29  1  0  0  0
 29 30  2  0  0  0
 30 31  1  0  0  0
 31 32  2  0  0  0
 32 24  1  0  0  0
 32 27  1  0  0  0
 22 18  1  0  0  0
 10 11  2  0  0  0
 11  6  1  0  0  0
 15 16  1  0  0  0
  2  5  1  0  0  0
M  END
>  <minimizedAffinity>
-7.04180

>  <minimizedRMSD>
3.21853

$$$$
CHEMBL3621290 PubChem-78324164


 34 36  0  0  0  0  0  0  0  0999 V2000
   16.8845   -8.7379   10.8488 C   0  0  0  0  0  0  0  0  0  0  0  0
   17.8810   -8.3412    9.8660 N   0  0  0  0  0  0  0  0  0  0  0  0
   19.0841   -7.7616   10.1056 C   0  0  0  0  0  0  0  0  0  0  0  0
   19.8055   -7.5697    8.9642 N   0  0  0  0  0  0  0  0  0  0  0  0
   19.0008   -8.0638    8.0039 C   0  0  0  0  0  0  0  0  0  0  0  0
   17.8536   -8.5282    8.5437 C   0  0  0  0  0  0  0  0  0  0  0  0
   16.8705   -9.0959    7.8044 N   0  0  0  0  0  0  0  0  0  0  0  0
   17.0642   -9.1897    6.4541 C   0  0  0  0  0  0  0  0  0  0  0  0
   18.2210   -8.7228    5.8818 N   0  0  0  0  0  0  0  0  0  0  0  0
   19.2116   -8.1532    6.6348 C   0  0  0  0  0  0  0  0  0  0  0  0
   20.4281   -7.6653    6.0515 N   0  0  0  0  0  0  0  0  0  0  0  0
   21.2448   -7.7687    6.5915 H   0  0  0  0  0  0  0  0  0  0  0  0
   20.5864   -7.0436    4.7687 C   0  0  0  0  0  0  0  0  0  0  0  0
   19.7454   -7.3435    3.6859 C   0  0  0  0  0  0  0  0  0  0  0  0
   19.9316   -6.7161    2.4506 C   0  0  0  0  0  0  0  0  0  0  0  0
   20.9600   -5.7842    2.2891 C   0  0  0  0  0  0  0  0  0  0  0  0
   21.8012   -5.4803    3.3627 C   0  0  0  0  0  0  0  0  0  0  0  0
   21.6137   -6.1088    4.5976 C   0  0  0  0  0  0  0  0  0  0  0  0
   17.2247  -10.0742   11.4121 C   0  0  0  0  0  0  0  0  0  0  0  0
   16.6468  -11.1024   10.9694 O   0  0  0  0  0  0  0  0  0  0  0  0
   18.2388  -10.1812   12.4128 N   0  0  0  0  0  0  0  0  0  0  0  0
   18.7148   -9.3658   12.6916 H   0  0  0  0  0  0  0  0  0  0  0  0
   18.5971  -11.4469   13.0373 C   0  0  0  0  0  0  0  0  0  0  0  0
   18.1121  -11.4868   14.4808 C   0  0  0  0  0  0  0  0  0  0  0  0
   17.8210  -10.0933   15.0136 C   0  0  0  0  0  0  0  0  0  0  0  0
   16.3344   -9.7908   14.9242 C   0  0  0  0  0  0  0  0  0  0  0  0
   15.9942   -8.5149   15.6784 C   0  0  0  0  0  0  0  0  0  0  0  0
   16.2168   -8.6901   17.1769 C   0  0  0  0  0  0  0  0  0  0  0  0
   15.2786   -7.8719   18.0119 C   0  0  0  0  0  0  0  0  0  0  0  0
   14.2604   -7.3261   17.5052 O   0  0  0  0  0  0  0  0  0  0  0  0
   15.5444   -7.7252   19.4044 N   0  0  0  0  0  0  0  0  0  0  0  0
   14.7213   -6.9989   20.1961 O   0  0  0  0  0  0  0  0  0  0  0  0
   16.3374   -8.1580   19.7957 H   0  0  0  0  0  0  0  0  0  0  0  0
   13.9932   -6.6415   19.6641 H   0  0  0  0  0  0  0  0  0  0  0  0
 19 20  2  0  0  0
 19  1  1  0  0  0
  1  2  1  0  0  0
  2  3  1  0  0  0
  3  4  2  0  0  0
  4  5  1  0  0  0
  5  6  2  0  0  0
  6  7  1  0  0  0
  7  8  2  0  0  0
  8  9  1  0  0  0
  9 10  2  0  0  0
 10 11  1  0  0  0
 11 13  1  0  0  0
 13 14  2  0  0  0
 14 15  1  0  0  0
 15 16  2  0  0  0
 16 17  1  0  0  0
 17 18  2  0  0  0
 19 21  1  0  0  0
 21 23  1  0  0  0
 23 24  1  0  0  0
 24 25  1  0  0  0
 25 26  1  0  0  0
 26 27  1  0  0  0
 27 28  1  0  0  0
 28 29  1  0  0  0
 29 30  2  0  0  0
 29 31  1  0  0  0
 31 32  1  0  0  0
  6  2  1  0  0  0
 18 13  1  0  0  0
 10  5  1  0  0  0
 11 12  1  0  0  0
 21 22  1  0  0  0
 31 33  1  0  0  0
 32 34  1  0  0  0
M  END
>  <minimizedAffinity>
-5.14465

>  <minimizedRMSD>
3.22165

$$$$
CHEMBL5093932 PubChem-156898941


 37 41  0  0  0  0  0  0  0  0999 V2000
   17.5450   -9.3861   14.3886 C   0  0  0  0  0  0  0  0  0  0  0  0
   18.4740   -9.5935   13.2737 N   0  0  0  0  0  0  0  0  0  0  0  0
   18.1082   -9.6577   12.0303 C   0  0  0  0  0  0  0  0  0  0  0  0
   16.7250   -9.5811   11.6924 N   0  0  0  0  0  0  0  0  0  0  0  0
   15.7192   -9.5001   12.7033 C   0  0  0  0  0  0  0  0  0  0  0  0
   16.0728   -9.4400   14.0038 C   0  0  0  0  0  0  0  0  0  0  0  0
   14.2941   -9.4532   12.2594 C   0  0  0  0  0  0  0  0  0  0  0  0
   16.4583   -9.5841   10.7447 H   0  0  0  0  0  0  0  0  0  0  0  0
   18.1308  -12.4562   13.7864 Cl  0  0  0  0  0  0  0  0  0  0  0  0
   18.1584  -11.6791   15.3623 C   0  0  0  0  0  0  0  0  0  0  0  0
   17.8908  -10.3014   15.5319 C   0  0  0  0  0  0  0  0  0  0  0  0
   17.9326   -9.7485   16.8173 C   0  0  0  0  0  0  0  0  0  0  0  0
   18.2319  -10.5460   17.9241 C   0  0  0  0  0  0  0  0  0  0  0  0
   18.4931  -11.9065   17.7539 C   0  0  0  0  0  0  0  0  0  0  0  0
   18.4562  -12.4698   16.4766 C   0  0  0  0  0  0  0  0  0  0  0  0
   15.0699   -9.3621   15.0902 C   0  0  0  0  0  0  0  0  0  0  0  0
   14.3383  -10.3598   15.3343 O   0  0  0  0  0  0  0  0  0  0  0  0
   14.8650   -8.1361   15.7984 N   0  0  0  0  0  0  0  0  0  0  0  0
   15.5470   -7.4294   15.7296 H   0  0  0  0  0  0  0  0  0  0  0  0
   13.6856   -7.8945   16.6172 C   0  0  0  0  0  0  0  0  0  0  0  0
   14.0790   -7.7858   18.0521 C   0  0  0  0  0  0  0  0  0  0  0  0
   13.1200   -7.6885   19.0129 N   0  0  0  0  0  0  0  0  0  0  0  0
   13.4393   -7.5428   20.3272 C   0  0  0  0  0  0  0  0  0  0  0  0
   14.7783   -7.4822   20.7197 C   0  0  0  0  0  0  0  0  0  0  0  0
   15.7775   -7.5709   19.7490 C   0  0  0  0  0  0  0  0  0  0  0  0
   15.4302   -7.7205   18.4052 C   0  0  0  0  0  0  0  0  0  0  0  0
   19.0732   -9.8412   10.9892 N   0  0  0  0  0  0  0  0  0  0  0  0
   19.8732  -10.3754   11.1987 H   0  0  0  0  0  0  0  0  0  0  0  0
   18.9621   -9.3062    9.6667 C   0  0  0  0  0  0  0  0  0  0  0  0
   19.7266   -8.3317    9.1996 O   0  0  0  0  0  0  0  0  0  0  0  0
   19.3257   -8.1327    7.9743 C   0  0  0  0  0  0  0  0  0  0  0  0
   18.3080   -8.9972    7.7002 C   0  0  0  0  0  0  0  0  0  0  0  0
   18.0504   -9.7669    8.7710 N   0  0  0  0  0  0  0  0  0  0  0  0
   17.6738   -9.0202    6.4607 C   0  0  0  0  0  0  0  0  0  0  0  0
   18.1252   -8.1084    5.4874 C   0  0  0  0  0  0  0  0  0  0  0  0
   19.1810   -7.2130    5.7747 C   0  0  0  0  0  0  0  0  0  0  0  0
   19.7996   -7.2172    7.0392 C   0  0  0  0  0  0  0  0  0  0  0  0
  9 10  1  0  0  0
 10 11  2  0  0  0
 11  1  1  0  0  0
  1  2  1  0  0  0
  2  3  2  0  0  0
  3  4  1  0  0  0
  4  5  1  0  0  0
  5  6  2  0  0  0
  6 16  1  0  0  0
 16 17  2  0  0  0
 16 18  1  0  0  0
 18 20  1  0  0  0
 20 21  1  0  0  0
 21 22  2  0  0  0
 22 23  1  0  0  0
 23 24  2  0  0  0
 24 25  1  0  0  0
 25 26  2  0  0  0
  5  7  1  0  0  0
  3 27  1  0  0  0
 27 29  1  0  0  0
 29 30  1  0  0  0
 30 31  1  0  0  0
 31 32  2  0  0  0
 32 33  1  0  0  0
 32 34  1  0  0  0
 34 35  2  0  0  0
 35 36  1  0  0  0
 36 37  2  0  0  0
 11 12  1  0  0  0
 12 13  2  0  0  0
 13 14  1  0  0  0
 14 15  2  0  0  0
 15 10  1  0  0  0
  6  1  1  0  0  0
 26 21  1  0  0  0
 33 29  2  0  0  0
 37 31  1  0  0  0
  4  8  1  0  0  0
 18 19  1  0  0  0
 27 28  1  0  0  0
M  END
>  <minimizedAffinity>
1.15213

>  <minimizedRMSD>
3.23935

$$$$
CHEMBL1346358 4130189 MCULE-2409713388 MolPort-000-009-890 PubChem-3167046 ZINC000004130189 ZINC04130189


 28 31  0  0  0  0  0  0  0  0999 V2000
   16.0270   -8.5278   15.8362 C   0  0  0  0  0  0  0  0  0  0  0  0
   16.2199   -7.4575   15.0433 N   0  0  0  0  0  0  0  0  0  0  0  0
   16.1771   -7.9085   13.7992 N   0  0  0  0  0  0  0  0  0  0  0  0
   15.9575   -9.2334   13.8881 C   0  0  0  0  0  0  0  0  0  0  0  0
   15.8687   -9.6239   15.1358 O   0  0  0  0  0  0  0  0  0  0  0  0
   15.9971   -8.4584   17.6230 S   0  0  0  0  0  0  0  0  0  0  0  0
   14.2377   -7.9984   17.6776 C   0  0  0  0  0  0  0  0  0  0  0  0
   14.4162   -7.5283   20.1502 N   0  0  0  0  0  0  0  0  0  0  0  0
   13.9673   -7.1224   18.8507 C   0  0  0  0  0  0  0  0  0  0  0  0
   13.3622   -6.0312   18.6790 O   0  0  0  0  0  0  0  0  0  0  0  0
   14.8665   -8.4019   20.2088 H   0  0  0  0  0  0  0  0  0  0  0  0
   16.7898   -5.1653   24.0815 Cl  0  0  0  0  0  0  0  0  0  0  0  0
   15.3372   -5.6665   23.2442 C   0  0  0  0  0  0  0  0  0  0  0  0
   14.0825   -5.3455   23.7688 C   0  0  0  0  0  0  0  0  0  0  0  0
   12.9232   -5.7457   23.0994 C   0  0  0  0  0  0  0  0  0  0  0  0
   13.0199   -6.4668   21.9058 C   0  0  0  0  0  0  0  0  0  0  0  0
   14.2770   -6.7933   21.3734 C   0  0  0  0  0  0  0  0  0  0  0  0
   15.4326   -6.3878   22.0503 C   0  0  0  0  0  0  0  0  0  0  0  0
   15.8667  -10.1443   12.7133 C   0  0  0  0  0  0  0  0  0  0  0  0
   16.9864   -9.9072   11.8157 N   0  0  0  0  0  0  0  0  0  0  0  0
   18.2513   -9.7705   12.2001 N   0  0  0  0  0  0  0  0  0  0  0  0
   19.0384   -9.5026   11.1579 N   0  0  0  0  0  0  0  0  0  0  0  0
   18.2241   -9.4642   10.0866 C   0  0  0  0  0  0  0  0  0  0  0  0
   18.5436   -9.2082    8.7571 C   0  0  0  0  0  0  0  0  0  0  0  0
   17.4804   -9.2138    7.8318 C   0  0  0  0  0  0  0  0  0  0  0  0
   16.1537   -9.4676    8.2565 C   0  0  0  0  0  0  0  0  0  0  0  0
   15.8693   -9.7212    9.6127 C   0  0  0  0  0  0  0  0  0  0  0  0
   16.9492   -9.7103   10.4919 C   0  0  0  0  0  0  0  0  0  0  0  0
 12 13  1  0  0  0
 13 14  2  0  0  0
 14 15  1  0  0  0
 15 16  2  0  0  0
 16 17  1  0  0  0
 17  8  1  0  0  0
 17 18  2  0  0  0
  8  9  1  0  0  0
  9 10  2  0  0  0
  9  7  1  0  0  0
  7  6  1  0  0  0
  6  1  1  0  0  0
  1  2  2  0  0  0
  2  3  1  0  0  0
  3  4  2  0  0  0
  4 19  1  0  0  0
  4  5  1  0  0  0
 19 20  1  0  0  0
 20 21  1  0  0  0
 21 22  2  0  0  0
 22 23  1  0  0  0
 23 24  2  0  0  0
 24 25  1  0  0  0
 25 26  2  0  0  0
 26 27  1  0  0  0
 27 28  2  0  0  0
 28 20  1  0  0  0
 28 23  1  0  0  0
  5  1  1  0  0  0
 18 13  1  0  0  0
  8 11  1  0  0  0
M  END
>  <minimizedAffinity>
-5.84691

>  <minimizedRMSD>
3.23989

$$$$
CHEMBL5083199 PubChem-156898965


 37 41  0  0  0  0  0  0  0  0999 V2000
   17.5547   -9.3881   14.3544 C   0  0  0  0  0  0  0  0  0  0  0  0
   18.4819   -9.5975   13.2384 N   0  0  0  0  0  0  0  0  0  0  0  0
   18.1140   -9.6641   11.9957 C   0  0  0  0  0  0  0  0  0  0  0  0
   16.7300   -9.5891   11.6600 N   0  0  0  0  0  0  0  0  0  0  0  0
   15.7260   -9.5081   12.6727 C   0  0  0  0  0  0  0  0  0  0  0  0
   16.0820   -9.4453   13.9725 C   0  0  0  0  0  0  0  0  0  0  0  0
   14.2999   -9.4646   12.2316 C   0  0  0  0  0  0  0  0  0  0  0  0
   16.4617   -9.5932   10.7128 H   0  0  0  0  0  0  0  0  0  0  0  0
   18.1264  -12.4628   13.7621 Cl  0  0  0  0  0  0  0  0  0  0  0  0
   18.1645  -11.6793   15.3347 C   0  0  0  0  0  0  0  0  0  0  0  0
   17.9035  -10.2998   15.4998 C   0  0  0  0  0  0  0  0  0  0  0  0
   17.9528   -9.7420   16.7827 C   0  0  0  0  0  0  0  0  0  0  0  0
   18.2536  -10.5362   17.8915 C   0  0  0  0  0  0  0  0  0  0  0  0
   18.5083  -11.8985   17.7257 C   0  0  0  0  0  0  0  0  0  0  0  0
   18.4637  -12.4667   16.4509 C   0  0  0  0  0  0  0  0  0  0  0  0
   15.0810   -9.3687   15.0605 C   0  0  0  0  0  0  0  0  0  0  0  0
   14.3399  -10.3617   15.2950 O   0  0  0  0  0  0  0  0  0  0  0  0
   14.8883   -8.1479   15.7808 N   0  0  0  0  0  0  0  0  0  0  0  0
   15.5814   -7.4509   15.7263 H   0  0  0  0  0  0  0  0  0  0  0  0
   13.7049   -7.8981   16.5915 C   0  0  0  0  0  0  0  0  0  0  0  0
   14.0953   -7.7298   18.0218 C   0  0  0  0  0  0  0  0  0  0  0  0
   13.1237   -7.4755   18.9925 C   0  0  0  0  0  0  0  0  0  0  0  0
   13.5033   -7.2789   20.3213 C   0  0  0  0  0  0  0  0  0  0  0  0
   14.8576   -7.3345   20.6587 C   0  0  0  0  0  0  0  0  0  0  0  0
   15.7910   -7.5760   19.6987 N   0  0  0  0  0  0  0  0  0  0  0  0
   15.4410   -7.7703   18.3984 C   0  0  0  0  0  0  0  0  0  0  0  0
   19.0772   -9.8491   10.9533 N   0  0  0  0  0  0  0  0  0  0  0  0
   19.8754  -10.3868   11.1609 H   0  0  0  0  0  0  0  0  0  0  0  0
   18.9667   -9.3110    9.6320 C   0  0  0  0  0  0  0  0  0  0  0  0
   19.7292   -8.3331    9.1687 O   0  0  0  0  0  0  0  0  0  0  0  0
   19.3297   -8.1320    7.9432 C   0  0  0  0  0  0  0  0  0  0  0  0
   18.3149   -8.9987    7.6653 C   0  0  0  0  0  0  0  0  0  0  0  0
   18.0579   -9.7720    8.7337 N   0  0  0  0  0  0  0  0  0  0  0  0
   17.6828   -9.0203    6.4248 C   0  0  0  0  0  0  0  0  0  0  0  0
   18.1332   -8.1047    5.4544 C   0  0  0  0  0  0  0  0  0  0  0  0
   19.1859   -7.2070    5.7458 C   0  0  0  0  0  0  0  0  0  0  0  0
   19.8026   -7.2128    7.0113 C   0  0  0  0  0  0  0  0  0  0  0  0
  9 10  1  0  0  0
 10 11  2  0  0  0
 11  1  1  0  0  0
  1  2  1  0  0  0
  2  3  2  0  0  0
  3  4  1  0  0  0
  4  5  1  0  0  0
  5  6  2  0  0  0
  6 16  1  0  0  0
 16 17  2  0  0  0
 16 18  1  0  0  0
 18 20  1  0  0  0
 20 21  1  0  0  0
 21 22  2  0  0  0
 22 23  1  0  0  0
 23 24  2  0  0  0
 24 25  1  0  0  0
 25 26  2  0  0  0
  5  7  1  0  0  0
  3 27  1  0  0  0
 27 29  1  0  0  0
 29 30  1  0  0  0
 30 31  1  0  0  0
 31 32  2  0  0  0
 32 33  1  0  0  0
 32 34  1  0  0  0
 34 35  2  0  0  0
 35 36  1  0  0  0
 36 37  2  0  0  0
 11 12  1  0  0  0
 12 13  2  0  0  0
 13 14  1  0  0  0
 14 15  2  0  0  0
 15 10  1  0  0  0
  6  1  1  0  0  0
 26 21  1  0  0  0
 33 29  2  0  0  0
 37 31  1  0  0  0
  4  8  1  0  0  0
 18 19  1  0  0  0
 27 28  1  0  0  0
M  END
>  <minimizedAffinity>
0.93546

>  <minimizedRMSD>
3.24620

$$$$
CHEMBL5077839 PubChem-156898796


 37 41  0  0  0  0  0  0  0  0999 V2000
   17.5531   -9.3828   14.3947 C   0  0  0  0  0  0  0  0  0  0  0  0
   18.5104   -9.5261   13.2937 N   0  0  0  0  0  0  0  0  0  0  0  0
   18.1702   -9.5841   12.0426 C   0  0  0  0  0  0  0  0  0  0  0  0
   16.7912   -9.5632   11.6800 N   0  0  0  0  0  0  0  0  0  0  0  0
   15.7647   -9.5414   12.6729 C   0  0  0  0  0  0  0  0  0  0  0  0
   16.0920   -9.4873   13.9806 C   0  0  0  0  0  0  0  0  0  0  0  0
   14.3469   -9.5470   12.2040 C   0  0  0  0  0  0  0  0  0  0  0  0
   16.5421   -9.5638   10.7275 H   0  0  0  0  0  0  0  0  0  0  0  0
   18.1805  -12.4352   13.7439 Cl  0  0  0  0  0  0  0  0  0  0  0  0
   18.1980  -11.6826   15.3319 C   0  0  0  0  0  0  0  0  0  0  0  0
   17.9130  -10.3112   15.5232 C   0  0  0  0  0  0  0  0  0  0  0  0
   17.9456   -9.7788   16.8174 C   0  0  0  0  0  0  0  0  0  0  0  0
   18.2532  -10.5904   17.9118 C   0  0  0  0  0  0  0  0  0  0  0  0
   18.5317  -11.9446   17.7200 C   0  0  0  0  0  0  0  0  0  0  0  0
   18.5042  -12.4874   16.4338 C   0  0  0  0  0  0  0  0  0  0  0  0
   15.0673   -9.4676   15.0486 C   0  0  0  0  0  0  0  0  0  0  0  0
   14.3311  -10.4765   15.2230 O   0  0  0  0  0  0  0  0  0  0  0  0
   14.8458   -8.2804   15.8155 N   0  0  0  0  0  0  0  0  0  0  0  0
   15.5273   -7.5701   15.7970 H   0  0  0  0  0  0  0  0  0  0  0  0
   13.6500   -8.0835   16.6224 C   0  0  0  0  0  0  0  0  0  0  0  0
   14.0241   -7.5155   17.9503 C   0  0  0  0  0  0  0  0  0  0  0  0
   13.3220   -6.5479   18.5736 N   0  0  0  0  0  0  0  0  0  0  0  0
   14.0407   -6.2791   19.6822 C   0  0  0  0  0  0  0  0  0  0  0  0
   15.1471   -7.0402   19.7420 N   0  0  0  0  0  0  0  0  0  0  0  0
   15.1673   -7.8261   18.6552 C   0  0  0  0  0  0  0  0  0  0  0  0
   16.1521   -7.0036   20.7869 C   0  0  0  0  0  0  0  0  0  0  0  0
   19.1610   -9.7048   11.0168 N   0  0  0  0  0  0  0  0  0  0  0  0
   20.0034  -10.1587   11.2485 H   0  0  0  0  0  0  0  0  0  0  0  0
   19.0189   -9.2152    9.6798 C   0  0  0  0  0  0  0  0  0  0  0  0
   19.7752   -8.2609    9.1605 O   0  0  0  0  0  0  0  0  0  0  0  0
   19.3444   -8.1023    7.9394 C   0  0  0  0  0  0  0  0  0  0  0  0
   18.3170   -8.9709    7.7206 C   0  0  0  0  0  0  0  0  0  0  0  0
   18.0834   -9.7022    8.8235 N   0  0  0  0  0  0  0  0  0  0  0  0
   17.6521   -9.0338    6.4989 C   0  0  0  0  0  0  0  0  0  0  0  0
   18.0824   -8.1581    5.4837 C   0  0  0  0  0  0  0  0  0  0  0  0
   19.1484   -7.2582    5.7136 C   0  0  0  0  0  0  0  0  0  0  0  0
   19.7983   -7.2218    6.9617 C   0  0  0  0  0  0  0  0  0  0  0  0
  9 10  1  0  0  0
 10 11  2  0  0  0
  1 11  1  0  0  0
  1  2  1  0  0  0
  2  3  2  0  0  0
  3  4  1  0  0  0
  4  5  1  0  0  0
  5  6  2  0  0  0
  6 16  1  0  0  0
 16 17  2  0  0  0
 16 18  1  0  0  0
 18 20  1  0  0  0
 20 21  1  0  0  0
 21 22  1  0  0  0
 22 23  2  0  0  0
 23 24  1  0  0  0
 24 25  1  0  0  0
 24 26  1  0  0  0
  5  7  1  0  0  0
  3 27  1  0  0  0
 27 29  1  0  0  0
 29 30  1  0  0  0
 30 31  1  0  0  0
 31 32  2  0  0  0
 32 33  1  0  0  0
 32 34  1  0  0  0
 34 35  2  0  0  0
 35 36  1  0  0  0
 36 37  2  0  0  0
 11 12  1  0  0  0
 12 13  2  0  0  0
 13 14  1  0  0  0
 14 15  2  0  0  0
 15 10  1  0  0  0
  6  1  1  0  0  0
 25 21  2  0  0  0
 33 29  2  0  0  0
 37 31  1  0  0  0
  4  8  1  0  0  0
 18 19  1  0  0  0
 27 28  1  0  0  0
M  END
>  <minimizedAffinity>
1.46208

>  <minimizedRMSD>
3.24629

$$$$
CHEMBL2037409 PubChem-60166879


 35 39  0  0  0  0  0  0  0  0999 V2000
   15.8682   -8.9387   18.1167 N   0  0  0  0  0  0  0  0  0  0  0  0
   15.7593   -8.6172   16.7253 C   0  0  0  0  0  0  0  0  0  0  0  0
   15.3842   -7.4774   16.3446 O   0  0  0  0  0  0  0  0  0  0  0  0
   16.1724   -9.8482   18.3394 H   0  0  0  0  0  0  0  0  0  0  0  0
   14.5250   -5.1994   22.8278 C   0  0  0  0  0  0  0  0  0  0  0  0
   13.2527   -5.5739   22.3367 C   0  0  0  0  0  0  0  0  0  0  0  0
   13.1280   -6.4405   21.2382 C   0  0  0  0  0  0  0  0  0  0  0  0
   14.2893   -6.9274   20.6406 C   0  0  0  0  0  0  0  0  0  0  0  0
   14.3064   -7.7681   19.5756 N   0  0  0  0  0  0  0  0  0  0  0  0
   15.5780   -8.0675   19.2166 C   0  0  0  0  0  0  0  0  0  0  0  0
   16.7257   -7.2990   20.2067 S   0  0  0  0  0  0  0  0  0  0  0  0
   15.5338   -6.5596   21.1255 C   0  0  0  0  0  0  0  0  0  0  0  0
   15.6832   -5.7012   22.2111 C   0  0  0  0  0  0  0  0  0  0  0  0
   14.6464   -3.5875   26.3594 C   0  0  0  0  0  0  0  0  0  0  0  0
   14.4194   -4.6289   25.3247 C   0  0  0  0  0  0  0  0  0  0  0  0
   14.0111   -5.7675   25.6745 O   0  0  0  0  0  0  0  0  0  0  0  0
   14.6729   -4.3173   23.9490 N   0  0  0  0  0  0  0  0  0  0  0  0
   14.9806   -3.4028   23.7533 H   0  0  0  0  0  0  0  0  0  0  0  0
   16.1206   -9.6429   15.7082 C   0  0  0  0  0  0  0  0  0  0  0  0
   17.5586   -9.0934   14.7383 S   0  0  0  0  0  0  0  0  0  0  0  0
   16.7888   -9.5047   13.1772 C   0  0  0  0  0  0  0  0  0  0  0  0
   15.4945   -9.8488   13.0421 N   0  0  0  0  0  0  0  0  0  0  0  0
   15.3064  -10.0745   11.7513 N   0  0  0  0  0  0  0  0  0  0  0  0
   16.4944   -9.8606   11.1561 C   0  0  0  0  0  0  0  0  0  0  0  0
   17.4103   -9.5054   12.0237 O   0  0  0  0  0  0  0  0  0  0  0  0
   16.7255   -9.9780    9.6889 C   0  0  0  0  0  0  0  0  0  0  0  0
   17.8177   -9.1055    9.2851 N   0  0  0  0  0  0  0  0  0  0  0  0
   18.6410   -8.4087   10.1047 C   0  0  0  0  0  0  0  0  0  0  0  0
   19.5296   -7.6427    9.4145 N   0  0  0  0  0  0  0  0  0  0  0  0
   19.2209   -7.8843    8.1267 C   0  0  0  0  0  0  0  0  0  0  0  0
   19.8189   -7.3419    6.9921 C   0  0  0  0  0  0  0  0  0  0  0  0
   19.3091   -7.7363    5.7403 C   0  0  0  0  0  0  0  0  0  0  0  0
   18.2312   -8.6472    5.6572 C   0  0  0  0  0  0  0  0  0  0  0  0
   17.6495   -9.1761    6.8246 C   0  0  0  0  0  0  0  0  0  0  0  0
   18.1838   -8.7629    8.0440 C   0  0  0  0  0  0  0  0  0  0  0  0
 14 15  1  0  0  0
 15 16  2  0  0  0
 15 17  1  0  0  0
 17  5  1  0  0  0
  5  6  2  0  0  0
  6  7  1  0  0  0
  7  8  2  0  0  0
  8  9  1  0  0  0
  9 10  2  0  0  0
 10  1  1  0  0  0
 10 11  1  0  0  0
  1  2  1  0  0  0
  2  3  2  0  0  0
  2 19  1  0  0  0
 19 20  1  0  0  0
 20 21  1  0  0  0
 21 22  2  0  0  0
 22 23  1  0  0  0
 23 24  2  0  0  0
 24 26  1  0  0  0
 24 25  1  0  0  0
 26 27  1  0  0  0
 27 28  1  0  0  0
 28 29  2  0  0  0
 29 30  1  0  0  0
 30 31  2  0  0  0
 31 32  1  0  0  0
 32 33  2  0  0  0
 33 34  1  0  0  0
 34 35  2  0  0  0
 35 27  1  0  0  0
 35 30  1  0  0  0
 25 21  1  0  0  0
 11 12  1  0  0  0
 12 13  2  0  0  0
 12  8  1  0  0  0
 13  5  1  0  0  0
 17 18  1  0  0  0
  1  4  1  0  0  0
M  END
>  <minimizedAffinity>
-6.67155

>  <minimizedRMSD>
3.24879

$$$$
CHEMBL4173465 PubChem-145951848


 32 36  0  0  0  0  0  0  0  0999 V2000
   16.9835   -9.9280   12.2932 C   0  0  0  0  0  0  0  0  0  0  0  0
   16.3973   -8.9299   13.0954 C   0  0  0  0  0  0  0  0  0  0  0  0
   16.5325   -9.0426   14.4764 C   0  0  0  0  0  0  0  0  0  0  0  0
   17.2147  -10.0740   15.0527 C   0  0  0  0  0  0  0  0  0  0  0  0
   17.8275  -11.0729   14.2990 C   0  0  0  0  0  0  0  0  0  0  0  0
   17.7055  -10.9887   12.9007 C   0  0  0  0  0  0  0  0  0  0  0  0
   17.1942   -9.9201   16.3831 N   0  0  0  0  0  0  0  0  0  0  0  0
   16.4843   -8.7750   16.5729 C   0  0  0  0  0  0  0  0  0  0  0  0
   16.0636   -8.2004   15.4158 N   0  0  0  0  0  0  0  0  0  0  0  0
   17.8794  -10.7490   17.3637 C   0  0  0  0  0  0  0  0  0  0  0  0
   16.2095   -8.1843   17.8490 N   0  0  0  0  0  0  0  0  0  0  0  0
   16.6951   -7.3618   18.0876 H   0  0  0  0  0  0  0  0  0  0  0  0
   15.2618   -8.7167   18.8168 C   0  0  0  0  0  0  0  0  0  0  0  0
   14.1312   -7.7627   19.0022 C   0  0  0  0  0  0  0  0  0  0  0  0
   13.4023   -7.3119   17.8970 C   0  0  0  0  0  0  0  0  0  0  0  0
   12.3574   -6.3998   18.0705 C   0  0  0  0  0  0  0  0  0  0  0  0
   12.0357   -5.9284   19.3478 C   0  0  0  0  0  0  0  0  0  0  0  0
   12.7741   -6.3786   20.4548 C   0  0  0  0  0  0  0  0  0  0  0  0
   13.8191   -7.2906   20.2811 C   0  0  0  0  0  0  0  0  0  0  0  0
   10.9849   -5.0179   19.4882 O   0  0  0  0  0  0  0  0  0  0  0  0
   10.5407   -4.5476   20.7535 C   0  0  0  0  0  0  0  0  0  0  0  0
   16.8737   -9.8191   10.9010 O   0  0  0  0  0  0  0  0  0  0  0  0
   18.8517   -8.5027   10.6216 N   0  0  0  0  0  0  0  0  0  0  0  0
   19.7754   -7.8481    9.8470 C   0  0  0  0  0  0  0  0  0  0  0  0
   19.6685   -7.8529    8.4846 N   0  0  0  0  0  0  0  0  0  0  0  0
   18.6285   -8.5238    7.9339 C   0  0  0  0  0  0  0  0  0  0  0  0
   17.7024   -9.1787    8.6762 C   0  0  0  0  0  0  0  0  0  0  0  0
   17.8072   -9.1881   10.0679 C   0  0  0  0  0  0  0  0  0  0  0  0
   16.7694   -9.6692    7.7771 C   0  0  0  0  0  0  0  0  0  0  0  0
   17.1804   -9.3026    6.5327 N   0  0  0  0  0  0  0  0  0  0  0  0
   18.3076   -8.6092    6.6395 N   0  0  0  0  0  0  0  0  0  0  0  0
   19.0267   -8.0307    5.5182 C   0  0  0  0  0  0  0  0  0  0  0  0
 23 24  2  0  0  0
 24 25  1  0  0  0
 25 26  2  0  0  0
 26 27  1  0  0  0
 27 28  2  0  0  0
 28 22  1  0  0  0
 22  1  1  0  0  0
  1  2  2  0  0  0
  2  3  1  0  0  0
  3  4  2  0  0  0
  4  5  1  0  0  0
  5  6  2  0  0  0
  4  7  1  0  0  0
  7  8  1  0  0  0
  8  9  2  0  0  0
  8 11  1  0  0  0
 11 13  1  0  0  0
 13 14  1  0  0  0
 14 15  2  0  0  0
 15 16  1  0  0  0
 16 17  2  0  0  0
 17 18  1  0  0  0
 18 19  2  0  0  0
 17 20  1  0  0  0
 20 21  1  0  0  0
  7 10  1  0  0  0
 27 29  1  0  0  0
 29 30  2  0  0  0
 30 31  1  0  0  0
 31 32  1  0  0  0
 28 23  1  0  0  0
  6  1  1  0  0  0
 19 14  1  0  0  0
 31 26  1  0  0  0
  9  3  1  0  0  0
 11 12  1  0  0  0
M  END
>  <minimizedAffinity>
-7.38510

>  <minimizedRMSD>
3.25367

$$$$
CHEMBL2037407 PubChem-60166877


 32 36  0  0  0  0  0  0  0  0999 V2000
   15.7943   -9.4384   15.7287 C   0  0  0  0  0  0  0  0  0  0  0  0
   14.8369   -8.6764   17.9361 N   0  0  0  0  0  0  0  0  0  0  0  0
   15.7835   -8.4919   16.8783 C   0  0  0  0  0  0  0  0  0  0  0  0
   16.6185   -7.5495   16.9108 O   0  0  0  0  0  0  0  0  0  0  0  0
   14.1881   -9.4110   17.8432 H   0  0  0  0  0  0  0  0  0  0  0  0
   14.4164   -5.2389   23.0230 C   0  0  0  0  0  0  0  0  0  0  0  0
   15.7126   -5.7834   23.1254 C   0  0  0  0  0  0  0  0  0  0  0  0
   16.2131   -6.6473   22.1367 C   0  0  0  0  0  0  0  0  0  0  0  0
   15.4001   -6.9542   21.0467 C   0  0  0  0  0  0  0  0  0  0  0  0
   15.7630   -7.7737   20.0285 N   0  0  0  0  0  0  0  0  0  0  0  0
   14.7625   -7.8739   19.1182 C   0  0  0  0  0  0  0  0  0  0  0  0
   13.3991   -6.9637   19.5384 S   0  0  0  0  0  0  0  0  0  0  0  0
   14.1272   -6.4154   20.9470 C   0  0  0  0  0  0  0  0  0  0  0  0
   13.6078   -5.5595   21.9130 C   0  0  0  0  0  0  0  0  0  0  0  0
   12.9101   -3.4528   23.8347 C   0  0  0  0  0  0  0  0  0  0  0  0
   13.9622   -4.3871   24.0341 O   0  0  0  0  0  0  0  0  0  0  0  0
   17.4702  -10.0971   15.4622 S   0  0  0  0  0  0  0  0  0  0  0  0
   17.3615   -9.9442   13.6829 C   0  0  0  0  0  0  0  0  0  0  0  0
   18.0315  -10.7272   12.8169 N   0  0  0  0  0  0  0  0  0  0  0  0
   17.6910  -10.3128   11.6063 N   0  0  0  0  0  0  0  0  0  0  0  0
   16.8311   -9.2931   11.7872 C   0  0  0  0  0  0  0  0  0  0  0  0
   16.6194   -9.0620   13.0599 O   0  0  0  0  0  0  0  0  0  0  0  0
   16.1696   -8.5512   10.6766 C   0  0  0  0  0  0  0  0  0  0  0  0
   16.6056   -9.0841    9.3945 N   0  0  0  0  0  0  0  0  0  0  0  0
   16.2248  -10.2565    8.8317 C   0  0  0  0  0  0  0  0  0  0  0  0
   16.8682  -10.4985    7.6568 N   0  0  0  0  0  0  0  0  0  0  0  0
   17.6763   -9.4314    7.5140 C   0  0  0  0  0  0  0  0  0  0  0  0
   18.5709   -9.1738    6.4783 C   0  0  0  0  0  0  0  0  0  0  0  0
   19.3211   -7.9842    6.5521 C   0  0  0  0  0  0  0  0  0  0  0  0
   19.1603   -7.0983    7.6422 C   0  0  0  0  0  0  0  0  0  0  0  0
   18.2479   -7.3903    8.6731 C   0  0  0  0  0  0  0  0  0  0  0  0
   17.5239   -8.5770    8.5635 C   0  0  0  0  0  0  0  0  0  0  0  0
 15 16  1  0  0  0
 16  6  1  0  0  0
  6  7  2  0  0  0
  7  8  1  0  0  0
  8  9  2  0  0  0
  9 10  1  0  0  0
 10 11  2  0  0  0
 11  2  1  0  0  0
 11 12  1  0  0  0
  2  3  1  0  0  0
  3  4  2  0  0  0
  3  1  1  0  0  0
  1 17  1  0  0  0
 17 18  1  0  0  0
 18 19  2  0  0  0
 19 20  1  0  0  0
 20 21  2  0  0  0
 21 23  1  0  0  0
 21 22  1  0  0  0
 23 24  1  0  0  0
 24 25  1  0  0  0
 25 26  2  0  0  0
 26 27  1  0  0  0
 27 28  2  0  0  0
 28 29  1  0  0  0
 29 30  2  0  0  0
 30 31  1  0  0  0
 31 32  2  0  0  0
 32 24  1  0  0  0
 32 27  1  0  0  0
 22 18  1  0  0  0
 12 13  1  0  0  0
 13 14  2  0  0  0
 13  9  1  0  0  0
 14  6  1  0  0  0
  2  5  1  0  0  0
M  END
>  <minimizedAffinity>
-4.17314

>  <minimizedRMSD>
3.25928

$$$$
CHEMBL2178263 PubChem-70497535


 32 35  0  0  0  0  0  0  0  0999 V2000
   18.0582   -9.6957   13.6706 N   0  0  0  0  0  0  0  0  0  0  0  0
   18.6500   -9.6142   12.4634 C   0  0  0  0  0  0  0  0  0  0  0  0
   17.6394   -9.7304   11.5290 C   0  0  0  0  0  0  0  0  0  0  0  0
   16.4584   -9.8711   12.2385 C   0  0  0  0  0  0  0  0  0  0  0  0
   16.7466   -9.8416   13.5537 N   0  0  0  0  0  0  0  0  0  0  0  0
   15.0912  -10.0311   11.7036 C   0  0  0  0  0  0  0  0  0  0  0  0
   14.6683   -9.3248   10.5675 C   0  0  0  0  0  0  0  0  0  0  0  0
   13.3711   -9.4883   10.0732 C   0  0  0  0  0  0  0  0  0  0  0  0
   12.4856  -10.3605   10.7113 C   0  0  0  0  0  0  0  0  0  0  0  0
   12.8977  -11.0686   11.8431 C   0  0  0  0  0  0  0  0  0  0  0  0
   11.7898  -12.1616   12.6431 Cl  0  0  0  0  0  0  0  0  0  0  0  0
   14.1950  -10.9044   12.3367 C   0  0  0  0  0  0  0  0  0  0  0  0
   17.7750   -9.7112   10.1029 N   0  0  0  0  0  0  0  0  0  0  0  0
   18.0363   -8.5485    9.3080 C   0  0  0  0  0  0  0  0  0  0  0  0
   18.1724   -7.4175    9.8474 O   0  0  0  0  0  0  0  0  0  0  0  0
   17.6806  -10.5692    9.6294 H   0  0  0  0  0  0  0  0  0  0  0  0
   18.1480   -8.6825    7.8498 C   0  0  0  0  0  0  0  0  0  0  0  0
   17.2784   -9.3657    6.9977 C   0  0  0  0  0  0  0  0  0  0  0  0
   17.7322   -9.2533    5.7220 N   0  0  0  0  0  0  0  0  0  0  0  0
   18.8389   -8.5324    5.7592 N   0  0  0  0  0  0  0  0  0  0  0  0
   19.6179   -8.1779    4.7099 C   0  0  0  0  0  0  0  0  0  0  0  0
   20.7565   -7.4044    4.9759 C   0  0  0  0  0  0  0  0  0  0  0  0
   21.0312   -7.0376    6.3086 C   0  0  0  0  0  0  0  0  0  0  0  0
   20.2038   -7.4286    7.3218 N   0  0  0  0  0  0  0  0  0  0  0  0
   19.1147   -8.1760    7.0151 C   0  0  0  0  0  0  0  0  0  0  0  0
   18.7597   -9.6032   14.9440 C   0  0  0  0  0  0  0  0  0  0  0  0
   18.0278  -10.3481   16.0620 C   0  0  0  0  0  0  0  0  0  0  0  0
   16.6436  -10.2035   15.9468 O   0  0  0  0  0  0  0  0  0  0  0  0
   16.3439  -10.6096   15.1184 H   0  0  0  0  0  0  0  0  0  0  0  0
   18.4209  -11.8200   16.1473 C   0  0  0  0  0  0  0  0  0  0  0  0
   18.3614  -12.8867   14.2155 C   0  0  0  0  0  0  0  0  0  0  0  0
   17.5925  -12.6069   15.3440 O   0  0  0  0  0  0  0  0  0  0  0  0
 31 32  1  0  0  0
 32 30  1  0  0  0
 27 30  1  0  0  0
 27 28  1  0  0  0
 27 26  1  0  0  0
 26  1  1  0  0  0
  1  2  1  0  0  0
  2  3  2  0  0  0
  3 13  1  0  0  0
  3  4  1  0  0  0
 13 14  1  0  0  0
 14 15  2  0  0  0
 14 17  1  0  0  0
 17 18  1  0  0  0
 18 19  2  0  0  0
 19 20  1  0  0  0
 20 21  1  0  0  0
 21 22  2  0  0  0
 22 23  1  0  0  0
 23 24  2  0  0  0
 24 25  1  0  0  0
 25 17  2  0  0  0
 25 20  1  0  0  0
  4  6  1  0  0  0
  4  5  2  0  0  0
  6  7  2  0  0  0
  7  8  1  0  0  0
  8  9  2  0  0  0
  9 10  1  0  0  0
 10 11  1  0  0  0
 10 12  2  0  0  0
 12  6  1  0  0  0
  5  1  1  0  0  0
 28 29  1  0  0  0
 13 16  1  0  0  0
M  END
>  <minimizedAffinity>
3.49541

>  <minimizedRMSD>
3.26280

$$$$
CHEMBL1367819 ChemDiv-C887-3036 MCULE-1285065465 MolPort-007-681-321 PubChem-20893832 ZINC000008965125


 34 37  0  0  0  0  0  0  0  0999 V2000
   16.4854  -10.2349   13.3245 C   0  0  0  0  0  0  0  0  0  0  0  0
   16.2696   -9.8285   14.6754 N   0  0  0  0  0  0  0  0  0  0  0  0
   17.3927  -11.0629   13.0436 O   0  0  0  0  0  0  0  0  0  0  0  0
   15.5643   -9.1691   14.8676 H   0  0  0  0  0  0  0  0  0  0  0  0
   15.6332   -9.6817   12.2301 C   0  0  0  0  0  0  0  0  0  0  0  0
   16.2787   -9.9154   10.8747 C   0  0  0  0  0  0  0  0  0  0  0  0
   17.5216   -9.0492   10.7369 C   0  0  0  0  0  0  0  0  0  0  0  0
   19.2146   -7.9722    7.6120 C   0  0  0  0  0  0  0  0  0  0  0  0
   20.2819   -7.2744    6.9959 C   0  0  0  0  0  0  0  0  0  0  0  0
   19.9721   -7.4973    5.6623 C   0  0  0  0  0  0  0  0  0  0  0  0
   18.8850   -8.2207    5.5302 C   0  0  0  0  0  0  0  0  0  0  0  0
   18.5896   -8.4356    4.2087 C   0  0  0  0  0  0  0  0  0  0  0  0
   19.6587   -7.7362    3.5985 C   0  0  0  0  0  0  0  0  0  0  0  0
   20.4708   -7.1844    4.5022 O   0  0  0  0  0  0  0  0  0  0  0  0
   18.3765   -8.5394    6.7158 N   0  0  0  0  0  0  0  0  0  0  0  0
   17.2855   -9.2494    7.0723 C   0  0  0  0  0  0  0  0  0  0  0  0
   17.0372   -9.3943    8.4032 N   0  0  0  0  0  0  0  0  0  0  0  0
   17.8407   -8.8484    9.3297 N   0  0  0  0  0  0  0  0  0  0  0  0
   18.9516   -8.1253    8.9692 C   0  0  0  0  0  0  0  0  0  0  0  0
   19.7117   -7.6121    9.8375 O   0  0  0  0  0  0  0  0  0  0  0  0
   17.0574  -10.3566   15.7766 C   0  0  0  0  0  0  0  0  0  0  0  0
   17.5342   -9.2199   16.6690 C   0  0  0  0  0  0  0  0  0  0  0  0
   16.3969   -8.5730   17.3903 C   0  0  0  0  0  0  0  0  0  0  0  0
   15.2848   -8.1272   16.6670 C   0  0  0  0  0  0  0  0  0  0  0  0
   14.2233   -7.5036   17.3304 C   0  0  0  0  0  0  0  0  0  0  0  0
   14.2714   -7.3185   18.7183 C   0  0  0  0  0  0  0  0  0  0  0  0
   15.3839   -7.7640   19.4420 C   0  0  0  0  0  0  0  0  0  0  0  0
   16.4452   -8.3897   18.7800 C   0  0  0  0  0  0  0  0  0  0  0  0
   12.9418   -6.5331   19.5532 S   0  0  0  0  0  0  0  0  0  0  0  0
   13.3570   -6.3064   21.2157 N   0  0  0  0  0  0  0  0  0  0  0  0
   12.6744   -5.1920   18.9276 O   0  0  0  0  0  0  0  0  0  0  0  0
   11.7073   -7.3842   19.4504 O   0  0  0  0  0  0  0  0  0  0  0  0
   14.1949   -5.7285   21.2812 H   0  0  0  0  0  0  0  0  0  0  0  0
   13.5344   -7.2129   21.6485 H   0  0  0  0  0  0  0  0  0  0  0  0
  8  9  2  0  0  0
  9 10  1  0  0  0
 10 11  2  0  0  0
 11 12  1  0  0  0
 12 13  2  0  0  0
 13 14  1  0  0  0
 11 15  1  0  0  0
 15 16  1  0  0  0
 16 17  2  0  0  0
 17 18  1  0  0  0
 18  7  1  0  0  0
  7  6  1  0  0  0
  6  5  1  0  0  0
  5  1  1  0  0  0
  1  2  1  0  0  0
  2 21  1  0  0  0
 21 22  1  0  0  0
 22 23  1  0  0  0
 23 24  2  0  0  0
 24 25  1  0  0  0
 25 26  2  0  0  0
 26 27  1  0  0  0
 27 28  2  0  0  0
 26 29  1  0  0  0
 29 30  1  0  0  0
 29 31  2  0  0  0
 29 32  2  0  0  0
  1  3  2  0  0  0
 18 19  1  0  0  0
 19 20  2  0  0  0
 15  8  1  0  0  0
 28 23  1  0  0  0
 19  8  1  0  0  0
 14 10  1  0  0  0
  2  4  1  0  0  0
 30 33  1  0  0  0
 30 34  1  0  0  0
M  END
>  <minimizedAffinity>
-5.95856

>  <minimizedRMSD>
3.26726

$$$$
CHEMBL469171 PubChem-44577740


 31 35  0  0  0  0  0  0  0  0999 V2000
   17.4454  -10.4866   13.1962 C   0  0  0  0  0  0  0  0  0  0  0  0
   18.4365  -11.3523   12.7057 C   0  0  0  0  0  0  0  0  0  0  0  0
   19.0457  -12.2930   13.5371 C   0  0  0  0  0  0  0  0  0  0  0  0
   18.6746  -12.3804   14.8777 C   0  0  0  0  0  0  0  0  0  0  0  0
   17.6931  -11.5288   15.3843 C   0  0  0  0  0  0  0  0  0  0  0  0
   17.0701  -10.5796   14.5584 C   0  0  0  0  0  0  0  0  0  0  0  0
   16.8401   -9.4824   12.2826 C   0  0  0  0  0  0  0  0  0  0  0  0
   16.4175   -8.3917   12.7532 O   0  0  0  0  0  0  0  0  0  0  0  0
   18.4850   -8.1753    9.8397 C   0  0  0  0  0  0  0  0  0  0  0  0
   19.0106   -7.7770    8.5965 C   0  0  0  0  0  0  0  0  0  0  0  0
   18.5030   -8.3193    7.3940 C   0  0  0  0  0  0  0  0  0  0  0  0
   17.4626   -9.2673    7.4182 C   0  0  0  0  0  0  0  0  0  0  0  0
   16.9654   -9.6399    8.6640 C   0  0  0  0  0  0  0  0  0  0  0  0
   17.4563   -9.1156    9.8258 C   0  0  0  0  0  0  0  0  0  0  0  0
   16.7248   -9.7192   10.8261 C   0  0  0  0  0  0  0  0  0  0  0  0
   15.8338  -10.5611   10.2470 N   0  0  0  0  0  0  0  0  0  0  0  0
   15.9812  -10.5161    8.9255 N   0  0  0  0  0  0  0  0  0  0  0  0
   15.4651  -11.0294    8.2627 H   0  0  0  0  0  0  0  0  0  0  0  0
   16.0479   -9.7266   15.0921 N   0  0  0  0  0  0  0  0  0  0  0  0
   15.1541  -10.1127   15.2380 H   0  0  0  0  0  0  0  0  0  0  0  0
   16.2503   -8.3234   15.4318 C   0  0  0  0  0  0  0  0  0  0  0  0
   15.5866   -8.0031   16.7282 C   0  0  0  0  0  0  0  0  0  0  0  0
   16.2314   -8.3274   17.9447 C   0  0  0  0  0  0  0  0  0  0  0  0
   15.6181   -8.0462   19.1802 C   0  0  0  0  0  0  0  0  0  0  0  0
   14.3643   -7.4429   19.1464 C   0  0  0  0  0  0  0  0  0  0  0  0
   13.7419   -7.1304   17.9756 C   0  0  0  0  0  0  0  0  0  0  0  0
   14.3161   -7.3929   16.7357 C   0  0  0  0  0  0  0  0  0  0  0  0
   12.5402   -6.5577   18.3198 C   0  0  0  0  0  0  0  0  0  0  0  0
   12.4883   -6.5485   19.6763 N   0  0  0  0  0  0  0  0  0  0  0  0
   13.5948   -7.0855   20.1832 N   0  0  0  0  0  0  0  0  0  0  0  0
   13.8075   -7.1987   21.1378 H   0  0  0  0  0  0  0  0  0  0  0  0
  9 10  2  0  0  0
 10 11  1  0  0  0
 11 12  2  0  0  0
 12 13  1  0  0  0
 13 14  2  0  0  0
 14 15  1  0  0  0
 15 16  2  0  0  0
 16 17  1  0  0  0
 15  7  1  0  0  0
  7  8  2  0  0  0
  7  1  1  0  0  0
  1  2  2  0  0  0
  2  3  1  0  0  0
  3  4  2  0  0  0
  4  5  1  0  0  0
  5  6  2  0  0  0
  6 19  1  0  0  0
 19 21  1  0  0  0
 21 22  1  0  0  0
 22 23  2  0  0  0
 23 24  1  0  0  0
 24 25  2  0  0  0
 25 26  1  0  0  0
 26 27  2  0  0  0
 26 28  1  0  0  0
 28 29  2  0  0  0
 29 30  1  0  0  0
 14  9  1  0  0  0
  6  1  1  0  0  0
 27 22  1  0  0  0
 17 13  1  0  0  0
 30 25  1  0  0  0
 17 18  1  0  0  0
 19 20  1  0  0  0
 30 31  1  0  0  0
M  END
>  <minimizedAffinity>
-7.74298

>  <minimizedRMSD>
3.28710

$$$$
CHEMBL4475173 PubChem-59278436


 33 36  0  0  0  0  0  0  0  0999 V2000
   16.2450   -9.3221   10.0422 N   0  0  0  0  0  0  0  0  0  0  0  0
   17.6718   -9.4329   10.0719 C   0  0  0  0  0  0  0  0  0  0  0  0
   18.2259  -10.1487   10.9507 O   0  0  0  0  0  0  0  0  0  0  0  0
   15.8279   -8.8083    9.3133 H   0  0  0  0  0  0  0  0  0  0  0  0
   18.5029   -8.7195    9.0791 C   0  0  0  0  0  0  0  0  0  0  0  0
   19.5861   -7.9202    9.4997 C   0  0  0  0  0  0  0  0  0  0  0  0
   20.3613   -7.2500    8.5908 N   0  0  0  0  0  0  0  0  0  0  0  0
   20.1274   -7.3206    7.2477 C   0  0  0  0  0  0  0  0  0  0  0  0
   19.0637   -8.1046    6.8096 C   0  0  0  0  0  0  0  0  0  0  0  0
   18.2766   -8.7797    7.6971 C   0  0  0  0  0  0  0  0  0  0  0  0
   17.3274   -9.4397    6.9371 C   0  0  0  0  0  0  0  0  0  0  0  0
   17.5721   -9.1435    5.6362 N   0  0  0  0  0  0  0  0  0  0  0  0
   18.6247   -8.3353    5.5569 N   0  0  0  0  0  0  0  0  0  0  0  0
   19.1468   -7.8330    4.3116 C   0  0  0  0  0  0  0  0  0  0  0  0
   18.6161   -8.2941    3.0963 C   0  0  0  0  0  0  0  0  0  0  0  0
   19.1109   -7.8185    1.8786 C   0  0  0  0  0  0  0  0  0  0  0  0
   20.1409   -6.8748    1.8639 C   0  0  0  0  0  0  0  0  0  0  0  0
   20.6766   -6.4077    3.0664 C   0  0  0  0  0  0  0  0  0  0  0  0
   20.1820   -6.8843    4.2835 C   0  0  0  0  0  0  0  0  0  0  0  0
   20.6242   -6.4173    0.6838 F   0  0  0  0  0  0  0  0  0  0  0  0
   15.3832   -9.9361   11.0428 C   0  0  0  0  0  0  0  0  0  0  0  0
   17.1530   -9.5069   14.9280 C   0  0  0  0  0  0  0  0  0  0  0  0
   17.3251  -10.6924   14.2049 C   0  0  0  0  0  0  0  0  0  0  0  0
   16.7411  -10.8347   12.9433 C   0  0  0  0  0  0  0  0  0  0  0  0
   15.9832   -9.7918   12.4006 C   0  0  0  0  0  0  0  0  0  0  0  0
   15.8154   -8.6032   13.1200 C   0  0  0  0  0  0  0  0  0  0  0  0
   16.3980   -8.4619   14.3825 C   0  0  0  0  0  0  0  0  0  0  0  0
   17.8970   -9.3332   16.5088 S   0  0  0  0  0  0  0  0  0  0  0  0
   18.2437  -10.6947   17.0408 O   0  0  0  0  0  0  0  0  0  0  0  0
   19.1556   -8.5179   16.3953 O   0  0  0  0  0  0  0  0  0  0  0  0
   15.4906   -8.5302   16.9761 C   0  0  0  0  0  0  0  0  0  0  0  0
   16.8030   -8.5510   17.6008 N   0  0  0  0  0  0  0  0  0  0  0  0
   16.7610   -9.0677   18.4792 H   0  0  0  0  0  0  0  0  0  0  0  0
 31 32  1  0  0  0
 32 28  1  0  0  0
 28 29  2  0  0  0
 28 30  2  0  0  0
 28 22  1  0  0  0
 22 23  2  0  0  0
 23 24  1  0  0  0
 24 25  2  0  0  0
 25 26  1  0  0  0
 25 21  1  0  0  0
 26 27  2  0  0  0
 27 22  1  0  0  0
 21  1  1  0  0  0
  1  2  1  0  0  0
  2  3  2  0  0  0
  2  5  1  0  0  0
  5  6  2  0  0  0
  6  7  1  0  0  0
  7  8  2  0  0  0
  8  9  1  0  0  0
  9 10  2  0  0  0
 10 11  1  0  0  0
 10  5  1  0  0  0
 11 12  2  0  0  0
 12 13  1  0  0  0
 13 14  1  0  0  0
 13  9  1  0  0  0
 14 15  2  0  0  0
 15 16  1  0  0  0
 16 17  2  0  0  0
 17 18  1  0  0  0
 17 20  1  0  0  0
 18 19  2  0  0  0
 19 14  1  0  0  0
 32 33  1  0  0  0
  1  4  1  0  0  0
M  END
>  <minimizedAffinity>
-4.30518

>  <minimizedRMSD>
3.28952

$$$$
CHEMBL1172718 PubChem-24826800 PubChem-88996409


 37 41  0  0  0  0  0  0  0  0999 V2000
   14.1756   -7.7251   17.9637 C   0  0  0  0  0  0  0  0  0  0  0  0
   13.1886   -7.3708   17.2655 O   0  0  0  0  0  0  0  0  0  0  0  0
   14.0557   -7.6825   19.3926 N   0  0  0  0  0  0  0  0  0  0  0  0
   13.1799   -7.9167   19.7764 H   0  0  0  0  0  0  0  0  0  0  0  0
   18.9253   -9.7530   15.3633 C   0  0  0  0  0  0  0  0  0  0  0  0
   17.6868   -9.2267   16.0079 C   0  0  0  0  0  0  0  0  0  0  0  0
   17.6928   -9.0044   17.3876 C   0  0  0  0  0  0  0  0  0  0  0  0
   16.5532   -8.5112   18.0267 C   0  0  0  0  0  0  0  0  0  0  0  0
   15.3941   -8.2252   17.2924 C   0  0  0  0  0  0  0  0  0  0  0  0
   15.3853   -8.4638   15.9114 C   0  0  0  0  0  0  0  0  0  0  0  0
   16.5223   -8.9575   15.2639 C   0  0  0  0  0  0  0  0  0  0  0  0
   16.4671   -9.1805   13.8420 C   0  0  0  0  0  0  0  0  0  0  0  0
   16.4216   -9.3674   12.6520 C   0  0  0  0  0  0  0  0  0  0  0  0
   16.3688   -9.5894   11.2328 C   0  0  0  0  0  0  0  0  0  0  0  0
   15.4095  -10.3189   10.5440 C   0  0  0  0  0  0  0  0  0  0  0  0
   15.7115  -10.2930    9.2170 N   0  0  0  0  0  0  0  0  0  0  0  0
   16.8367   -9.5534    9.1474 C   0  0  0  0  0  0  0  0  0  0  0  0
   17.5492   -9.2313    7.9987 C   0  0  0  0  0  0  0  0  0  0  0  0
   18.6999   -8.4440    8.1644 C   0  0  0  0  0  0  0  0  0  0  0  0
   19.0841   -8.0184    9.4513 C   0  0  0  0  0  0  0  0  0  0  0  0
   18.3336   -8.3747   10.5328 N   0  0  0  0  0  0  0  0  0  0  0  0
   17.2482   -9.1217   10.3422 N   0  0  0  0  0  0  0  0  0  0  0  0
   15.0973   -7.3294   20.3108 C   0  0  0  0  0  0  0  0  0  0  0  0
   14.8277   -7.3402   21.6820 C   0  0  0  0  0  0  0  0  0  0  0  0
   15.8166   -6.9720   22.5976 C   0  0  0  0  0  0  0  0  0  0  0  0
   17.0816   -6.5766   22.1498 C   0  0  0  0  0  0  0  0  0  0  0  0
   17.3554   -6.5521   20.7705 C   0  0  0  0  0  0  0  0  0  0  0  0
   18.9250   -6.0648   20.1497 Cl  0  0  0  0  0  0  0  0  0  0  0  0
   16.3606   -6.9193   19.8603 C   0  0  0  0  0  0  0  0  0  0  0  0
   18.1242   -6.2159   23.1571 C   0  0  0  0  0  0  0  0  0  0  0  0
   19.2601   -7.1297   23.0551 N   0  0  0  0  0  0  0  0  0  0  0  0
   19.6659   -7.5873   24.3887 C   0  0  0  0  0  0  0  0  0  0  0  0
   20.2601   -6.4525   25.2388 C   0  0  0  0  0  0  0  0  0  0  0  0
   21.3733   -5.7762   24.5661 N   0  0  0  0  0  0  0  0  0  0  0  0
   22.5149   -6.6778   24.4660 C   0  0  0  0  0  0  0  0  0  0  0  0
   20.9744   -5.3246   23.2296 C   0  0  0  0  0  0  0  0  0  0  0  0
   20.3771   -6.4603   22.3820 C   0  0  0  0  0  0  0  0  0  0  0  0
  5  6  1  0  0  0
  6  7  2  0  0  0
  7  8  1  0  0  0
  8  9  2  0  0  0
  9  1  1  0  0  0
  9 10  1  0  0  0
  1  2  2  0  0  0
  1  3  1  0  0  0
  3 23  1  0  0  0
 23 24  2  0  0  0
 24 25  1  0  0  0
 25 26  2  0  0  0
 26 30  1  0  0  0
 26 27  1  0  0  0
 30 31  1  0  0  0
 31 32  1  0  0  0
 32 33  1  0  0  0
 33 34  1  0  0  0
 34 35  1  0  0  0
 34 36  1  0  0  0
 36 37  1  0  0  0
 37 31  1  0  0  0
 27 28  1  0  0  0
 27 29  2  0  0  0
 29 23  1  0  0  0
 10 11  2  0  0  0
 11 12  1  0  0  0
 11  6  1  0  0  0
 12 13  3  0  0  0
 13 14  1  0  0  0
 14 15  2  0  0  0
 15 16  1  0  0  0
 16 17  2  0  0  0
 17 18  1  0  0  0
 18 19  2  0  0  0
 19 20  1  0  0  0
 20 21  2  0  0  0
 21 22  1  0  0  0
 22 14  1  0  0  0
 22 17  1  0  0  0
  3  4  1  0  0  0
M  END
>  <minimizedAffinity>
-6.45628

>  <minimizedRMSD>
3.29131

$$$$
CHEMBL3653645


 35 41  0  0  0  0  0  0  0  0999 V2000
   17.4060   -8.6080    7.8800 C   0  0  0  0  0  0  0  0  0  0  0  0
   16.8654   -9.4666    6.8921 C   0  0  0  0  0  0  0  0  0  0  0  0
   16.2357  -10.6559    7.2872 C   0  0  0  0  0  0  0  0  0  0  0  0
   16.1717  -10.9215    8.6131 N   0  0  0  0  0  0  0  0  0  0  0  0
   15.6527  -11.9945    9.1814 N   0  0  0  0  0  0  0  0  0  0  0  0
   15.8484  -11.8759   10.5223 C   0  0  0  0  0  0  0  0  0  0  0  0
   16.5076  -10.6686   10.7761 C   0  0  0  0  0  0  0  0  0  0  0  0
   16.6724  -10.1010    9.5360 C   0  0  0  0  0  0  0  0  0  0  0  0
   17.3073   -8.9523    9.2027 N   0  0  0  0  0  0  0  0  0  0  0  0
   16.3470   -5.8329    7.7810 O   0  0  0  0  0  0  0  0  0  0  0  0
   17.5649   -6.0895    7.5972 C   0  0  0  0  0  0  0  0  0  0  0  0
   18.5382   -5.1195    7.5145 O   0  0  0  0  0  0  0  0  0  0  0  0
   19.8166   -5.7324    7.3719 C   0  0  0  0  0  0  0  0  0  0  0  0
   20.4278   -5.3550    6.0111 C   0  0  0  0  0  0  0  0  0  0  0  0
   20.4796   -6.6352    5.2685 C   0  0  0  0  0  0  0  0  0  0  0  0
   20.9729   -6.8158    3.9776 C   0  0  0  0  0  0  0  0  0  0  0  0
   20.9433   -8.1055    3.4212 C   0  0  0  0  0  0  0  0  0  0  0  0
   20.4126   -9.1824    4.1547 C   0  0  0  0  0  0  0  0  0  0  0  0
   19.9326   -8.9802    5.4572 C   0  0  0  0  0  0  0  0  0  0  0  0
   19.9866   -7.6899    6.0026 C   0  0  0  0  0  0  0  0  0  0  0  0
   19.5411   -7.2695    7.3570 C   0  0  0  0  0  0  0  0  0  0  0  0
   18.0899   -7.4008    7.4984 N   0  0  0  0  0  0  0  0  0  0  0  0
   16.9445  -10.1492   12.0741 C   0  0  0  0  0  0  0  0  0  0  0  0
   16.1665   -9.2103   12.7567 C   0  0  0  0  0  0  0  0  0  0  0  0
   16.5652   -8.7475   14.0139 C   0  0  0  0  0  0  0  0  0  0  0  0
   17.7521   -9.2120   14.6030 C   0  0  0  0  0  0  0  0  0  0  0  0
   18.5490  -10.1346   13.8930 C   0  0  0  0  0  0  0  0  0  0  0  0
   19.7373  -10.5638   14.3949 F   0  0  0  0  0  0  0  0  0  0  0  0
   18.1344  -10.6103   12.6489 C   0  0  0  0  0  0  0  0  0  0  0  0
   18.1223   -8.7435   15.9521 C   0  0  0  0  0  0  0  0  0  0  0  0
   19.3582   -8.3209   16.2842 N   0  0  0  0  0  0  0  0  0  0  0  0
   19.2448   -8.0526   17.6007 C   0  0  0  0  0  0  0  0  0  0  0  0
   17.9927   -8.2811   18.0326 N   0  0  0  0  0  0  0  0  0  0  0  0
   17.2844   -8.7193   17.0039 N   0  0  0  0  0  0  0  0  0  0  0  0
   17.6616   -8.1466   18.9500 H   0  0  0  0  0  0  0  0  0  0  0  0
 10 11  2  0  0  0
 11 12  1  0  0  0
 13 12  1  0  0  0
 13 14  1  0  0  0
 14 15  1  0  0  0
 15 16  2  0  0  0
 16 17  1  0  0  0
 17 18  2  0  0  0
 18 19  1  0  0  0
 19 20  2  0  0  0
 21 20  1  0  0  0
 21 22  1  0  0  0
 22  1  1  0  0  0
  1  2  1  0  0  0
  2  3  2  0  0  0
  3  4  1  0  0  0
  4  5  1  0  0  0
  5  6  2  0  0  0
  6  7  1  0  0  0
  7 23  1  0  0  0
 23 24  2  0  0  0
 24 25  1  0  0  0
 25 26  2  0  0  0
 26 30  1  0  0  0
 30 31  1  0  0  0
 31 32  2  0  0  0
 32 33  1  0  0  0
 33 34  1  0  0  0
 26 27  1  0  0  0
 27 28  1  0  0  0
 27 29  2  0  0  0
  7  8  2  0  0  0
  8  9  1  0  0  0
 22 11  1  0  0  0
  9  1  2  0  0  0
 21 13  1  0  0  0
  8  4  1  0  0  0
 20 15  1  0  0  0
 29 23  1  0  0  0
 34 30  2  0  0  0
 33 35  1  0  0  0
M  END
>  <minimizedAffinity>
16.13958

>  <minimizedRMSD>
3.29333

$$$$
CHEMBL4441848 PubChem-155515387


 32 35  0  0  0  0  0  0  0  0999 V2000
   16.2960   -9.7965   13.2732 N   0  0  0  0  0  0  0  0  0  0  0  0
   15.0190   -9.8314   12.9241 N   0  0  0  0  0  0  0  0  0  0  0  0
   14.9020  -10.1412   11.6434 N   0  0  0  0  0  0  0  0  0  0  0  0
   16.1553  -10.2954   11.1772 C   0  0  0  0  0  0  0  0  0  0  0  0
   17.0578  -10.0919   12.2013 C   0  0  0  0  0  0  0  0  0  0  0  0
   16.3348   -8.7010   16.8527 C   0  0  0  0  0  0  0  0  0  0  0  0
   15.8849   -8.9870   15.5591 C   0  0  0  0  0  0  0  0  0  0  0  0
   16.7648   -9.5049   14.5977 C   0  0  0  0  0  0  0  0  0  0  0  0
   18.1039   -9.7360   14.9494 C   0  0  0  0  0  0  0  0  0  0  0  0
   18.5546   -9.4529   16.2418 C   0  0  0  0  0  0  0  0  0  0  0  0
   17.6706   -8.9364   17.1924 C   0  0  0  0  0  0  0  0  0  0  0  0
   14.3698   -9.1700   18.5892 O   0  0  0  0  0  0  0  0  0  0  0  0
   15.2281   -8.0597   18.0529 S   0  0  0  0  0  0  0  0  0  0  0  0
   14.3507   -7.0103   17.4296 O   0  0  0  0  0  0  0  0  0  0  0  0
   16.1264   -7.3436   19.3433 N   0  0  0  0  0  0  0  0  0  0  0  0
   15.4818   -6.9711   20.0405 H   0  0  0  0  0  0  0  0  0  0  0  0
   16.7046   -6.5876   18.9766 H   0  0  0  0  0  0  0  0  0  0  0  0
   16.4856  -10.7315    9.7898 C   0  0  0  0  0  0  0  0  0  0  0  0
   15.6650   -9.9487    8.7771 C   0  0  0  0  0  0  0  0  0  0  0  0
   16.5374   -9.3849    7.7565 N   0  0  0  0  0  0  0  0  0  0  0  0
   16.2753   -9.4738    6.8117 H   0  0  0  0  0  0  0  0  0  0  0  0
   17.7607   -8.7065    8.0674 C   0  0  0  0  0  0  0  0  0  0  0  0
   18.6351   -8.3158    7.0403 C   0  0  0  0  0  0  0  0  0  0  0  0
   18.3369   -8.5615    5.6926 C   0  0  0  0  0  0  0  0  0  0  0  0
   19.2270   -8.1625    4.6916 C   0  0  0  0  0  0  0  0  0  0  0  0
   20.4198   -7.5167    5.0295 C   0  0  0  0  0  0  0  0  0  0  0  0
   20.7280   -7.2674    6.3697 C   0  0  0  0  0  0  0  0  0  0  0  0
   19.8438   -7.6630    7.3771 C   0  0  0  0  0  0  0  0  0  0  0  0
   20.1474   -7.4214    8.6794 N   0  0  0  0  0  0  0  0  0  0  0  0
   19.3132   -7.7938    9.6855 C   0  0  0  0  0  0  0  0  0  0  0  0
   18.1105   -8.4412    9.3983 C   0  0  0  0  0  0  0  0  0  0  0  0
   21.5302   -7.0202    3.7716 Cl  0  0  0  0  0  0  0  0  0  0  0  0
 12 13  2  0  0  0
 13 14  2  0  0  0
 13  6  1  0  0  0
  6  7  2  0  0  0
  7  8  1  0  0  0
  8  1  1  0  0  0
  1  2  1  0  0  0
  2  3  2  0  0  0
  3  4  1  0  0  0
  4 18  1  0  0  0
 18 19  1  0  0  0
 19 20  1  0  0  0
 20 22  1  0  0  0
 22 23  1  0  0  0
 23 24  2  0  0  0
 24 25  1  0  0  0
 25 26  2  0  0  0
 26 27  1  0  0  0
 27 28  2  0  0  0
 28 29  1  0  0  0
 29 30  2  0  0  0
 30 31  1  0  0  0
 26 32  1  0  0  0
  4  5  2  0  0  0
  8  9  2  0  0  0
  9 10  1  0  0  0
 10 11  2  0  0  0
 13 15  1  0  0  0
 11  6  1  0  0  0
  5  1  1  0  0  0
 31 22  2  0  0  0
 28 23  1  0  0  0
 20 21  1  0  0  0
 15 16  1  0  0  0
 15 17  1  0  0  0
M  END
>  <minimizedAffinity>
-4.75958

>  <minimizedRMSD>
3.29501

$$$$
CHEMBL1401438 891495 LN01139827 MCULE-4496725884 MolPort-001-986-953 PubChem-652343 ZINC000000891495 ZINC00891495


 34 37  0  0  0  0  0  0  0  0999 V2000
   15.7363   -9.1230   16.8169 C   0  0  0  0  0  0  0  0  0  0  0  0
   15.0644   -8.4320   19.1481 N   0  0  0  0  0  0  0  0  0  0  0  0
   15.0452   -8.1785   17.7371 C   0  0  0  0  0  0  0  0  0  0  0  0
   14.4690   -7.1650   17.2609 O   0  0  0  0  0  0  0  0  0  0  0  0
   15.5236   -9.2531   19.4382 H   0  0  0  0  0  0  0  0  0  0  0  0
   13.3553   -5.5721   20.8685 C   0  0  0  0  0  0  0  0  0  0  0  0
   13.3605   -6.0153   22.1959 C   0  0  0  0  0  0  0  0  0  0  0  0
   13.9252   -7.2481   22.5212 C   0  0  0  0  0  0  0  0  0  0  0  0
   14.4932   -8.0639   21.5363 C   0  0  0  0  0  0  0  0  0  0  0  0
   14.4893   -7.6230   20.1862 C   0  0  0  0  0  0  0  0  0  0  0  0
   13.9169   -6.3784   19.8779 C   0  0  0  0  0  0  0  0  0  0  0  0
   12.7954   -4.3422   20.5042 O   0  0  0  0  0  0  0  0  0  0  0  0
   13.4436   -3.3479   22.6081 C   0  0  0  0  0  0  0  0  0  0  0  0
   12.4744   -3.3184   21.4405 C   0  0  0  0  0  0  0  0  0  0  0  0
   15.0373   -9.2848   21.9668 O   0  0  0  0  0  0  0  0  0  0  0  0
   16.1507   -9.9405   21.3774 C   0  0  0  0  0  0  0  0  0  0  0  0
   15.7868  -11.3777   21.0725 C   0  0  0  0  0  0  0  0  0  0  0  0
   17.3060   -8.4083   16.2367 S   0  0  0  0  0  0  0  0  0  0  0  0
   16.9812   -8.8257   14.5240 C   0  0  0  0  0  0  0  0  0  0  0  0
   15.9289   -8.3570   13.8258 N   0  0  0  0  0  0  0  0  0  0  0  0
   16.0197   -8.8667   12.6043 N   0  0  0  0  0  0  0  0  0  0  0  0
   17.1216   -9.6417   12.5839 C   0  0  0  0  0  0  0  0  0  0  0  0
   17.7512   -9.6280   13.7709 N   0  0  0  0  0  0  0  0  0  0  0  0
   18.9790  -10.3102   14.1480 C   0  0  0  0  0  0  0  0  0  0  0  0
   17.6151  -10.3495   11.3652 C   0  0  0  0  0  0  0  0  0  0  0  0
   18.3790   -9.4337   10.5312 N   0  0  0  0  0  0  0  0  0  0  0  0
   19.5196   -8.7871   10.8727 C   0  0  0  0  0  0  0  0  0  0  0  0
   19.9577   -7.9574    9.8868 N   0  0  0  0  0  0  0  0  0  0  0  0
   19.0366   -8.1062    8.9164 C   0  0  0  0  0  0  0  0  0  0  0  0
   18.9953   -7.4714    7.6775 C   0  0  0  0  0  0  0  0  0  0  0  0
   17.9168   -7.7818    6.8272 C   0  0  0  0  0  0  0  0  0  0  0  0
   16.9231   -8.7021    7.2320 C   0  0  0  0  0  0  0  0  0  0  0  0
   16.9952   -9.3253    8.4918 C   0  0  0  0  0  0  0  0  0  0  0  0
   18.0792   -8.9938    9.3032 C   0  0  0  0  0  0  0  0  0  0  0  0
 13 14  1  0  0  0
 14 12  1  0  0  0
 12  6  1  0  0  0
  6  7  2  0  0  0
  7  8  1  0  0  0
  8  9  2  0  0  0
  9 15  1  0  0  0
  9 10  1  0  0  0
 15 16  1  0  0  0
 16 17  1  0  0  0
 10  2  1  0  0  0
 10 11  2  0  0  0
  2  3  1  0  0  0
  3  4  2  0  0  0
  3  1  1  0  0  0
  1 18  1  0  0  0
 18 19  1  0  0  0
 19 20  2  0  0  0
 20 21  1  0  0  0
 21 22  2  0  0  0
 22 25  1  0  0  0
 22 23  1  0  0  0
 25 26  1  0  0  0
 26 27  1  0  0  0
 27 28  2  0  0  0
 28 29  1  0  0  0
 29 30  2  0  0  0
 30 31  1  0  0  0
 31 32  2  0  0  0
 32 33  1  0  0  0
 33 34  2  0  0  0
 34 26  1  0  0  0
 34 29  1  0  0  0
 23 24  1  0  0  0
 23 19  1  0  0  0
 11  6  1  0  0  0
  2  5  1  0  0  0
M  END
>  <minimizedAffinity>
1.92030

>  <minimizedRMSD>
3.29799

$$$$
CHEMBL1345424 873749 MCULE-1152987803 MolPort-000-007-299 PubChem-1132906 ZINC000000873749 ZINC00873749


 29 32  0  0  0  0  0  0  0  0999 V2000
   15.9829   -8.5645   15.9028 C   0  0  0  0  0  0  0  0  0  0  0  0
   16.1242   -7.4429   15.1722 N   0  0  0  0  0  0  0  0  0  0  0  0
   16.0080   -7.8113   13.9060 N   0  0  0  0  0  0  0  0  0  0  0  0
   15.7980   -9.1407   13.9200 C   0  0  0  0  0  0  0  0  0  0  0  0
   15.7858   -9.6130   15.1422 O   0  0  0  0  0  0  0  0  0  0  0  0
   16.0606   -8.6133   17.6888 S   0  0  0  0  0  0  0  0  0  0  0  0
   14.2535   -8.5080   17.8716 C   0  0  0  0  0  0  0  0  0  0  0  0
   14.2192   -7.0836   19.9536 N   0  0  0  0  0  0  0  0  0  0  0  0
   13.8757   -7.2493   18.5713 C   0  0  0  0  0  0  0  0  0  0  0  0
   13.2765   -6.3448   17.9318 O   0  0  0  0  0  0  0  0  0  0  0  0
   14.6860   -7.8376   20.3812 H   0  0  0  0  0  0  0  0  0  0  0  0
   14.4597   -5.8803   22.1132 C   0  0  0  0  0  0  0  0  0  0  0  0
   13.9589   -5.9414   20.7846 C   0  0  0  0  0  0  0  0  0  0  0  0
   13.2008   -4.8662   20.2930 C   0  0  0  0  0  0  0  0  0  0  0  0
   12.9361   -3.7508   21.0872 C   0  0  0  0  0  0  0  0  0  0  0  0
   13.4270   -3.6940   22.3896 C   0  0  0  0  0  0  0  0  0  0  0  0
   14.1823   -4.7522   22.8953 C   0  0  0  0  0  0  0  0  0  0  0  0
   14.8191   -8.2359   22.8991 C   0  0  0  0  0  0  0  0  0  0  0  0
   15.2299   -6.8890   22.7143 O   0  0  0  0  0  0  0  0  0  0  0  0
   15.6391   -9.9732   12.6948 C   0  0  0  0  0  0  0  0  0  0  0  0
   16.8250   -9.8596   11.8591 N   0  0  0  0  0  0  0  0  0  0  0  0
   18.1134   -9.8508   12.2783 C   0  0  0  0  0  0  0  0  0  0  0  0
   18.9892   -9.6738   11.2517 N   0  0  0  0  0  0  0  0  0  0  0  0
   18.1924   -9.5632   10.1723 C   0  0  0  0  0  0  0  0  0  0  0  0
   18.5751   -9.3564    8.8494 C   0  0  0  0  0  0  0  0  0  0  0  0
   17.5516   -9.2601    7.8873 C   0  0  0  0  0  0  0  0  0  0  0  0
   16.1941   -9.3695    8.2671 C   0  0  0  0  0  0  0  0  0  0  0  0
   15.8424   -9.5778    9.6138 C   0  0  0  0  0  0  0  0  0  0  0  0
   16.8842   -9.6704   10.5354 C   0  0  0  0  0  0  0  0  0  0  0  0
 18 19  1  0  0  0
 19 12  1  0  0  0
 12 13  2  0  0  0
 13  8  1  0  0  0
 13 14  1  0  0  0
  8  9  1  0  0  0
  9 10  2  0  0  0
  9  7  1  0  0  0
  7  6  1  0  0  0
  6  1  1  0  0  0
  1  2  2  0  0  0
  2  3  1  0  0  0
  3  4  2  0  0  0
  4 20  1  0  0  0
  4  5  1  0  0  0
 20 21  1  0  0  0
 21 22  1  0  0  0
 22 23  2  0  0  0
 23 24  1  0  0  0
 24 25  2  0  0  0
 25 26  1  0  0  0
 26 27  2  0  0  0
 27 28  1  0  0  0
 28 29  2  0  0  0
 29 21  1  0  0  0
 29 24  1  0  0  0
  5  1  1  0  0  0
 14 15  2  0  0  0
 15 16  1  0  0  0
 16 17  2  0  0  0
 17 12  1  0  0  0
  8 11  1  0  0  0
M  END
>  <minimizedAffinity>
-4.31349

>  <minimizedRMSD>
3.31147

$$$$
CHEMBL337785 PubChem-10525391


 36 38  0  0  0  0  0  0  0  0999 V2000
   18.4420   -9.2159   13.6346 C   0  0  0  0  0  0  0  0  0  0  0  0
   19.3095   -9.8426   14.6758 C   0  0  0  0  0  0  0  0  0  0  0  0
   19.9098   -9.1053   15.5033 O   0  0  0  0  0  0  0  0  0  0  0  0
   19.4543  -11.2313   14.7211 O   0  0  0  0  0  0  0  0  0  0  0  0
   18.0636  -13.1823   14.6692 C   0  0  0  0  0  0  0  0  0  0  0  0
   18.7258  -12.0896   13.8565 C   0  0  0  0  0  0  0  0  0  0  0  0
   16.9838   -9.5943   13.8493 C   0  0  0  0  0  0  0  0  0  0  0  0
   16.1892   -8.3872   14.3195 C   0  0  0  0  0  0  0  0  0  0  0  0
   15.9831   -8.4414   15.7940 C   0  0  0  0  0  0  0  0  0  0  0  0
   16.8391   -9.1955   16.6053 C   0  0  0  0  0  0  0  0  0  0  0  0
   16.6442   -9.2274   17.9882 C   0  0  0  0  0  0  0  0  0  0  0  0
   15.5965   -8.5026   18.5634 C   0  0  0  0  0  0  0  0  0  0  0  0
   14.7363   -7.7385   17.7613 C   0  0  0  0  0  0  0  0  0  0  0  0
   14.9399   -7.7119   16.3727 C   0  0  0  0  0  0  0  0  0  0  0  0
   13.6337   -6.9737   18.3749 C   0  0  0  0  0  0  0  0  0  0  0  0
   12.5410   -6.7556   17.7192 N   0  0  0  0  0  0  0  0  0  0  0  0
   13.7610   -6.4668   19.7005 N   0  0  0  0  0  0  0  0  0  0  0  0
   12.4399   -7.1002   16.8025 H   0  0  0  0  0  0  0  0  0  0  0  0
   14.5877   -6.6256   20.2110 H   0  0  0  0  0  0  0  0  0  0  0  0
   13.0222   -5.9577   20.1059 H   0  0  0  0  0  0  0  0  0  0  0  0
   18.9032   -9.6505   12.2500 C   0  0  0  0  0  0  0  0  0  0  0  0
   17.7659   -9.8073   11.3527 N   0  0  0  0  0  0  0  0  0  0  0  0
   16.6088  -10.4551   11.6275 C   0  0  0  0  0  0  0  0  0  0  0  0
   15.7459  -10.4402   10.5751 N   0  0  0  0  0  0  0  0  0  0  0  0
   16.4157   -9.7581    9.6273 C   0  0  0  0  0  0  0  0  0  0  0  0
   15.9890   -9.4511    8.3392 C   0  0  0  0  0  0  0  0  0  0  0  0
   16.8736   -8.7238    7.5209 C   0  0  0  0  0  0  0  0  0  0  0  0
   18.1483   -8.3237    7.9958 C   0  0  0  0  0  0  0  0  0  0  0  0
   18.5402   -8.6582    9.3110 C   0  0  0  0  0  0  0  0  0  0  0  0
   17.6365   -9.3771   10.0909 C   0  0  0  0  0  0  0  0  0  0  0  0
   19.0558   -7.5615    7.1171 C   0  0  0  0  0  0  0  0  0  0  0  0
   19.9117   -8.1744    6.3665 N   0  0  0  0  0  0  0  0  0  0  0  0
   18.9995   -6.1381    7.0869 N   0  0  0  0  0  0  0  0  0  0  0  0
   19.9610   -9.1576    6.3777 H   0  0  0  0  0  0  0  0  0  0  0  0
   18.3525   -5.6590    7.6534 H   0  0  0  0  0  0  0  0  0  0  0  0
   19.6077   -5.6338    6.4995 H   0  0  0  0  0  0  0  0  0  0  0  0
  5  6  1  0  0  0
  6  4  1  0  0  0
  4  2  1  0  0  0
  2  3  2  0  0  0
  1  2  1  0  0  0
  1  7  1  0  0  0
  1 21  1  0  0  0
  7  8  1  0  0  0
  8  9  1  0  0  0
  9 10  2  0  0  0
 10 11  1  0  0  0
 11 12  2  0  0  0
 12 13  1  0  0  0
 13 15  1  0  0  0
 13 14  2  0  0  0
 15 16  2  0  0  0
 15 17  1  0  0  0
 14  9  1  0  0  0
 21 22  1  0  0  0
 22 23  1  0  0  0
 23 24  2  0  0  0
 24 25  1  0  0  0
 25 26  2  0  0  0
 26 27  1  0  0  0
 27 28  2  0  0  0
 28 31  1  0  0  0
 28 29  1  0  0  0
 31 32  2  0  0  0
 31 33  1  0  0  0
 29 30  2  0  0  0
 30 22  1  0  0  0
 30 25  1  0  0  0
 16 18  1  0  0  0
 17 19  1  0  0  0
 17 20  1  0  0  0
 32 34  1  0  0  0
 33 35  1  0  0  0
 33 36  1  0  0  0
M  END
>  <minimizedAffinity>
-3.84551

>  <minimizedRMSD>
3.31161

$$$$
CHEMBL4796418


 36 40  0  0  0  0  0  0  0  0999 V2000
   21.1458   -7.6992    9.7462 C   0  0  0  0  0  0  0  0  0  0  0  0
   21.4228   -7.8750   11.1175 C   0  0  0  0  0  0  0  0  0  0  0  0
   20.5264   -8.5065   11.9308 N   0  0  0  0  0  0  0  0  0  0  0  0
   19.3659   -8.9678   11.4030 C   0  0  0  0  0  0  0  0  0  0  0  0
   19.0565   -8.8190   10.0788 C   0  0  0  0  0  0  0  0  0  0  0  0
   19.9330   -8.1647    9.2025 C   0  0  0  0  0  0  0  0  0  0  0  0
   17.8444   -9.4387    9.8631 C   0  0  0  0  0  0  0  0  0  0  0  0
   17.4949   -9.9140   11.1265 C   0  0  0  0  0  0  0  0  0  0  0  0
   18.4176   -9.6329   12.0773 N   0  0  0  0  0  0  0  0  0  0  0  0
   18.3967   -9.8621   13.0345 H   0  0  0  0  0  0  0  0  0  0  0  0
   19.6528   -7.9714    7.7651 C   0  0  0  0  0  0  0  0  0  0  0  0
   20.3207   -7.0909    6.9106 C   0  0  0  0  0  0  0  0  0  0  0  0
   19.7541   -7.1513    5.6800 N   0  0  0  0  0  0  0  0  0  0  0  0
   18.7633   -8.0205    5.7519 N   0  0  0  0  0  0  0  0  0  0  0  0
   18.6602   -8.5302    6.9832 C   0  0  0  0  0  0  0  0  0  0  0  0
   17.6317   -9.4125    7.2997 C   0  0  0  0  0  0  0  0  0  0  0  0
   16.7468   -9.7580    6.2687 C   0  0  0  0  0  0  0  0  0  0  0  0
   16.9137   -9.2032    4.9869 C   0  0  0  0  0  0  0  0  0  0  0  0
   17.9322   -8.3265    4.7580 N   0  0  0  0  0  0  0  0  0  0  0  0
   16.2215  -10.6308   11.4255 C   0  0  0  0  0  0  0  0  0  0  0  0
   15.4333   -9.8765   12.3913 N   0  0  0  0  0  0  0  0  0  0  0  0
   15.7977   -9.7635   13.7686 C   0  0  0  0  0  0  0  0  0  0  0  0
   16.7994  -10.3852   14.2194 O   0  0  0  0  0  0  0  0  0  0  0  0
   14.6147   -9.4255   12.0818 H   0  0  0  0  0  0  0  0  0  0  0  0
   14.9922   -8.8844   14.6661 C   0  0  0  0  0  0  0  0  0  0  0  0
   14.3179   -9.7070   15.7770 C   0  0  0  0  0  0  0  0  0  0  0  0
   15.0546   -9.5791   17.1068 C   0  0  0  0  0  0  0  0  0  0  0  0
   15.0782   -8.1170   17.5709 C   0  0  0  0  0  0  0  0  0  0  0  0
   15.2533   -7.0953   16.4342 C   0  0  0  0  0  0  0  0  0  0  0  0
   15.8576   -7.7263   15.1828 C   0  0  0  0  0  0  0  0  0  0  0  0
   16.0745   -7.9177   18.6188 N   0  0  0  0  0  0  0  0  0  0  0  0
   15.8131   -7.3065   19.8901 C   0  0  0  0  0  0  0  0  0  0  0  0
   14.6624   -6.8774   20.1692 O   0  0  0  0  0  0  0  0  0  0  0  0
   16.9926   -8.2251   18.4402 H   0  0  0  0  0  0  0  0  0  0  0  0
   16.8822   -7.1685   20.8829 C   0  0  0  0  0  0  0  0  0  0  0  0
   17.8708   -6.2971   20.7306 C   0  0  0  0  0  0  0  0  0  0  0  0
  1  2  2  0  0  0
  2  3  1  0  0  0
  3  4  2  0  0  0
  4  5  1  0  0  0
  5  6  2  0  0  0
  6 11  1  0  0  0
 11 12  1  0  0  0
 12 13  2  0  0  0
 13 14  1  0  0  0
 14 15  1  0  0  0
 15 16  1  0  0  0
 16 17  2  0  0  0
 17 18  1  0  0  0
 18 19  2  0  0  0
  5  7  1  0  0  0
  7  8  2  0  0  0
  8  9  1  0  0  0
  8 20  1  0  0  0
 20 21  1  0  0  0
 21 22  1  0  0  0
 22 23  2  0  0  0
 25 22  1  0  0  0
 25 26  1  0  0  0
 26 27  1  0  0  0
 27 28  1  0  0  0
 28 29  1  0  0  0
 29 30  1  0  0  0
 28 31  1  0  0  0
 31 32  1  0  0  0
 32 33  2  0  0  0
 32 35  1  0  0  0
 35 36  2  0  0  0
  6  1  1  0  0  0
 15 11  2  0  0  0
 30 25  1  0  0  0
  9  4  1  0  0  0
 19 14  1  0  0  0
  9 10  1  0  0  0
 21 24  1  0  0  0
 31 34  1  0  0  0
M  END
>  <minimizedAffinity>
13.63631

>  <minimizedRMSD>
3.31435

$$$$
CHEMBL2037395 6446986 MCULE-5080914763 MolPort-001-959-311 PubChem-3128681 ZINC000006446986 ZINC06446986


 30 33  0  0  0  0  0  0  0  0999 V2000
   16.7235  -10.5472   15.6555 S   0  0  0  0  0  0  0  0  0  0  0  0
   17.2747  -10.3481   13.9657 C   0  0  0  0  0  0  0  0  0  0  0  0
   18.5479  -10.5161   13.5632 N   0  0  0  0  0  0  0  0  0  0  0  0
   18.5553  -10.2860   12.2597 N   0  0  0  0  0  0  0  0  0  0  0  0
   17.2869   -9.9852   11.9248 C   0  0  0  0  0  0  0  0  0  0  0  0
   16.4920  -10.0257   12.9656 O   0  0  0  0  0  0  0  0  0  0  0  0
   16.8393   -9.6841   10.5361 C   0  0  0  0  0  0  0  0  0  0  0  0
   17.8593   -8.9134    9.8411 N   0  0  0  0  0  0  0  0  0  0  0  0
   18.8049   -8.1250   10.4068 C   0  0  0  0  0  0  0  0  0  0  0  0
   19.5729   -7.4925    9.4780 N   0  0  0  0  0  0  0  0  0  0  0  0
   19.0608   -7.9120    8.3059 C   0  0  0  0  0  0  0  0  0  0  0  0
   19.4696   -7.5573    7.0228 C   0  0  0  0  0  0  0  0  0  0  0  0
   18.7656   -8.1197    5.9409 C   0  0  0  0  0  0  0  0  0  0  0  0
   17.6874   -9.0059    6.1666 C   0  0  0  0  0  0  0  0  0  0  0  0
   17.2996   -9.3423    7.4769 C   0  0  0  0  0  0  0  0  0  0  0  0
   18.0229   -8.7671    8.5207 C   0  0  0  0  0  0  0  0  0  0  0  0
   15.7666   -8.9999   15.6336 C   0  0  0  0  0  0  0  0  0  0  0  0
   14.5041   -7.8574   17.4958 N   0  0  0  0  0  0  0  0  0  0  0  0
   15.7353   -8.3913   16.9920 C   0  0  0  0  0  0  0  0  0  0  0  0
   16.7882   -8.3702   17.6826 O   0  0  0  0  0  0  0  0  0  0  0  0
   13.7304   -7.8821   16.8874 H   0  0  0  0  0  0  0  0  0  0  0  0
   13.7809   -6.1499   21.3186 C   0  0  0  0  0  0  0  0  0  0  0  0
   14.8193   -7.0764   21.1546 C   0  0  0  0  0  0  0  0  0  0  0  0
   15.0684   -7.6438   19.9019 C   0  0  0  0  0  0  0  0  0  0  0  0
   14.2831   -7.2912   18.7946 C   0  0  0  0  0  0  0  0  0  0  0  0
   13.2467   -6.3668   18.9580 C   0  0  0  0  0  0  0  0  0  0  0  0
   12.9959   -5.7986   20.2103 C   0  0  0  0  0  0  0  0  0  0  0  0
   13.9532   -6.2079   23.7491 O   0  0  0  0  0  0  0  0  0  0  0  0
   13.5268   -5.5715   22.6060 N   0  0  0  0  0  0  0  0  0  0  0  0
   12.9101   -4.4906   22.7057 O   0  0  0  0  0  0  0  0  0  0  0  0
 28 29  1  0  0  0
 29 30  2  0  0  0
 29 22  1  0  0  0
 22 23  2  0  0  0
 23 24  1  0  0  0
 24 25  2  0  0  0
 25 18  1  0  0  0
 25 26  1  0  0  0
 18 19  1  0  0  0
 19 20  2  0  0  0
 19 17  1  0  0  0
 17  1  1  0  0  0
  1  2  1  0  0  0
  2  3  2  0  0  0
  3  4  1  0  0  0
  4  5  2  0  0  0
  5  7  1  0  0  0
  5  6  1  0  0  0
  7  8  1  0  0  0
  8  9  1  0  0  0
  9 10  2  0  0  0
 10 11  1  0  0  0
 11 12  2  0  0  0
 12 13  1  0  0  0
 13 14  2  0  0  0
 14 15  1  0  0  0
 15 16  2  0  0  0
 16  8  1  0  0  0
 16 11  1  0  0  0
  6  2  1  0  0  0
 26 27  2  0  0  0
 27 22  1  0  0  0
 18 21  1  0  0  0
M  CHG 1  28  -1
M  CHG 1  29   1
M  END
>  <minimizedAffinity>
-7.05875

>  <minimizedRMSD>
3.31819

$$$$
CHEMBL5272198


 34 39  0  0  0  0  0  0  0  0999 V2000
   16.4487   -9.5801   15.3843 C   0  0  0  0  0  0  0  0  0  0  0  0
   16.8091   -8.8641   14.0744 C   0  0  0  0  0  0  0  0  0  0  0  0
   17.2223   -9.8157   13.0403 N   0  0  0  0  0  0  0  0  0  0  0  0
   18.2431  -10.8292   13.3468 C   0  0  0  0  0  0  0  0  0  0  0  0
   18.5603  -10.8970   14.8398 C   0  0  0  0  0  0  0  0  0  0  0  0
   17.2586  -10.8779   15.6272 C   0  0  0  0  0  0  0  0  0  0  0  0
   17.4971  -11.2071   17.0924 C   0  0  0  0  0  0  0  0  0  0  0  0
   16.7536   -9.6716   11.6837 C   0  0  0  0  0  0  0  0  0  0  0  0
   15.4720   -9.9594   11.3209 N   0  0  0  0  0  0  0  0  0  0  0  0
   15.0283   -9.8348   10.0709 C   0  0  0  0  0  0  0  0  0  0  0  0
   15.8325   -9.4098    9.0676 N   0  0  0  0  0  0  0  0  0  0  0  0
   17.1358   -9.1010    9.3440 C   0  0  0  0  0  0  0  0  0  0  0  0
   17.6195   -9.2316   10.6660 C   0  0  0  0  0  0  0  0  0  0  0  0
   13.7419  -10.1954    9.9414 N   0  0  0  0  0  0  0  0  0  0  0  0
   13.4315  -10.5565   11.2155 C   0  0  0  0  0  0  0  0  0  0  0  0
   14.4830  -10.4190   12.0616 N   0  0  0  0  0  0  0  0  0  0  0  0
   18.0278   -8.6371    8.2597 C   0  0  0  0  0  0  0  0  0  0  0  0
   17.8420   -9.1003    6.9478 C   0  0  0  0  0  0  0  0  0  0  0  0
   18.6804   -8.6671    5.9165 C   0  0  0  0  0  0  0  0  0  0  0  0
   19.7132   -7.7661    6.1874 C   0  0  0  0  0  0  0  0  0  0  0  0
   19.9079   -7.2981    7.4892 C   0  0  0  0  0  0  0  0  0  0  0  0
   19.0694   -7.7312    8.5204 C   0  0  0  0  0  0  0  0  0  0  0  0
   16.4706   -8.6449   16.5133 N   0  0  0  0  0  0  0  0  0  0  0  0
   17.7879   -8.2956   17.0230 C   0  0  0  0  0  0  0  0  0  0  0  0
   15.2587   -8.1361   17.1214 C   0  0  0  0  0  0  0  0  0  0  0  0
   15.1709   -7.7891   18.4779 C   0  0  0  0  0  0  0  0  0  0  0  0
   14.0027   -7.3088   18.9834 C   0  0  0  0  0  0  0  0  0  0  0  0
   14.0949   -7.0195   20.2878 N   0  0  0  0  0  0  0  0  0  0  0  0
   15.3743   -7.3299   20.6107 C   0  0  0  0  0  0  0  0  0  0  0  0
   16.0844   -7.8127   19.5092 C   0  0  0  0  0  0  0  0  0  0  0  0
   12.8974   -7.1466   18.2184 N   0  0  0  0  0  0  0  0  0  0  0  0
   12.9678   -7.4779   16.8973 C   0  0  0  0  0  0  0  0  0  0  0  0
   14.1318   -7.9620   16.3653 N   0  0  0  0  0  0  0  0  0  0  0  0
   13.3927   -6.6624   20.8782 H   0  0  0  0  0  0  0  0  0  0  0  0
 25 26  1  0  0  0
 26 27  2  0  0  0
 27 28  1  0  0  0
 28 29  1  0  0  0
 29 30  2  0  0  0
 27 31  1  0  0  0
 31 32  2  0  0  0
 32 33  1  0  0  0
 25 23  1  0  0  0
  1 23  1  0  0  0
  1  2  1  0  0  0
  2  3  1  0  0  0
  3  8  1  0  0  0
  8  9  1  0  0  0
  9 10  1  0  0  0
 10 11  1  0  0  0
 11 12  2  0  0  0
 12 13  1  0  0  0
 12 17  1  0  0  0
 17 18  2  0  0  0
 18 19  1  0  0  0
 19 20  2  0  0  0
 20 21  1  0  0  0
 21 22  2  0  0  0
 10 14  2  0  0  0
 14 15  1  0  0  0
 15 16  2  0  0  0
  3  4  1  0  0  0
  4  5  1  0  0  0
  5  6  1  0  0  0
  6  7  1  0  0  0
 23 24  1  0  0  0
 33 25  2  0  0  0
  6  1  1  0  0  0
 30 26  1  0  0  0
 13  8  2  0  0  0
 22 17  1  0  0  0
 16  9  1  0  0  0
 28 34  1  0  0  0
M  END
>  <minimizedAffinity>
-5.63170

>  <minimizedRMSD>
3.32015

$$$$
CHEMBL517094


 40 43  0  0  0  0  0  0  0  0999 V2000
   18.4801   -8.2214    8.1665 C   0  0  0  0  0  0  0  0  0  0  0  0
   17.5131   -9.0206    7.6021 N   0  0  0  0  0  0  0  0  0  0  0  0
   16.8693   -9.9866    8.3215 C   0  0  0  0  0  0  0  0  0  0  0  0
   15.8295  -10.8391    7.6835 C   0  0  0  0  0  0  0  0  0  0  0  0
   17.2220  -10.1387    9.6547 C   0  0  0  0  0  0  0  0  0  0  0  0
   18.1717   -9.3414   10.1952 C   0  0  0  0  0  0  0  0  0  0  0  0
   18.8146   -8.3839    9.4857 N   0  0  0  0  0  0  0  0  0  0  0  0
   18.3489   -9.6639   11.4796 N   0  0  0  0  0  0  0  0  0  0  0  0
   17.4788  -10.6870   11.6782 C   0  0  0  0  0  0  0  0  0  0  0  0
   16.7572  -11.0117   10.5697 N   0  0  0  0  0  0  0  0  0  0  0  0
   17.2881  -11.5447   13.2416 S   0  0  0  0  0  0  0  0  0  0  0  0
   16.1636  -10.2842   13.9234 C   0  0  0  0  0  0  0  0  0  0  0  0
   15.3888   -9.6213   12.8362 C   0  0  0  0  0  0  0  0  0  0  0  0
   15.5189   -8.3822   12.6499 O   0  0  0  0  0  0  0  0  0  0  0  0
   14.5060  -10.3914   12.0169 N   0  0  0  0  0  0  0  0  0  0  0  0
   14.3796  -11.3455   12.2243 H   0  0  0  0  0  0  0  0  0  0  0  0
   13.7870   -9.8198   10.8885 C   0  0  0  0  0  0  0  0  0  0  0  0
   12.4202  -10.4660   10.7634 C   0  0  0  0  0  0  0  0  0  0  0  0
   12.2909  -11.5197   11.7525 N   0  0  0  0  0  0  0  0  0  0  0  0
   13.0144  -12.2219   11.5977 H   0  0  0  0  0  0  0  0  0  0  0  0
   11.3719  -11.9541   11.6683 H   0  0  0  0  0  0  0  0  0  0  0  0
   19.3031   -9.0955   12.4197 C   0  0  0  0  0  0  0  0  0  0  0  0
   19.6628  -10.1243   13.4737 C   0  0  0  0  0  0  0  0  0  0  0  0
   19.6304   -9.5033   14.7863 N   0  0  0  0  0  0  0  0  0  0  0  0
   20.3056   -8.8229   15.0107 H   0  0  0  0  0  0  0  0  0  0  0  0
   18.6462   -9.8526   15.7604 C   0  0  0  0  0  0  0  0  0  0  0  0
   18.7279  -11.0203   16.4681 N   0  0  0  0  0  0  0  0  0  0  0  0
   17.7783  -11.3549   17.3999 C   0  0  0  0  0  0  0  0  0  0  0  0
   16.7209  -10.5218   17.6429 N   0  0  0  0  0  0  0  0  0  0  0  0
   16.6452   -9.3670   16.9386 C   0  0  0  0  0  0  0  0  0  0  0  0
   17.5670   -9.0192   16.0188 C   0  0  0  0  0  0  0  0  0  0  0  0
   17.2528   -7.8371   15.4729 N   0  0  0  0  0  0  0  0  0  0  0  0
   16.0995   -7.5073   16.1185 C   0  0  0  0  0  0  0  0  0  0  0  0
   15.6933   -8.4312   17.0330 N   0  0  0  0  0  0  0  0  0  0  0  0
   14.9001   -8.4148   17.6159 H   0  0  0  0  0  0  0  0  0  0  0  0
   19.1366   -7.2150    7.3751 N   0  0  0  0  0  0  0  0  0  0  0  0
   18.5910   -5.8678    7.2738 C   0  0  0  0  0  0  0  0  0  0  0  0
   18.1126   -5.3918    8.6332 C   0  0  0  0  0  0  0  0  0  0  0  0
   20.2610   -7.5553    6.5135 C   0  0  0  0  0  0  0  0  0  0  0  0
   19.7826   -7.7788    5.0907 C   0  0  0  0  0  0  0  0  0  0  0  0
  1  2  2  0  0  0
  2  3  1  0  0  0
  3  4  1  0  0  0
  3  5  2  0  0  0
  5  6  1  0  0  0
  6  7  2  0  0  0
  6  8  1  0  0  0
  8  9  1  0  0  0
  9 10  2  0  0  0
  9 11  1  0  0  0
 11 12  1  0  0  0
 12 13  1  0  0  0
 13 14  2  0  0  0
 13 15  1  0  0  0
 15 17  1  0  0  0
 17 18  1  0  0  0
 18 19  1  0  0  0
  8 22  1  0  0  0
 22 23  1  0  0  0
 23 24  1  0  0  0
 24 26  1  0  0  0
 26 27  2  0  0  0
 27 28  1  0  0  0
 28 29  2  0  0  0
 29 30  1  0  0  0
 30 31  2  0  0  0
 31 32  1  0  0  0
 32 33  2  0  0  0
 33 34  1  0  0  0
  1 36  1  0  0  0
 36 37  1  0  0  0
 37 38  1  0  0  0
 36 39  1  0  0  0
 39 40  1  0  0  0
  7  1  1  0  0  0
 31 26  1  0  0  0
 10  5  1  0  0  0
 34 30  1  0  0  0
 15 16  1  0  0  0
 19 20  1  0  0  0
 19 21  1  0  0  0
 24 25  1  0  0  0
 34 35  1  0  0  0
M  END
>  <minimizedAffinity>
5.60423

>  <minimizedRMSD>
3.32021

$$$$
CHEMBL5091006


 33 35  0  0  0  0  0  0  0  0999 V2000
   17.9703  -10.2076   13.9514 C   0  0  0  0  0  0  0  0  0  0  0  0
   17.0074  -10.0057   12.8795 N   0  0  0  0  0  0  0  0  0  0  0  0
   16.0526  -10.1554   13.0672 H   0  0  0  0  0  0  0  0  0  0  0  0
   17.3931   -9.5984   11.5643 C   0  0  0  0  0  0  0  0  0  0  0  0
   18.6399   -8.9916   11.3039 C   0  0  0  0  0  0  0  0  0  0  0  0
   18.9844   -8.5949    9.9919 C   0  0  0  0  0  0  0  0  0  0  0  0
   18.0906   -8.7958    8.9161 C   0  0  0  0  0  0  0  0  0  0  0  0
   16.8645   -9.4007    9.2207 C   0  0  0  0  0  0  0  0  0  0  0  0
   16.5363   -9.7810   10.4821 C   0  0  0  0  0  0  0  0  0  0  0  0
   15.3101  -10.3226   10.4592 N   0  0  0  0  0  0  0  0  0  0  0  0
   14.9464  -10.2516    9.2025 O   0  0  0  0  0  0  0  0  0  0  0  0
   15.8388   -9.7074    8.4124 N   0  0  0  0  0  0  0  0  0  0  0  0
   18.4389   -8.3923    7.5822 N   0  0  0  0  0  0  0  0  0  0  0  0
   18.2023   -9.1469    6.6160 O   0  0  0  0  0  0  0  0  0  0  0  0
   19.0356   -7.1754    7.3456 O   0  0  0  0  0  0  0  0  0  0  0  0
   17.8750   -9.0580   14.9389 C   0  0  0  0  0  0  0  0  0  0  0  0
   16.5304   -8.9154   15.3786 O   0  0  0  0  0  0  0  0  0  0  0  0
   15.4803   -8.0944   19.3649 C   0  0  0  0  0  0  0  0  0  0  0  0
   16.5967   -8.8840   19.0849 C   0  0  0  0  0  0  0  0  0  0  0  0
   16.9519   -9.1608   17.7676 C   0  0  0  0  0  0  0  0  0  0  0  0
   16.1914   -8.6502   16.7090 C   0  0  0  0  0  0  0  0  0  0  0  0
   15.0683   -7.8573   16.9808 C   0  0  0  0  0  0  0  0  0  0  0  0
   14.6951   -7.5661   18.3144 C   0  0  0  0  0  0  0  0  0  0  0  0
   14.3541   -7.3702   15.9334 F   0  0  0  0  0  0  0  0  0  0  0  0
   15.1745   -7.8647   20.6660 F   0  0  0  0  0  0  0  0  0  0  0  0
   13.5009   -6.7227   18.6003 C   0  0  0  0  0  0  0  0  0  0  0  0
   13.0348   -5.9525   17.7194 O   0  0  0  0  0  0  0  0  0  0  0  0
   12.8599   -6.7634   19.8721 N   0  0  0  0  0  0  0  0  0  0  0  0
   13.2043   -7.3569   20.5781 H   0  0  0  0  0  0  0  0  0  0  0  0
   12.0727   -6.1980   20.0449 H   0  0  0  0  0  0  0  0  0  0  0  0
   17.6780  -11.5286   14.6456 C   0  0  0  0  0  0  0  0  0  0  0  0
   18.5296  -12.6512   14.0733 C   0  0  0  0  0  0  0  0  0  0  0  0
   19.6115  -12.0956   13.1669 C   0  0  0  0  0  0  0  0  0  0  0  0
 18 19  2  0  0  0
 19 20  1  0  0  0
 20 21  2  0  0  0
 21 22  1  0  0  0
 22 23  2  0  0  0
 23 26  1  0  0  0
 26 27  2  0  0  0
 26 28  1  0  0  0
 22 24  1  0  0  0
 21 17  1  0  0  0
 17 16  1  0  0  0
 16  1  1  0  0  0
  1  2  1  0  0  0
  2  4  1  0  0  0
  4  5  2  0  0  0
  5  6  1  0  0  0
  6  7  2  0  0  0
  7  8  1  0  0  0
  8  9  1  0  0  0
  9 10  2  0  0  0
 10 11  1  0  0  0
 11 12  1  0  0  0
  7 13  1  0  0  0
 13 14  2  0  0  0
 13 15  1  0  0  0
  1 31  1  0  0  0
 31 32  1  0  0  0
 32 33  1  0  0  0
 18 25  1  0  0  0
 23 18  1  0  0  0
  9  4  1  0  0  0
 12  8  2  0  0  0
 28 29  1  0  0  0
 28 30  1  0  0  0
  2  3  1  0  0  0
M  CHG 1  13   1
M  CHG 1  15  -1
M  END
>  <minimizedAffinity>
-2.64159

>  <minimizedRMSD>
3.33109

$$$$
CHEMBL5282995 PubChem-155814866


 36 39  0  0  0  0  0  0  0  0999 V2000
   16.5289   -9.5767   14.1912 C   0  0  0  0  0  0  0  0  0  0  0  0
   16.1453  -10.6645   14.7018 O   0  0  0  0  0  0  0  0  0  0  0  0
   16.4711   -8.3544   14.9371 N   0  0  0  0  0  0  0  0  0  0  0  0
   16.8117   -7.5474   14.4877 H   0  0  0  0  0  0  0  0  0  0  0  0
   15.9691   -8.1837   16.2697 C   0  0  0  0  0  0  0  0  0  0  0  0
   16.8106   -8.4766   17.3483 C   0  0  0  0  0  0  0  0  0  0  0  0
   16.3590   -8.3181   18.6616 C   0  0  0  0  0  0  0  0  0  0  0  0
   15.0589   -7.8642   18.9061 C   0  0  0  0  0  0  0  0  0  0  0  0
   14.2126   -7.5699   17.8329 C   0  0  0  0  0  0  0  0  0  0  0  0
   14.6655   -7.7286   16.5205 C   0  0  0  0  0  0  0  0  0  0  0  0
   14.4893   -7.6517   20.5518 S   0  0  0  0  0  0  0  0  0  0  0  0
   15.1715   -6.4757   21.1934 O   0  0  0  0  0  0  0  0  0  0  0  0
   14.7991   -8.8904   21.3434 O   0  0  0  0  0  0  0  0  0  0  0  0
   12.7783   -7.3839   20.5507 N   0  0  0  0  0  0  0  0  0  0  0  0
   12.1865   -8.1110   20.8513 H   0  0  0  0  0  0  0  0  0  0  0  0
   12.1905   -6.1515   20.1316 C   0  0  0  0  0  0  0  0  0  0  0  0
   12.0904   -5.8439   18.8093 N   0  0  0  0  0  0  0  0  0  0  0  0
   11.5285   -4.6753   18.4044 C   0  0  0  0  0  0  0  0  0  0  0  0
   11.0448   -3.7713   19.3484 C   0  0  0  0  0  0  0  0  0  0  0  0
   11.1559   -4.1019   20.6980 C   0  0  0  0  0  0  0  0  0  0  0  0
   11.7238   -5.2804   21.0647 N   0  0  0  0  0  0  0  0  0  0  0  0
   17.0713   -9.5342   12.7946 C   0  0  0  0  0  0  0  0  0  0  0  0
   16.4110  -10.5394   11.8552 C   0  0  0  0  0  0  0  0  0  0  0  0
   17.4052   -8.1923    6.3659 C   0  0  0  0  0  0  0  0  0  0  0  0
   17.8675   -8.4741    7.7192 N   0  0  0  0  0  0  0  0  0  0  0  0
   17.0671   -9.1338    8.5948 C   0  0  0  0  0  0  0  0  0  0  0  0
   17.4581   -9.4122    9.8572 C   0  0  0  0  0  0  0  0  0  0  0  0
   18.7157   -9.0272   10.3061 C   0  0  0  0  0  0  0  0  0  0  0  0
   19.0916   -9.2871   11.4821 O   0  0  0  0  0  0  0  0  0  0  0  0
   19.5342   -8.3590    9.4297 N   0  0  0  0  0  0  0  0  0  0  0  0
   19.1152   -8.0825    8.1432 C   0  0  0  0  0  0  0  0  0  0  0  0
   19.8819   -7.4664    7.3501 O   0  0  0  0  0  0  0  0  0  0  0  0
   20.8623   -7.9375    9.8646 C   0  0  0  0  0  0  0  0  0  0  0  0
   16.4644  -10.0639   10.4790 N   0  0  0  0  0  0  0  0  0  0  0  0
   15.4766  -10.1594    9.5551 C   0  0  0  0  0  0  0  0  0  0  0  0
   15.8203   -9.5912    8.3669 N   0  0  0  0  0  0  0  0  0  0  0  0
 24 25  1  0  0  0
 25 26  1  0  0  0
 26 27  2  0  0  0
 27 28  1  0  0  0
 28 29  2  0  0  0
 28 30  1  0  0  0
 30 31  1  0  0  0
 31 32  2  0  0  0
 30 33  1  0  0  0
 27 34  1  0  0  0
 34 35  1  0  0  0
 35 36  2  0  0  0
 34 23  1  0  0  0
 23 22  1  0  0  0
 22  1  1  0  0  0
  1  2  2  0  0  0
  1  3  1  0  0  0
  3  5  1  0  0  0
  5  6  2  0  0  0
  6  7  1  0  0  0
  7  8  2  0  0  0
  8  9  1  0  0  0
  9 10  2  0  0  0
  8 11  1  0  0  0
 11 12  2  0  0  0
 11 13  2  0  0  0
 11 14  1  0  0  0
 14 16  1  0  0  0
 16 17  2  0  0  0
 17 18  1  0  0  0
 18 19  2  0  0  0
 19 20  1  0  0  0
 20 21  2  0  0  0
 31 25  1  0  0  0
 36 26  1  0  0  0
 10  5  1  0  0  0
 21 16  1  0  0  0
  3  4  1  0  0  0
 14 15  1  0  0  0
M  END
>  <minimizedAffinity>
-2.77078

>  <minimizedRMSD>
3.34161

$$$$
CHEMBL517094


 40 43  0  0  0  0  0  0  0  0999 V2000
   19.8609   -6.7850    5.3401 C   0  0  0  0  0  0  0  0  0  0  0  0
   19.1954   -7.4944    4.3673 N   0  0  0  0  0  0  0  0  0  0  0  0
   18.3406   -8.5131    4.6789 C   0  0  0  0  0  0  0  0  0  0  0  0
   17.6383   -9.2663    3.6046 C   0  0  0  0  0  0  0  0  0  0  0  0
   18.1604   -8.8148    6.0212 C   0  0  0  0  0  0  0  0  0  0  0  0
   18.8222   -8.1068    6.9647 C   0  0  0  0  0  0  0  0  0  0  0  0
   19.6738   -7.0987    6.6610 N   0  0  0  0  0  0  0  0  0  0  0  0
   18.5064   -8.5716    8.1770 N   0  0  0  0  0  0  0  0  0  0  0  0
   17.6425   -9.5872    7.9182 C   0  0  0  0  0  0  0  0  0  0  0  0
   17.3992   -9.7698    6.5906 N   0  0  0  0  0  0  0  0  0  0  0  0
   16.9002  -10.6140    9.1853 S   0  0  0  0  0  0  0  0  0  0  0  0
   15.5769   -9.4014    9.5062 C   0  0  0  0  0  0  0  0  0  0  0  0
   14.5916   -9.8716   10.5309 C   0  0  0  0  0  0  0  0  0  0  0  0
   14.9310  -10.0307   11.7355 O   0  0  0  0  0  0  0  0  0  0  0  0
   13.2533  -10.1483   10.1205 N   0  0  0  0  0  0  0  0  0  0  0  0
   13.0089  -10.0248    9.1748 H   0  0  0  0  0  0  0  0  0  0  0  0
   12.2394  -10.6072   11.0568 C   0  0  0  0  0  0  0  0  0  0  0  0
   10.9656   -9.8039   10.8747 C   0  0  0  0  0  0  0  0  0  0  0  0
   11.2805   -8.4884   10.3457 N   0  0  0  0  0  0  0  0  0  0  0  0
   11.8933   -7.9977   10.9971 H   0  0  0  0  0  0  0  0  0  0  0  0
   10.4191   -7.9562   10.2228 H   0  0  0  0  0  0  0  0  0  0  0  0
   19.0382   -8.1404    9.4612 C   0  0  0  0  0  0  0  0  0  0  0  0
   19.1300   -9.3224   10.4055 C   0  0  0  0  0  0  0  0  0  0  0  0
   18.1652   -9.1587   11.4786 N   0  0  0  0  0  0  0  0  0  0  0  0
   17.5183   -8.4181   11.4306 H   0  0  0  0  0  0  0  0  0  0  0  0
   18.1273  -10.0402   12.6015 C   0  0  0  0  0  0  0  0  0  0  0  0
   18.7810  -11.2417   12.5862 N   0  0  0  0  0  0  0  0  0  0  0  0
   18.7418  -12.0860   13.6669 C   0  0  0  0  0  0  0  0  0  0  0  0
   18.0429  -11.7419   14.7912 N   0  0  0  0  0  0  0  0  0  0  0  0
   17.3975  -10.5507   14.8003 C   0  0  0  0  0  0  0  0  0  0  0  0
   17.4230   -9.7066   13.7498 C   0  0  0  0  0  0  0  0  0  0  0  0
   16.7069   -8.6078   14.0217 N   0  0  0  0  0  0  0  0  0  0  0  0
   16.2589   -8.8486   15.2854 C   0  0  0  0  0  0  0  0  0  0  0  0
   16.6669  -10.0421   15.7993 N   0  0  0  0  0  0  0  0  0  0  0  0
   16.4733  -10.4319   16.6824 H   0  0  0  0  0  0  0  0  0  0  0  0
   20.7563   -5.7209    4.9718 N   0  0  0  0  0  0  0  0  0  0  0  0
   22.1624   -5.9862    4.6977 C   0  0  0  0  0  0  0  0  0  0  0  0
   22.2957   -7.0298    3.6040 C   0  0  0  0  0  0  0  0  0  0  0  0
   20.3312   -4.3287    5.0348 C   0  0  0  0  0  0  0  0  0  0  0  0
   20.3526   -3.7103    3.6490 C   0  0  0  0  0  0  0  0  0  0  0  0
  1  2  2  0  0  0
  2  3  1  0  0  0
  3  4  1  0  0  0
  3  5  2  0  0  0
  5  6  1  0  0  0
  6  7  2  0  0  0
  6  8  1  0  0  0
  8  9  1  0  0  0
  9 10  2  0  0  0
  9 11  1  0  0  0
 11 12  1  0  0  0
 12 13  1  0  0  0
 13 14  2  0  0  0
 13 15  1  0  0  0
 15 17  1  0  0  0
 17 18  1  0  0  0
 18 19  1  0  0  0
  8 22  1  0  0  0
 22 23  1  0  0  0
 23 24  1  0  0  0
 24 26  1  0  0  0
 26 27  2  0  0  0
 27 28  1  0  0  0
 28 29  2  0  0  0
 29 30  1  0  0  0
 30 31  2  0  0  0
 31 32  1  0  0  0
 32 33  2  0  0  0
 33 34  1  0  0  0
  1 36  1  0  0  0
 36 37  1  0  0  0
 37 38  1  0  0  0
 36 39  1  0  0  0
 39 40  1  0  0  0
  7  1  1  0  0  0
 31 26  1  0  0  0
 10  5  1  0  0  0
 34 30  1  0  0  0
 15 16  1  0  0  0
 19 20  1  0  0  0
 19 21  1  0  0  0
 24 25  1  0  0  0
 34 35  1  0  0  0
M  END
>  <minimizedAffinity>
2.55439

>  <minimizedRMSD>
3.34998

$$$$
CHEMBL5272198


 34 39  0  0  0  0  0  0  0  0999 V2000
   16.5432   -9.5468   16.1455 C   0  0  0  0  0  0  0  0  0  0  0  0
   16.7775   -8.8466   14.7986 C   0  0  0  0  0  0  0  0  0  0  0  0
   17.2073   -9.7961   13.7672 N   0  0  0  0  0  0  0  0  0  0  0  0
   18.3130  -10.7235   14.0436 C   0  0  0  0  0  0  0  0  0  0  0  0
   18.7111  -10.7266   15.5185 C   0  0  0  0  0  0  0  0  0  0  0  0
   17.4540  -10.7783   16.3735 C   0  0  0  0  0  0  0  0  0  0  0  0
   17.7910  -11.0510   17.8310 C   0  0  0  0  0  0  0  0  0  0  0  0
   16.6454   -9.7004   12.4419 C   0  0  0  0  0  0  0  0  0  0  0  0
   17.4216   -9.6258   11.3243 N   0  0  0  0  0  0  0  0  0  0  0  0
   16.9146   -9.5424   10.0951 C   0  0  0  0  0  0  0  0  0  0  0  0
   15.5785   -9.5275    9.8741 N   0  0  0  0  0  0  0  0  0  0  0  0
   14.7260   -9.6008   10.9409 C   0  0  0  0  0  0  0  0  0  0  0  0
   15.2516   -9.6924   12.2501 C   0  0  0  0  0  0  0  0  0  0  0  0
   17.8636   -9.5030    9.1468 N   0  0  0  0  0  0  0  0  0  0  0  0
   18.9976   -9.5732    9.8946 C   0  0  0  0  0  0  0  0  0  0  0  0
   18.7358   -9.6524   11.2232 N   0  0  0  0  0  0  0  0  0  0  0  0
   13.2644   -9.5878   10.7173 C   0  0  0  0  0  0  0  0  0  0  0  0
   12.6127   -8.4244   10.2755 C   0  0  0  0  0  0  0  0  0  0  0  0
   11.2306   -8.4211   10.0667 C   0  0  0  0  0  0  0  0  0  0  0  0
   10.4865   -9.5808   10.2974 C   0  0  0  0  0  0  0  0  0  0  0  0
   11.1242  -10.7436   10.7368 C   0  0  0  0  0  0  0  0  0  0  0  0
   12.5064  -10.7468   10.9456 C   0  0  0  0  0  0  0  0  0  0  0  0
   16.5642   -8.5795   17.2473 N   0  0  0  0  0  0  0  0  0  0  0  0
   17.8757   -8.2716   17.7972 C   0  0  0  0  0  0  0  0  0  0  0  0
   15.3543   -8.0005   17.7932 C   0  0  0  0  0  0  0  0  0  0  0  0
   15.2331   -7.6041   19.1334 C   0  0  0  0  0  0  0  0  0  0  0  0
   14.0692   -7.0592   19.5796 C   0  0  0  0  0  0  0  0  0  0  0  0
   14.1275   -6.7294   20.8764 N   0  0  0  0  0  0  0  0  0  0  0  0
   15.3804   -7.0810   21.2561 C   0  0  0  0  0  0  0  0  0  0  0  0
   16.1078   -7.6301   20.1980 C   0  0  0  0  0  0  0  0  0  0  0  0
   12.9997   -6.8776   18.7697 N   0  0  0  0  0  0  0  0  0  0  0  0
   13.1028   -7.2562   17.4634 C   0  0  0  0  0  0  0  0  0  0  0  0
   14.2633   -7.8059   16.9908 N   0  0  0  0  0  0  0  0  0  0  0  0
   13.4206   -6.3235   21.4286 H   0  0  0  0  0  0  0  0  0  0  0  0
 25 26  1  0  0  0
 26 27  2  0  0  0
 27 28  1  0  0  0
 28 29  1  0  0  0
 29 30  2  0  0  0
 27 31  1  0  0  0
 31 32  2  0  0  0
 32 33  1  0  0  0
 25 23  1  0  0  0
  1 23  1  0  0  0
  1  2  1  0  0  0
  2  3  1  0  0  0
  3  8  1  0  0  0
  8  9  1  0  0  0
  9 10  1  0  0  0
 10 11  1  0  0  0
 11 12  2  0  0  0
 12 13  1  0  0  0
 12 17  1  0  0  0
 17 18  2  0  0  0
 18 19  1  0  0  0
 19 20  2  0  0  0
 20 21  1  0  0  0
 21 22  2  0  0  0
 10 14  2  0  0  0
 14 15  1  0  0  0
 15 16  2  0  0  0
  3  4  1  0  0  0
  4  5  1  0  0  0
  5  6  1  0  0  0
  6  7  1  0  0  0
 23 24  1  0  0  0
 33 25  2  0  0  0
  6  1  1  0  0  0
 30 26  1  0  0  0
 13  8  2  0  0  0
 22 17  1  0  0  0
 16  9  1  0  0  0
 28 34  1  0  0  0
M  END
>  <minimizedAffinity>
7.55082

>  <minimizedRMSD>
3.35896

$$$$
CHEMBL5202261


 34 37  0  0  0  0  0  0  0  0999 V2000
   16.3838  -10.3200   11.2215 N   0  0  0  0  0  0  0  0  0  0  0  0
   17.7042   -9.7628   11.5244 C   0  0  0  0  0  0  0  0  0  0  0  0
   18.1037  -10.0923   12.9640 C   0  0  0  0  0  0  0  0  0  0  0  0
   16.8935  -10.1191   13.9084 C   0  0  0  0  0  0  0  0  0  0  0  0
   15.7414   -9.2476   13.4065 C   0  0  0  0  0  0  0  0  0  0  0  0
   15.3218   -9.6347   11.9793 C   0  0  0  0  0  0  0  0  0  0  0  0
   17.2823   -9.7422   15.2658 N   0  0  0  0  0  0  0  0  0  0  0  0
   18.1857   -9.9956   15.5637 H   0  0  0  0  0  0  0  0  0  0  0  0
   16.4557   -9.0333   16.2003 C   0  0  0  0  0  0  0  0  0  0  0  0
   16.6064   -9.2723   17.5674 C   0  0  0  0  0  0  0  0  0  0  0  0
   15.8025   -8.5981   18.4886 C   0  0  0  0  0  0  0  0  0  0  0  0
   14.8470   -7.6823   18.0299 C   0  0  0  0  0  0  0  0  0  0  0  0
   14.7171   -7.4609   16.6919 N   0  0  0  0  0  0  0  0  0  0  0  0
   15.4907   -8.1081   15.7792 C   0  0  0  0  0  0  0  0  0  0  0  0
   13.9798   -6.9678   18.9799 C   0  0  0  0  0  0  0  0  0  0  0  0
   13.3244   -5.9621   18.5932 O   0  0  0  0  0  0  0  0  0  0  0  0
   13.8716   -7.4161   20.3336 N   0  0  0  0  0  0  0  0  0  0  0  0
   12.9982   -6.7615   21.2924 C   0  0  0  0  0  0  0  0  0  0  0  0
   14.4046   -8.1911   20.6243 H   0  0  0  0  0  0  0  0  0  0  0  0
   16.1174  -10.2254    9.7792 C   0  0  0  0  0  0  0  0  0  0  0  0
   20.1678   -7.3734    5.5919 C   0  0  0  0  0  0  0  0  0  0  0  0
   20.0204   -7.2102    6.9733 C   0  0  0  0  0  0  0  0  0  0  0  0
   19.0580   -7.9485    7.6604 C   0  0  0  0  0  0  0  0  0  0  0  0
   18.9023   -7.8046    9.0037 N   0  0  0  0  0  0  0  0  0  0  0  0
   17.9685   -8.5194    9.6886 C   0  0  0  0  0  0  0  0  0  0  0  0
   17.1420   -9.4282    9.0173 C   0  0  0  0  0  0  0  0  0  0  0  0
   17.2818   -9.5890    7.6345 C   0  0  0  0  0  0  0  0  0  0  0  0
   18.2440   -8.8499    6.9470 C   0  0  0  0  0  0  0  0  0  0  0  0
   18.3962   -8.9897    5.6033 N   0  0  0  0  0  0  0  0  0  0  0  0
   19.3290   -8.2772    4.9134 C   0  0  0  0  0  0  0  0  0  0  0  0
   19.4309   -8.4328    3.6674 O   0  0  0  0  0  0  0  0  0  0  0  0
   17.8181   -9.6213    5.1175 H   0  0  0  0  0  0  0  0  0  0  0  0
   20.5146   -5.4179    4.1246 C   0  0  0  0  0  0  0  0  0  0  0  0
   21.1868   -6.5593    4.8641 C   0  0  0  0  0  0  0  0  0  0  0  0
 33 34  1  0  0  0
 34 21  1  0  0  0
 21 22  2  0  0  0
 22 23  1  0  0  0
 23 24  2  0  0  0
 24 25  1  0  0  0
 25 26  2  0  0  0
 26 27  1  0  0  0
 27 28  2  0  0  0
 28 29  1  0  0  0
 29 30  1  0  0  0
 30 31  2  0  0  0
 26 20  1  0  0  0
 20  1  1  0  0  0
  1  2  1  0  0  0
  2  3  1  0  0  0
  3  4  1  0  0  0
  4  5  1  0  0  0
  5  6  1  0  0  0
  4  7  1  0  0  0
  7  9  1  0  0  0
  9 10  2  0  0  0
 10 11  1  0  0  0
 11 12  2  0  0  0
 12 13  1  0  0  0
 13 14  2  0  0  0
 12 15  1  0  0  0
 15 16  2  0  0  0
 15 17  1  0  0  0
 17 18  1  0  0  0
 30 21  1  0  0  0
  6  1  1  0  0  0
 14  9  1  0  0  0
 28 23  1  0  0  0
 29 32  1  0  0  0
  7  8  1  0  0  0
 17 19  1  0  0  0
M  END
>  <minimizedAffinity>
-8.28123

>  <minimizedRMSD>
3.36172

$$$$
CHEMBL2037402 PubChem-60166754


 31 35  0  0  0  0  0  0  0  0999 V2000
   17.0915   -9.7270   15.6335 S   0  0  0  0  0  0  0  0  0  0  0  0
   16.7606   -9.5429   13.8856 C   0  0  0  0  0  0  0  0  0  0  0  0
   15.8767   -8.6663   13.3736 N   0  0  0  0  0  0  0  0  0  0  0  0
   15.9168   -8.8275   12.0600 N   0  0  0  0  0  0  0  0  0  0  0  0
   16.8212   -9.7971   11.8288 C   0  0  0  0  0  0  0  0  0  0  0  0
   17.3485  -10.2395   12.9442 O   0  0  0  0  0  0  0  0  0  0  0  0
   17.1998  -10.2775   10.4703 C   0  0  0  0  0  0  0  0  0  0  0  0
   18.1213   -9.3381    9.8491 N   0  0  0  0  0  0  0  0  0  0  0  0
   19.0572   -8.5862   10.4773 C   0  0  0  0  0  0  0  0  0  0  0  0
   19.7198   -7.7634    9.6191 N   0  0  0  0  0  0  0  0  0  0  0  0
   19.1510   -8.0261    8.4273 C   0  0  0  0  0  0  0  0  0  0  0  0
   19.4473   -7.4457    7.1965 C   0  0  0  0  0  0  0  0  0  0  0  0
   18.7023   -7.8766    6.0818 C   0  0  0  0  0  0  0  0  0  0  0  0
   17.6953   -8.8587    6.2252 C   0  0  0  0  0  0  0  0  0  0  0  0
   17.4208   -9.4238    7.4847 C   0  0  0  0  0  0  0  0  0  0  0  0
   18.1824   -8.9737    8.5626 C   0  0  0  0  0  0  0  0  0  0  0  0
   15.4123   -9.2131   16.1097 C   0  0  0  0  0  0  0  0  0  0  0  0
   16.5599   -8.1864   17.9167 O   0  0  0  0  0  0  0  0  0  0  0  0
   15.4522   -8.4055   17.3599 C   0  0  0  0  0  0  0  0  0  0  0  0
   14.2293   -7.9058   17.9132 N   0  0  0  0  0  0  0  0  0  0  0  0
   13.4046   -8.0946   17.4096 H   0  0  0  0  0  0  0  0  0  0  0  0
   14.0876   -7.1583   19.1272 C   0  0  0  0  0  0  0  0  0  0  0  0
   13.5172   -5.9294   19.1480 N   0  0  0  0  0  0  0  0  0  0  0  0
   13.4896   -5.4297   20.4094 C   0  0  0  0  0  0  0  0  0  0  0  0
   12.9636   -4.1835   20.7494 C   0  0  0  0  0  0  0  0  0  0  0  0
   12.9973   -3.7859   22.0968 C   0  0  0  0  0  0  0  0  0  0  0  0
   13.5512   -4.6299   23.0796 C   0  0  0  0  0  0  0  0  0  0  0  0
   13.5757   -4.2306   24.3737 F   0  0  0  0  0  0  0  0  0  0  0  0
   14.0778   -5.8824   22.7258 C   0  0  0  0  0  0  0  0  0  0  0  0
   14.0319   -6.2524   21.3847 C   0  0  0  0  0  0  0  0  0  0  0  0
   14.5758   -7.6697   20.6724 S   0  0  0  0  0  0  0  0  0  0  0  0
 18 19  2  0  0  0
 19 17  1  0  0  0
 19 20  1  0  0  0
 17  1  1  0  0  0
  1  2  1  0  0  0
  2  3  2  0  0  0
  3  4  1  0  0  0
  4  5  2  0  0  0
  5  7  1  0  0  0
  5  6  1  0  0  0
  7  8  1  0  0  0
  8  9  1  0  0  0
  9 10  2  0  0  0
 10 11  1  0  0  0
 11 12  2  0  0  0
 12 13  1  0  0  0
 13 14  2  0  0  0
 14 15  1  0  0  0
 15 16  2  0  0  0
 16  8  1  0  0  0
 16 11  1  0  0  0
  6  2  1  0  0  0
 20 22  1  0  0  0
 22 23  2  0  0  0
 23 24  1  0  0  0
 24 25  2  0  0  0
 25 26  1  0  0  0
 26 27  2  0  0  0
 27 28  1  0  0  0
 27 29  1  0  0  0
 29 30  2  0  0  0
 30 31  1  0  0  0
 30 24  1  0  0  0
 31 22  1  0  0  0
 20 21  1  0  0  0
M  END
>  <minimizedAffinity>
-6.27063

>  <minimizedRMSD>
3.36334

$$$$
CHEMBL4749058 PubChem-135372840


 36 39  0  0  0  0  0  0  0  0999 V2000
   15.7350   -8.3464   13.7968 N   0  0  0  0  0  0  0  0  0  0  0  0
   15.9061   -9.2640   12.8298 C   0  0  0  0  0  0  0  0  0  0  0  0
   16.3436   -8.5428   11.7324 C   0  0  0  0  0  0  0  0  0  0  0  0
   16.4291   -7.2390   12.0708 N   0  0  0  0  0  0  0  0  0  0  0  0
   16.0560   -7.1502   13.3366 N   0  0  0  0  0  0  0  0  0  0  0  0
   16.6768   -9.1158   10.4066 C   0  0  0  0  0  0  0  0  0  0  0  0
   16.1540  -10.3323   10.0901 N   0  0  0  0  0  0  0  0  0  0  0  0
   16.4053  -10.9352    8.9007 C   0  0  0  0  0  0  0  0  0  0  0  0
   17.1978  -10.3280    7.9833 N   0  0  0  0  0  0  0  0  0  0  0  0
   17.7535   -9.1135    8.2302 C   0  0  0  0  0  0  0  0  0  0  0  0
   17.5057   -8.4653    9.4635 C   0  0  0  0  0  0  0  0  0  0  0  0
   18.0861   -7.2114    9.7038 C   0  0  0  0  0  0  0  0  0  0  0  0
   18.8976   -6.6081    8.7427 C   0  0  0  0  0  0  0  0  0  0  0  0
   19.1389   -7.2516    7.5286 C   0  0  0  0  0  0  0  0  0  0  0  0
   18.5705   -8.5069    7.2619 C   0  0  0  0  0  0  0  0  0  0  0  0
   15.8364  -12.2071    8.6160 N   0  0  0  0  0  0  0  0  0  0  0  0
   15.2608  -12.6489    9.2814 H   0  0  0  0  0  0  0  0  0  0  0  0
   16.0181  -12.6457    7.7535 H   0  0  0  0  0  0  0  0  0  0  0  0
   18.8041   -9.1638    6.0479 O   0  0  0  0  0  0  0  0  0  0  0  0
   19.1432   -8.4743    4.8525 C   0  0  0  0  0  0  0  0  0  0  0  0
   15.3333   -8.6162   15.1674 C   0  0  0  0  0  0  0  0  0  0  0  0
   17.7528  -11.4701   15.5730 C   0  0  0  0  0  0  0  0  0  0  0  0
   18.0247  -11.3945   16.9506 C   0  0  0  0  0  0  0  0  0  0  0  0
   17.4036  -10.4294   17.7365 C   0  0  0  0  0  0  0  0  0  0  0  0
   16.5165   -9.5334   17.1523 C   0  0  0  0  0  0  0  0  0  0  0  0
   16.2568   -9.6175   15.7842 C   0  0  0  0  0  0  0  0  0  0  0  0
   16.8757  -10.5673   15.0178 N   0  0  0  0  0  0  0  0  0  0  0  0
   16.5984  -10.6077   13.6681 O   0  0  0  0  0  0  0  0  0  0  0  0
   19.4629  -13.3266   15.5525 C   0  0  0  0  0  0  0  0  0  0  0  0
   18.4758  -12.5108   14.7176 C   0  0  0  0  0  0  0  0  0  0  0  0
   17.5501  -13.4126   14.1863 O   0  0  0  0  0  0  0  0  0  0  0  0
   17.0668  -13.8432   14.9088 H   0  0  0  0  0  0  0  0  0  0  0  0
   19.2415  -11.8289   13.5678 C   0  0  0  0  0  0  0  0  0  0  0  0
   19.6696  -10.5702   13.9560 F   0  0  0  0  0  0  0  0  0  0  0  0
   20.3472  -12.5862   13.2189 F   0  0  0  0  0  0  0  0  0  0  0  0
   18.4348  -11.6971   12.4515 F   0  0  0  0  0  0  0  0  0  0  0  0
 29 30  1  0  0  0
 30 22  1  0  0  0
 22 23  2  0  0  0
 23 24  1  0  0  0
 24 25  2  0  0  0
 25 26  1  0  0  0
 26 27  2  0  0  0
 27 28  1  0  0  0
 26 21  1  0  0  0
 21  1  1  0  0  0
  1  2  1  0  0  0
  2  3  2  0  0  0
  3  4  1  0  0  0
  4  5  2  0  0  0
  3  6  1  0  0  0
  6  7  2  0  0  0
  7  8  1  0  0  0
  8  9  2  0  0  0
  9 10  1  0  0  0
 10 11  2  0  0  0
 11 12  1  0  0  0
 12 13  2  0  0  0
 13 14  1  0  0  0
 14 15  2  0  0  0
 15 19  1  0  0  0
 19 20  1  0  0  0
  8 16  1  0  0  0
 30 33  1  0  0  0
 33 34  1  0  0  0
 33 35  1  0  0  0
 33 36  1  0  0  0
 30 31  1  0  0  0
 27 22  1  0  0  0
  5  1  1  0  0  0
 11  6  1  0  0  0
 15 10  1  0  0  0
 16 17  1  0  0  0
 16 18  1  0  0  0
 31 32  1  0  0  0
M  CHG 1  27   1
M  CHG 1  28  -1
M  END
>  <minimizedAffinity>
5.14095

>  <minimizedRMSD>
3.36399

$$$$
CHEMBL2037404 PubChem-60166874


 33 37  0  0  0  0  0  0  0  0999 V2000
   15.6663   -8.9816   15.1904 C   0  0  0  0  0  0  0  0  0  0  0  0
   16.8195   -9.0999   17.2645 O   0  0  0  0  0  0  0  0  0  0  0  0
   15.8138   -8.6708   16.6390 C   0  0  0  0  0  0  0  0  0  0  0  0
   14.8017   -7.9067   17.3028 N   0  0  0  0  0  0  0  0  0  0  0  0
   14.0386   -7.5969   16.7634 H   0  0  0  0  0  0  0  0  0  0  0  0
   14.8148   -7.5588   18.6906 C   0  0  0  0  0  0  0  0  0  0  0  0
   15.9437   -7.2905   19.3931 N   0  0  0  0  0  0  0  0  0  0  0  0
   15.6440   -6.9957   20.6830 C   0  0  0  0  0  0  0  0  0  0  0  0
   16.5894   -6.6765   21.6558 C   0  0  0  0  0  0  0  0  0  0  0  0
   16.1434   -6.3933   22.9573 C   0  0  0  0  0  0  0  0  0  0  0  0
   14.7680   -6.4289   23.2787 C   0  0  0  0  0  0  0  0  0  0  0  0
   13.8278   -6.7531   22.2805 C   0  0  0  0  0  0  0  0  0  0  0  0
   14.2952   -7.0300   20.9994 C   0  0  0  0  0  0  0  0  0  0  0  0
   13.4138   -7.4427   19.6323 S   0  0  0  0  0  0  0  0  0  0  0  0
   14.3357   -6.1385   24.6146 N   0  0  0  0  0  0  0  0  0  0  0  0
   15.0128   -6.5114   25.5952 O   0  0  0  0  0  0  0  0  0  0  0  0
   13.1670   -5.4452   24.8310 O   0  0  0  0  0  0  0  0  0  0  0  0
   17.2757   -9.4334   14.4723 S   0  0  0  0  0  0  0  0  0  0  0  0
   16.5857   -9.7050   12.8451 C   0  0  0  0  0  0  0  0  0  0  0  0
   15.2796   -9.9253   12.6073 N   0  0  0  0  0  0  0  0  0  0  0  0
   15.1641  -10.0753   11.2970 N   0  0  0  0  0  0  0  0  0  0  0  0
   16.4052   -9.9427   10.7936 C   0  0  0  0  0  0  0  0  0  0  0  0
   17.2846   -9.7102   11.7368 O   0  0  0  0  0  0  0  0  0  0  0  0
   16.7287  -10.0114    9.3411 C   0  0  0  0  0  0  0  0  0  0  0  0
   17.7984   -9.0772    9.0250 N   0  0  0  0  0  0  0  0  0  0  0  0
   18.4996   -8.3214    9.9044 C   0  0  0  0  0  0  0  0  0  0  0  0
   19.3962   -7.5065    9.2845 N   0  0  0  0  0  0  0  0  0  0  0  0
   19.2198   -7.7786    7.9777 C   0  0  0  0  0  0  0  0  0  0  0  0
   19.8817   -7.2095    6.8927 C   0  0  0  0  0  0  0  0  0  0  0  0
   19.5130   -7.6489    5.6068 C   0  0  0  0  0  0  0  0  0  0  0  0
   18.5067   -8.6281    5.4418 C   0  0  0  0  0  0  0  0  0  0  0  0
   17.8569   -9.1820    6.5606 C   0  0  0  0  0  0  0  0  0  0  0  0
   18.2523   -8.7235    7.8165 C   0  0  0  0  0  0  0  0  0  0  0  0
  2  3  2  0  0  0
  3  1  1  0  0  0
  3  4  1  0  0  0
  1 18  1  0  0  0
 18 19  1  0  0  0
 19 20  2  0  0  0
 20 21  1  0  0  0
 21 22  2  0  0  0
 22 24  1  0  0  0
 22 23  1  0  0  0
 24 25  1  0  0  0
 25 26  1  0  0  0
 26 27  2  0  0  0
 27 28  1  0  0  0
 28 29  2  0  0  0
 29 30  1  0  0  0
 30 31  2  0  0  0
 31 32  1  0  0  0
 32 33  2  0  0  0
 33 25  1  0  0  0
 33 28  1  0  0  0
 23 19  1  0  0  0
  4  6  1  0  0  0
  6  7  2  0  0  0
  7  8  1  0  0  0
  8  9  2  0  0  0
  9 10  1  0  0  0
 10 11  2  0  0  0
 11 15  1  0  0  0
 11 12  1  0  0  0
 15 16  2  0  0  0
 15 17  1  0  0  0
 12 13  2  0  0  0
 13 14  1  0  0  0
 13  8  1  0  0  0
 14  6  1  0  0  0
  4  5  1  0  0  0
M  CHG 1  15   1
M  CHG 1  17  -1
M  END
>  <minimizedAffinity>
-8.43919

>  <minimizedRMSD>
3.37239

$$$$
CHEMBL300438


 36 40  0  0  0  0  0  0  0  0999 V2000
   15.4766   -9.8229   11.1717 C   0  0  0  0  0  0  0  0  0  0  0  0
   15.4442   -9.4688   12.6230 C   0  0  0  0  0  0  0  0  0  0  0  0
   15.8317   -8.1885   13.0282 C   0  0  0  0  0  0  0  0  0  0  0  0
   15.7697   -7.8311   14.3778 C   0  0  0  0  0  0  0  0  0  0  0  0
   15.3302   -8.7552   15.3387 C   0  0  0  0  0  0  0  0  0  0  0  0
   14.9272  -10.0337   14.9225 C   0  0  0  0  0  0  0  0  0  0  0  0
   14.9873  -10.3901   13.5724 C   0  0  0  0  0  0  0  0  0  0  0  0
   15.1850   -8.3544   16.7563 C   0  0  0  0  0  0  0  0  0  0  0  0
   14.0830   -7.5523   17.0940 C   0  0  0  0  0  0  0  0  0  0  0  0
   13.9398   -7.0330   18.3802 C   0  0  0  0  0  0  0  0  0  0  0  0
   14.9023   -7.3044   19.3511 C   0  0  0  0  0  0  0  0  0  0  0  0
   15.9953   -8.1134   19.0406 C   0  0  0  0  0  0  0  0  0  0  0  0
   16.1482   -8.6582   17.7571 C   0  0  0  0  0  0  0  0  0  0  0  0
   17.2758   -9.5885   17.5440 C   0  0  0  0  0  0  0  0  0  0  0  0
   17.2093  -10.9157   17.7575 N   0  0  0  0  0  0  0  0  0  0  0  0
   18.3890  -11.3781   17.3787 N   0  0  0  0  0  0  0  0  0  0  0  0
   19.1398  -10.3811   16.9384 N   0  0  0  0  0  0  0  0  0  0  0  0
   18.4685   -9.2447   17.0225 N   0  0  0  0  0  0  0  0  0  0  0  0
   20.0595  -10.4717   16.5992 H   0  0  0  0  0  0  0  0  0  0  0  0
   16.8379   -9.7668   10.6491 N   0  0  0  0  0  0  0  0  0  0  0  0
   17.1113   -9.5811    9.2424 C   0  0  0  0  0  0  0  0  0  0  0  0
   16.3557  -10.2333    8.3042 N   0  0  0  0  0  0  0  0  0  0  0  0
   16.5820  -10.0921    6.9594 C   0  0  0  0  0  0  0  0  0  0  0  0
   17.5856   -9.2856    6.5057 N   0  0  0  0  0  0  0  0  0  0  0  0
   18.3416   -8.6390    7.4245 C   0  0  0  0  0  0  0  0  0  0  0  0
   18.1401   -8.7601    8.7623 C   0  0  0  0  0  0  0  0  0  0  0  0
   19.0358   -8.0091    9.4374 N   0  0  0  0  0  0  0  0  0  0  0  0
   19.7638   -7.4452    8.4367 C   0  0  0  0  0  0  0  0  0  0  0  0
   20.8139   -6.5675    8.6718 O   0  0  0  0  0  0  0  0  0  0  0  0
   19.3655   -7.8122    7.1962 N   0  0  0  0  0  0  0  0  0  0  0  0
   19.9290   -7.4111    5.9175 C   0  0  0  0  0  0  0  0  0  0  0  0
   21.0508   -6.3451    9.5506 H   0  0  0  0  0  0  0  0  0  0  0  0
   17.9239   -9.7064   11.6237 C   0  0  0  0  0  0  0  0  0  0  0  0
   18.3187  -11.1012   12.0982 C   0  0  0  0  0  0  0  0  0  0  0  0
   18.3516  -12.5346   14.1347 C   0  0  0  0  0  0  0  0  0  0  0  0
   18.5547  -11.1305   13.5984 C   0  0  0  0  0  0  0  0  0  0  0  0
 35 36  1  0  0  0
 36 34  1  0  0  0
 34 33  1  0  0  0
 33 20  1  0  0  0
 20  1  1  0  0  0
 20 21  1  0  0  0
  1  2  1  0  0  0
  2  3  2  0  0  0
  3  4  1  0  0  0
  4  5  2  0  0  0
  5  8  1  0  0  0
  5  6  1  0  0  0
  8  9  2  0  0  0
  9 10  1  0  0  0
 10 11  2  0  0  0
 11 12  1  0  0  0
 12 13  2  0  0  0
 13 14  1  0  0  0
 13  8  1  0  0  0
 14 15  1  0  0  0
 15 16  2  0  0  0
 16 17  1  0  0  0
 17 18  1  0  0  0
 18 14  2  0  0  0
  6  7  2  0  0  0
  7  2  1  0  0  0
 21 22  2  0  0  0
 22 23  1  0  0  0
 23 24  2  0  0  0
 24 25  1  0  0  0
 25 26  2  0  0  0
 26 27  1  0  0  0
 26 21  1  0  0  0
 27 28  2  0  0  0
 28 29  1  0  0  0
 28 30  1  0  0  0
 30 31  1  0  0  0
 30 25  1  0  0  0
 17 19  1  0  0  0
 29 32  1  0  0  0
M  END
>  <minimizedAffinity>
3.48182

>  <minimizedRMSD>
3.38133

$$$$
CHEMBL1198721 CHEMBL612111


 35 37  0  0  0  0  0  0  0  0999 V2000
   15.1902   -9.8891   10.5945 C   0  0  0  0  0  0  0  0  0  0  0  0
   15.4693   -9.5830    9.2996 N   0  0  0  0  0  0  0  0  0  0  0  0
   16.6951   -9.1743    8.8948 C   0  0  0  0  0  0  0  0  0  0  0  0
   17.7449   -9.0501    9.8284 C   0  0  0  0  0  0  0  0  0  0  0  0
   17.5143   -9.3540   11.1822 C   0  0  0  0  0  0  0  0  0  0  0  0
   16.2175   -9.7846   11.5735 C   0  0  0  0  0  0  0  0  0  0  0  0
   15.9194  -10.1163   12.9011 C   0  0  0  0  0  0  0  0  0  0  0  0
   14.6465  -10.5412   13.2686 C   0  0  0  0  0  0  0  0  0  0  0  0
   13.6436  -10.6408   12.3093 C   0  0  0  0  0  0  0  0  0  0  0  0
   13.8896  -10.3181   10.9677 C   0  0  0  0  0  0  0  0  0  0  0  0
   19.0069   -8.6236    9.3846 C   0  0  0  0  0  0  0  0  0  0  0  0
   19.2201   -8.3269    8.0357 C   0  0  0  0  0  0  0  0  0  0  0  0
   18.1747   -8.4533    7.1178 C   0  0  0  0  0  0  0  0  0  0  0  0
   16.9142   -8.8762    7.5467 C   0  0  0  0  0  0  0  0  0  0  0  0
   12.7627  -10.4482   10.0061 C   0  0  0  0  0  0  0  0  0  0  0  0
   11.6904   -9.8165   10.2169 O   0  0  0  0  0  0  0  0  0  0  0  0
   12.8762  -11.2647    8.8358 N   0  0  0  0  0  0  0  0  0  0  0  0
   13.7300  -11.7235    8.6629 H   0  0  0  0  0  0  0  0  0  0  0  0
   11.7852  -11.4463    7.8905 C   0  0  0  0  0  0  0  0  0  0  0  0
   11.5401  -12.9286    7.6573 C   0  0  0  0  0  0  0  0  0  0  0  0
   11.5396  -13.2182    6.2645 O   0  0  0  0  0  0  0  0  0  0  0  0
   11.5425  -14.5238    5.7674 C   0  0  0  0  0  0  0  0  0  0  0  0
   11.5404  -15.5144    6.5463 O   0  0  0  0  0  0  0  0  0  0  0  0
   11.5406  -14.7467    4.2982 C   0  0  0  0  0  0  0  0  0  0  0  0
   18.6167   -9.2119   12.1020 N   0  0  0  0  0  0  0  0  0  0  0  0
   19.4752   -8.9253   11.7146 H   0  0  0  0  0  0  0  0  0  0  0  0
   18.6015   -9.4446   13.5371 C   0  0  0  0  0  0  0  0  0  0  0  0
   19.1828  -10.8142   13.8328 C   0  0  0  0  0  0  0  0  0  0  0  0
   18.3211  -11.5387   14.7591 N   0  0  0  0  0  0  0  0  0  0  0  0
   18.1131  -12.9636   14.5432 C   0  0  0  0  0  0  0  0  0  0  0  0
   17.7513  -10.8748   15.9005 C   0  0  0  0  0  0  0  0  0  0  0  0
   17.0381   -9.8010   15.7277 N   0  0  0  0  0  0  0  0  0  0  0  0
   16.4158   -9.0599   16.8140 C   0  0  0  0  0  0  0  0  0  0  0  0
   18.0222  -11.5415   17.5566 S   0  0  0  0  0  0  0  0  0  0  0  0
   18.7933  -12.6588   17.4750 H   0  0  0  0  0  0  0  0  0  0  0  0
  1  2  2  0  0  0
  2  3  1  0  0  0
  3  4  2  0  0  0
  4  5  1  0  0  0
  5  6  2  0  0  0
  6  7  1  0  0  0
  7  8  2  0  0  0
  8  9  1  0  0  0
  9 10  2  0  0  0
 10 15  1  0  0  0
 15 16  2  0  0  0
 15 17  1  0  0  0
 17 19  1  0  0  0
 19 20  1  0  0  0
 20 21  1  0  0  0
 21 22  1  0  0  0
 22 23  2  0  0  0
 22 24  1  0  0  0
  5 25  1  0  0  0
 25 27  1  0  0  0
 27 28  1  0  0  0
 28 29  1  0  0  0
 29 31  1  0  0  0
 31 32  2  0  0  0
 32 33  1  0  0  0
 31 34  1  0  0  0
 29 30  1  0  0  0
  4 11  1  0  0  0
 11 12  2  0  0  0
 12 13  1  0  0  0
 13 14  2  0  0  0
 10  1  1  0  0  0
  6  1  1  0  0  0
 14  3  1  0  0  0
 17 18  1  0  0  0
 25 26  1  0  0  0
 34 35  1  0  0  0
M  END
>  <minimizedAffinity>
11.27160

>  <minimizedRMSD>
3.39138

$$$$
CHEMBL556265 PubChem-45273102


 39 42  0  0  0  0  0  0  0  0999 V2000
   16.2422  -10.6035   12.5644 C   0  0  0  0  0  0  0  0  0  0  0  0
   15.7809  -10.3653   11.1564 C   0  0  0  0  0  0  0  0  0  0  0  0
   16.6503   -9.2203   10.7034 C   0  0  0  0  0  0  0  0  0  0  0  0
   17.8540   -9.2356   11.4342 O   0  0  0  0  0  0  0  0  0  0  0  0
   17.6662  -10.0820   12.5471 C   0  0  0  0  0  0  0  0  0  0  0  0
   14.4309  -10.0108   11.0979 O   0  0  0  0  0  0  0  0  0  0  0  0
   15.4969   -9.8478   13.4741 O   0  0  0  0  0  0  0  0  0  0  0  0
   14.2815   -9.2167   11.6346 H   0  0  0  0  0  0  0  0  0  0  0  0
   15.5590   -8.9082   13.2414 H   0  0  0  0  0  0  0  0  0  0  0  0
   16.9293   -9.3241    9.2770 N   0  0  0  0  0  0  0  0  0  0  0  0
   16.3619  -10.1655    8.3732 C   0  0  0  0  0  0  0  0  0  0  0  0
   16.8682  -10.0001    7.1178 N   0  0  0  0  0  0  0  0  0  0  0  0
   17.7770   -9.0200    7.2799 C   0  0  0  0  0  0  0  0  0  0  0  0
   17.8140   -8.6185    8.5685 C   0  0  0  0  0  0  0  0  0  0  0  0
   18.6443   -7.6432    9.0106 N   0  0  0  0  0  0  0  0  0  0  0  0
   19.4734   -7.0508    8.0985 C   0  0  0  0  0  0  0  0  0  0  0  0
   19.4550   -7.4414    6.7830 N   0  0  0  0  0  0  0  0  0  0  0  0
   18.6147   -8.4287    6.3453 C   0  0  0  0  0  0  0  0  0  0  0  0
   18.5929   -8.8361    4.9750 N   0  0  0  0  0  0  0  0  0  0  0  0
   18.3336   -9.7619    4.7633 H   0  0  0  0  0  0  0  0  0  0  0  0
   18.9375   -7.9412    3.8784 C   0  0  0  0  0  0  0  0  0  0  0  0
   20.2842   -8.2797    3.3343 C   0  0  0  0  0  0  0  0  0  0  0  0
   20.4402   -9.3726    2.4738 C   0  0  0  0  0  0  0  0  0  0  0  0
   21.7060   -9.6962    1.9755 C   0  0  0  0  0  0  0  0  0  0  0  0
   22.8173   -8.9289    2.3382 C   0  0  0  0  0  0  0  0  0  0  0  0
   22.6633   -7.8382    3.1994 C   0  0  0  0  0  0  0  0  0  0  0  0
   21.3976   -7.5142    3.6976 C   0  0  0  0  0  0  0  0  0  0  0  0
   18.6509  -11.2374   12.4683 C   0  0  0  0  0  0  0  0  0  0  0  0
   19.4724  -11.4832   14.0726 S   0  0  0  0  0  0  0  0  0  0  0  0
   18.2096  -12.6640   14.6443 C   0  0  0  0  0  0  0  0  0  0  0  0
   17.3172  -12.0348   15.7056 C   0  0  0  0  0  0  0  0  0  0  0  0
   18.0761  -10.9981   16.5204 C   0  0  0  0  0  0  0  0  0  0  0  0
   18.1017  -11.3940   17.9209 N   0  0  0  0  0  0  0  0  0  0  0  0
   17.1468  -11.4591   18.2734 H   0  0  0  0  0  0  0  0  0  0  0  0
   18.6170  -10.6992   18.4613 H   0  0  0  0  0  0  0  0  0  0  0  0
   17.4373   -9.6536   16.3521 C   0  0  0  0  0  0  0  0  0  0  0  0
   16.1871   -9.5371   16.2452 O   0  0  0  0  0  0  0  0  0  0  0  0
   18.2339   -8.5160   16.3226 O   0  0  0  0  0  0  0  0  0  0  0  0
   19.1644   -8.5935   16.4014 H   0  0  0  0  0  0  0  0  0  0  0  0
  1  2  1  0  0  0
  2  3  1  0  0  0
  3  4  1  0  0  0
  4  5  1  0  0  0
  5 28  1  0  0  0
 28 29  1  0  0  0
 29 30  1  0  0  0
 30 31  1  0  0  0
 31 32  1  0  0  0
 32 36  1  0  0  0
 36 37  2  0  0  0
 36 38  1  0  0  0
 32 33  1  0  0  0
  3 10  1  0  0  0
 10 11  1  0  0  0
 11 12  2  0  0  0
 12 13  1  0  0  0
 13 14  2  0  0  0
 14 15  1  0  0  0
 15 16  2  0  0  0
 16 17  1  0  0  0
 17 18  2  0  0  0
 18 19  1  0  0  0
 19 21  1  0  0  0
 21 22  1  0  0  0
 22 23  2  0  0  0
 23 24  1  0  0  0
 24 25  2  0  0  0
 25 26  1  0  0  0
 26 27  2  0  0  0
  2  6  1  0  0  0
  1  7  1  0  0  0
  5  1  1  0  0  0
 14 10  1  0  0  0
 27 22  1  0  0  0
 18 13  1  0  0  0
 38 39  1  0  0  0
 33 34  1  0  0  0
 33 35  1  0  0  0
 19 20  1  0  0  0
  6  8  1  0  0  0
  7  9  1  0  0  0
M  END
>  <minimizedAffinity>
-5.94882

>  <minimizedRMSD>
3.39313

$$$$
CHEMBL4441848 PubChem-155515387


 32 35  0  0  0  0  0  0  0  0999 V2000
   16.3387   -9.7922   13.2595 N   0  0  0  0  0  0  0  0  0  0  0  0
   15.0649   -9.8525   12.9026 N   0  0  0  0  0  0  0  0  0  0  0  0
   14.9622  -10.1455   11.6167 N   0  0  0  0  0  0  0  0  0  0  0  0
   16.2213  -10.2624   11.1554 C   0  0  0  0  0  0  0  0  0  0  0  0
   17.1131  -10.0528   12.1876 C   0  0  0  0  0  0  0  0  0  0  0  0
   16.3415   -8.7114   16.8436 C   0  0  0  0  0  0  0  0  0  0  0  0
   15.9055   -8.9888   15.5434 C   0  0  0  0  0  0  0  0  0  0  0  0
   16.7933   -9.5096   14.5908 C   0  0  0  0  0  0  0  0  0  0  0  0
   18.1261   -9.7525   14.9581 C   0  0  0  0  0  0  0  0  0  0  0  0
   18.5629   -9.4781   16.2572 C   0  0  0  0  0  0  0  0  0  0  0  0
   17.6712   -8.9586   17.1989 C   0  0  0  0  0  0  0  0  0  0  0  0
   14.3582   -9.1739   18.5610 O   0  0  0  0  0  0  0  0  0  0  0  0
   15.2250   -8.0664   18.0326 S   0  0  0  0  0  0  0  0  0  0  0  0
   14.3567   -7.0147   17.4003 O   0  0  0  0  0  0  0  0  0  0  0  0
   16.1127   -7.3522   19.3315 N   0  0  0  0  0  0  0  0  0  0  0  0
   15.4624   -6.9775   20.0222 H   0  0  0  0  0  0  0  0  0  0  0  0
   16.6966   -6.5981   18.9700 H   0  0  0  0  0  0  0  0  0  0  0  0
   16.5694  -10.6693    9.7634 C   0  0  0  0  0  0  0  0  0  0  0  0
   15.6913   -9.9380    8.7606 C   0  0  0  0  0  0  0  0  0  0  0  0
   16.5167   -9.3148    7.7355 N   0  0  0  0  0  0  0  0  0  0  0  0
   16.2105   -9.3475    6.8004 H   0  0  0  0  0  0  0  0  0  0  0  0
   17.7551   -8.6561    8.0284 C   0  0  0  0  0  0  0  0  0  0  0  0
   18.6243   -8.2864    6.9892 C   0  0  0  0  0  0  0  0  0  0  0  0
   18.3062   -8.5343    5.6464 C   0  0  0  0  0  0  0  0  0  0  0  0
   19.1916   -8.1564    4.6331 C   0  0  0  0  0  0  0  0  0  0  0  0
   20.3991   -7.5297    4.9536 C   0  0  0  0  0  0  0  0  0  0  0  0
   20.7271   -7.2784    6.2887 C   0  0  0  0  0  0  0  0  0  0  0  0
   19.8479   -7.6529    7.3084 C   0  0  0  0  0  0  0  0  0  0  0  0
   20.1707   -7.4094    8.6057 N   0  0  0  0  0  0  0  0  0  0  0  0
   19.3418   -7.7616    9.6235 C   0  0  0  0  0  0  0  0  0  0  0  0
   18.1248   -8.3896    9.3538 C   0  0  0  0  0  0  0  0  0  0  0  0
   21.5034   -7.0596    3.6801 Cl  0  0  0  0  0  0  0  0  0  0  0  0
 12 13  2  0  0  0
 13 14  2  0  0  0
 13  6  1  0  0  0
  6  7  2  0  0  0
  7  8  1  0  0  0
  8  1  1  0  0  0
  1  2  1  0  0  0
  2  3  2  0  0  0
  3  4  1  0  0  0
  4 18  1  0  0  0
 18 19  1  0  0  0
 19 20  1  0  0  0
 20 22  1  0  0  0
 22 23  1  0  0  0
 23 24  2  0  0  0
 24 25  1  0  0  0
 25 26  2  0  0  0
 26 27  1  0  0  0
 27 28  2  0  0  0
 28 29  1  0  0  0
 29 30  2  0  0  0
 30 31  1  0  0  0
 26 32  1  0  0  0
  4  5  2  0  0  0
  8  9  2  0  0  0
  9 10  1  0  0  0
 10 11  2  0  0  0
 13 15  1  0  0  0
 11  6  1  0  0  0
  5  1  1  0  0  0
 31 22  2  0  0  0
 28 23  1  0  0  0
 20 21  1  0  0  0
 15 16  1  0  0  0
 15 17  1  0  0  0
M  END
>  <minimizedAffinity>
-4.98227

>  <minimizedRMSD>
3.40817

$$$$
CHEMBL2037408 PubChem-60166878


 33 37  0  0  0  0  0  0  0  0999 V2000
   16.1574   -9.4463   15.5460 C   0  0  0  0  0  0  0  0  0  0  0  0
   14.8249   -8.1278   17.2345 N   0  0  0  0  0  0  0  0  0  0  0  0
   16.0056   -8.8692   16.9102 C   0  0  0  0  0  0  0  0  0  0  0  0
   16.9111   -9.0562   17.7655 O   0  0  0  0  0  0  0  0  0  0  0  0
   14.1573   -8.0010   16.5222 H   0  0  0  0  0  0  0  0  0  0  0  0
   13.5166   -5.6496   22.7115 C   0  0  0  0  0  0  0  0  0  0  0  0
   14.6597   -6.4353   22.9930 C   0  0  0  0  0  0  0  0  0  0  0  0
   15.2886   -7.1808   21.9823 C   0  0  0  0  0  0  0  0  0  0  0  0
   14.7604   -7.1312   20.6933 C   0  0  0  0  0  0  0  0  0  0  0  0
   15.2714   -7.8034   19.6316 N   0  0  0  0  0  0  0  0  0  0  0  0
   14.5414   -7.5570   18.5154 C   0  0  0  0  0  0  0  0  0  0  0  0
   13.2444   -6.5078   18.7986 S   0  0  0  0  0  0  0  0  0  0  0  0
   13.6391   -6.3627   20.4231 C   0  0  0  0  0  0  0  0  0  0  0  0
   12.9980   -5.6152   21.4066 C   0  0  0  0  0  0  0  0  0  0  0  0
   12.8772   -4.9045   23.7089 O   0  0  0  0  0  0  0  0  0  0  0  0
   14.3779   -3.5564   25.0364 C   0  0  0  0  0  0  0  0  0  0  0  0
   13.4106   -4.7258   25.0169 C   0  0  0  0  0  0  0  0  0  0  0  0
   17.9006   -9.8536   15.2208 S   0  0  0  0  0  0  0  0  0  0  0  0
   17.6277  -10.0683   13.4665 C   0  0  0  0  0  0  0  0  0  0  0  0
   18.5298  -10.6033   12.6231 N   0  0  0  0  0  0  0  0  0  0  0  0
   17.9656  -10.5926   11.4255 N   0  0  0  0  0  0  0  0  0  0  0  0
   16.7454  -10.0491   11.5906 C   0  0  0  0  0  0  0  0  0  0  0  0
   16.5268   -9.7288   12.8423 O   0  0  0  0  0  0  0  0  0  0  0  0
   15.7548   -9.8712   10.4919 C   0  0  0  0  0  0  0  0  0  0  0  0
   16.4450   -9.7056    9.2216 N   0  0  0  0  0  0  0  0  0  0  0  0
   16.2191  -10.3995    8.0799 C   0  0  0  0  0  0  0  0  0  0  0  0
   17.0731  -10.0433    7.0817 N   0  0  0  0  0  0  0  0  0  0  0  0
   17.8497   -9.1027    7.6512 C   0  0  0  0  0  0  0  0  0  0  0  0
   18.9061   -8.4051    7.0707 C   0  0  0  0  0  0  0  0  0  0  0  0
   19.5846   -7.4705    7.8761 C   0  0  0  0  0  0  0  0  0  0  0  0
   19.1968   -7.2626    9.2195 C   0  0  0  0  0  0  0  0  0  0  0  0
   18.1246   -7.9855    9.7751 C   0  0  0  0  0  0  0  0  0  0  0  0
   17.4766   -8.8990    8.9449 C   0  0  0  0  0  0  0  0  0  0  0  0
 16 17  1  0  0  0
 17 15  1  0  0  0
 15  6  1  0  0  0
  6  7  2  0  0  0
  7  8  1  0  0  0
  8  9  2  0  0  0
  9 10  1  0  0  0
 10 11  2  0  0  0
 11  2  1  0  0  0
 11 12  1  0  0  0
  2  3  1  0  0  0
  3  4  2  0  0  0
  3  1  1  0  0  0
  1 18  1  0  0  0
 18 19  1  0  0  0
 19 20  2  0  0  0
 20 21  1  0  0  0
 21 22  2  0  0  0
 22 24  1  0  0  0
 22 23  1  0  0  0
 24 25  1  0  0  0
 25 26  1  0  0  0
 26 27  2  0  0  0
 27 28  1  0  0  0
 28 29  2  0  0  0
 29 30  1  0  0  0
 30 31  2  0  0  0
 31 32  1  0  0  0
 32 33  2  0  0  0
 33 25  1  0  0  0
 33 28  1  0  0  0
 23 19  1  0  0  0
 12 13  1  0  0  0
 13 14  2  0  0  0
 13  9  1  0  0  0
 14  6  1  0  0  0
  2  5  1  0  0  0
M  END
>  <minimizedAffinity>
-6.70025

>  <minimizedRMSD>
3.41291

$$$$
CHEMBL1969506 PubChem-49830885


 39 42  0  0  0  0  0  0  0  0999 V2000
   18.7883  -10.3764   12.7151 C   0  0  0  0  0  0  0  0  0  0  0  0
   17.5837  -11.0453   12.8740 C   0  0  0  0  0  0  0  0  0  0  0  0
   18.2041  -11.9590   13.7046 C   0  0  0  0  0  0  0  0  0  0  0  0
   17.8333  -12.9782   14.3434 O   0  0  0  0  0  0  0  0  0  0  0  0
   19.4049  -11.3036   13.5319 C   0  0  0  0  0  0  0  0  0  0  0  0
   20.5796  -11.4770   13.9497 O   0  0  0  0  0  0  0  0  0  0  0  0
   19.2613   -9.2276   12.0021 N   0  0  0  0  0  0  0  0  0  0  0  0
   19.7401   -8.5454   12.5260 H   0  0  0  0  0  0  0  0  0  0  0  0
   19.1332   -7.4867    5.5897 C   0  0  0  0  0  0  0  0  0  0  0  0
   20.1278   -6.7645    5.8751 O   0  0  0  0  0  0  0  0  0  0  0  0
   18.5054   -8.2835    6.6024 N   0  0  0  0  0  0  0  0  0  0  0  0
   17.4509   -9.0598    6.3758 N   0  0  0  0  0  0  0  0  0  0  0  0
   17.0936   -9.6795    7.5303 C   0  0  0  0  0  0  0  0  0  0  0  0
   17.9767   -9.2580    8.5034 C   0  0  0  0  0  0  0  0  0  0  0  0
   18.0695   -9.5750    9.8540 C   0  0  0  0  0  0  0  0  0  0  0  0
   19.1052   -8.9755   10.6013 C   0  0  0  0  0  0  0  0  0  0  0  0
   19.9929   -8.0719    9.9722 C   0  0  0  0  0  0  0  0  0  0  0  0
   19.8714   -7.7705    8.6029 C   0  0  0  0  0  0  0  0  0  0  0  0
   18.8402   -8.3926    7.8999 C   0  0  0  0  0  0  0  0  0  0  0  0
   18.6288   -7.5194    4.2811 O   0  0  0  0  0  0  0  0  0  0  0  0
   19.4565   -6.3960    2.2965 C   0  0  0  0  0  0  0  0  0  0  0  0
   19.4270   -7.6807    3.1062 C   0  0  0  0  0  0  0  0  0  0  0  0
   18.8167   -8.7716    2.2521 C   0  0  0  0  0  0  0  0  0  0  0  0
   20.8432   -8.0916    3.4699 C   0  0  0  0  0  0  0  0  0  0  0  0
   16.2583  -10.8773   12.3711 N   0  0  0  0  0  0  0  0  0  0  0  0
   15.8234  -11.6328   11.9137 H   0  0  0  0  0  0  0  0  0  0  0  0
   15.5293   -9.6267   12.5120 C   0  0  0  0  0  0  0  0  0  0  0  0
   15.5441   -9.1821   13.9351 C   0  0  0  0  0  0  0  0  0  0  0  0
   15.9576   -7.8853   14.2611 C   0  0  0  0  0  0  0  0  0  0  0  0
   15.9896   -7.4761   15.5973 C   0  0  0  0  0  0  0  0  0  0  0  0
   15.6094   -8.3619   16.6120 C   0  0  0  0  0  0  0  0  0  0  0  0
   15.2002   -9.6596   16.2851 C   0  0  0  0  0  0  0  0  0  0  0  0
   15.1678  -10.0690   14.9489 C   0  0  0  0  0  0  0  0  0  0  0  0
   15.6609   -7.8463   18.2876 S   0  0  0  0  0  0  0  0  0  0  0  0
   15.2757   -9.1746   19.3239 N   0  0  0  0  0  0  0  0  0  0  0  0
   17.0381   -7.3443   18.6163 O   0  0  0  0  0  0  0  0  0  0  0  0
   14.6573   -6.7500   18.5080 O   0  0  0  0  0  0  0  0  0  0  0  0
   15.9522   -9.9245   19.1812 H   0  0  0  0  0  0  0  0  0  0  0  0
   14.3393   -9.5154   19.1060 H   0  0  0  0  0  0  0  0  0  0  0  0
 21 22  1  0  0  0
 22 23  1  0  0  0
 22 24  1  0  0  0
 22 20  1  0  0  0
 20  9  1  0  0  0
  9 10  2  0  0  0
  9 11  1  0  0  0
 11 12  1  0  0  0
 12 13  2  0  0  0
 13 14  1  0  0  0
 14 15  2  0  0  0
 15 16  1  0  0  0
 16  7  1  0  0  0
 16 17  2  0  0  0
  7  1  1  0  0  0
  1  2  2  0  0  0
  2 25  1  0  0  0
  2  3  1  0  0  0
 25 27  1  0  0  0
 27 28  1  0  0  0
 28 29  2  0  0  0
 29 30  1  0  0  0
 30 31  2  0  0  0
 31 34  1  0  0  0
 31 32  1  0  0  0
 34 35  1  0  0  0
 34 36  2  0  0  0
 34 37  2  0  0  0
 32 33  2  0  0  0
 33 28  1  0  0  0
  3  4  2  0  0  0
  3  5  1  0  0  0
  5  6  2  0  0  0
  5  1  1  0  0  0
 17 18  1  0  0  0
 18 19  2  0  0  0
 19 11  1  0  0  0
 19 14  1  0  0  0
  7  8  1  0  0  0
 25 26  1  0  0  0
 35 38  1  0  0  0
 35 39  1  0  0  0
M  END
>  <minimizedAffinity>
0.79010

>  <minimizedRMSD>
3.41342

$$$$
CHEMBL3653623


 35 40  0  0  0  0  0  0  0  0999 V2000
   17.8470   -9.3437   10.2750 C   0  0  0  0  0  0  0  0  0  0  0  0
   17.3210  -10.1063    9.2093 C   0  0  0  0  0  0  0  0  0  0  0  0
   16.0344  -10.6513    9.3341 C   0  0  0  0  0  0  0  0  0  0  0  0
   15.3623  -10.4232   10.4832 N   0  0  0  0  0  0  0  0  0  0  0  0
   14.1650  -10.8789   10.8181 N   0  0  0  0  0  0  0  0  0  0  0  0
   13.9107  -10.4657   12.0932 C   0  0  0  0  0  0  0  0  0  0  0  0
   14.9997   -9.7170   12.5452 C   0  0  0  0  0  0  0  0  0  0  0  0
   15.8830   -9.7319   11.4955 C   0  0  0  0  0  0  0  0  0  0  0  0
   17.1107   -9.1679   11.4109 N   0  0  0  0  0  0  0  0  0  0  0  0
   15.2536   -9.2705   13.9185 C   0  0  0  0  0  0  0  0  0  0  0  0
   14.8267   -8.0185   14.3712 C   0  0  0  0  0  0  0  0  0  0  0  0
   15.0739   -7.6309   15.6940 C   0  0  0  0  0  0  0  0  0  0  0  0
   15.7352   -8.5001   16.5897 C   0  0  0  0  0  0  0  0  0  0  0  0
   16.1456   -9.7648   16.1297 C   0  0  0  0  0  0  0  0  0  0  0  0
   16.7074  -10.6761   16.9660 F   0  0  0  0  0  0  0  0  0  0  0  0
   15.9187  -10.1352   14.8009 C   0  0  0  0  0  0  0  0  0  0  0  0
   15.9777   -8.0637   17.9824 C   0  0  0  0  0  0  0  0  0  0  0  0
   15.0001   -7.8930   18.8972 N   0  0  0  0  0  0  0  0  0  0  0  0
   15.6753   -7.4326   19.9693 C   0  0  0  0  0  0  0  0  0  0  0  0
   16.9964   -7.3356   19.7125 N   0  0  0  0  0  0  0  0  0  0  0  0
   17.1865   -7.7247   18.4670 N   0  0  0  0  0  0  0  0  0  0  0  0
   17.6909   -7.0303   20.3400 H   0  0  0  0  0  0  0  0  0  0  0  0
   20.3425   -9.8077   11.8709 O   0  0  0  0  0  0  0  0  0  0  0  0
   20.2687   -8.9255   10.9756 C   0  0  0  0  0  0  0  0  0  0  0  0
   21.2676   -8.0106   10.7306 O   0  0  0  0  0  0  0  0  0  0  0  0
   20.8539   -7.1165    9.7022 C   0  0  0  0  0  0  0  0  0  0  0  0
   19.3810   -7.4822    9.4165 C   0  0  0  0  0  0  0  0  0  0  0  0
   19.1282   -8.7088   10.1615 N   0  0  0  0  0  0  0  0  0  0  0  0
   19.1147   -7.6711    7.9490 C   0  0  0  0  0  0  0  0  0  0  0  0
   20.1717   -7.7452    7.0321 C   0  0  0  0  0  0  0  0  0  0  0  0
   19.9142   -7.9917    5.6797 C   0  0  0  0  0  0  0  0  0  0  0  0
   18.6007   -8.1655    5.2397 C   0  0  0  0  0  0  0  0  0  0  0  0
   17.5377   -8.0584    6.1420 C   0  0  0  0  0  0  0  0  0  0  0  0
   17.7882   -7.7947    7.4918 C   0  0  0  0  0  0  0  0  0  0  0  0
   16.7456   -7.7096    8.3552 F   0  0  0  0  0  0  0  0  0  0  0  0
 23 24  2  0  0  0
 24 25  1  0  0  0
 25 26  1  0  0  0
 26 27  1  0  0  0
 27 29  1  0  0  0
 29 30  2  0  0  0
 30 31  1  0  0  0
 31 32  2  0  0  0
 32 33  1  0  0  0
 33 34  2  0  0  0
 34 35  1  0  0  0
 27 28  1  0  0  0
 28  1  1  0  0  0
  1  2  1  0  0  0
  2  3  2  0  0  0
  3  4  1  0  0  0
  4  5  1  0  0  0
  5  6  2  0  0  0
  6  7  1  0  0  0
  7 10  1  0  0  0
 10 11  2  0  0  0
 11 12  1  0  0  0
 12 13  2  0  0  0
 13 17  1  0  0  0
 17 18  1  0  0  0
 18 19  2  0  0  0
 19 20  1  0  0  0
 20 21  1  0  0  0
 13 14  1  0  0  0
 14 15  1  0  0  0
 14 16  2  0  0  0
  7  8  2  0  0  0
  8  9  1  0  0  0
 28 24  1  0  0  0
  9  1  2  0  0  0
 34 29  1  0  0  0
  8  4  1  0  0  0
 16 10  1  0  0  0
 21 17  2  0  0  0
 20 22  1  0  0  0
M  END
>  <minimizedAffinity>
10.95844

>  <minimizedRMSD>
3.42500

$$$$
CHEMBL4798804 PubChem-162674923


 30 33  0  0  0  0  0  0  0  0999 V2000
   18.0800  -10.4536   14.0322 C   0  0  0  0  0  0  0  0  0  0  0  0
   16.6206   -9.9693   13.9565 C   0  0  0  0  0  0  0  0  0  0  0  0
   16.3976   -8.6287   14.6551 C   0  0  0  0  0  0  0  0  0  0  0  0
   16.9396   -8.6925   16.0128 N   0  0  0  0  0  0  0  0  0  0  0  0
   18.2997   -9.1985   16.2282 C   0  0  0  0  0  0  0  0  0  0  0  0
   18.9792   -9.5702   14.9070 C   0  0  0  0  0  0  0  0  0  0  0  0
   18.1197  -11.8909   14.5154 C   0  0  0  0  0  0  0  0  0  0  0  0
   16.1428   -9.9195   12.5390 C   0  0  0  0  0  0  0  0  0  0  0  0
   14.7832  -10.1003   12.2502 C   0  0  0  0  0  0  0  0  0  0  0  0
   14.3603  -10.0474   10.9065 C   0  0  0  0  0  0  0  0  0  0  0  0
   15.2631   -9.8244    9.9041 N   0  0  0  0  0  0  0  0  0  0  0  0
   16.5675   -9.6557   10.2298 C   0  0  0  0  0  0  0  0  0  0  0  0
   16.9835   -9.7029   11.4929 N   0  0  0  0  0  0  0  0  0  0  0  0
   18.2868   -9.5073   11.5097 N   0  0  0  0  0  0  0  0  0  0  0  0
   18.6370   -9.3408   10.2086 C   0  0  0  0  0  0  0  0  0  0  0  0
   17.5703   -9.4289    9.3671 N   0  0  0  0  0  0  0  0  0  0  0  0
   12.9189  -10.2389   10.5846 C   0  0  0  0  0  0  0  0  0  0  0  0
   12.7887  -10.8426    9.3479 F   0  0  0  0  0  0  0  0  0  0  0  0
   12.2709   -9.0177   10.5774 F   0  0  0  0  0  0  0  0  0  0  0  0
   16.1244   -8.3373   17.1428 C   0  0  0  0  0  0  0  0  0  0  0  0
   16.5947   -8.5208   18.4093 N   0  0  0  0  0  0  0  0  0  0  0  0
   15.8579   -8.1971   19.5050 C   0  0  0  0  0  0  0  0  0  0  0  0
   14.5793   -7.6588   19.3549 C   0  0  0  0  0  0  0  0  0  0  0  0
   14.0623   -7.4549   18.0709 C   0  0  0  0  0  0  0  0  0  0  0  0
   14.8426   -7.7970   16.9603 C   0  0  0  0  0  0  0  0  0  0  0  0
   12.7146   -6.8872   17.8899 C   0  0  0  0  0  0  0  0  0  0  0  0
   11.8768   -7.4740   17.1511 O   0  0  0  0  0  0  0  0  0  0  0  0
   12.3549   -5.6714   18.5512 N   0  0  0  0  0  0  0  0  0  0  0  0
   11.0375   -5.0755   18.4058 C   0  0  0  0  0  0  0  0  0  0  0  0
   13.0203   -5.2242   19.1226 H   0  0  0  0  0  0  0  0  0  0  0  0
  1  2  1  0  0  0
  2  3  1  0  0  0
  3  4  1  0  0  0
  4  5  1  0  0  0
  5  6  1  0  0  0
  4 20  1  0  0  0
 20 21  2  0  0  0
 21 22  1  0  0  0
 22 23  2  0  0  0
 23 24  1  0  0  0
 24 25  2  0  0  0
 24 26  1  0  0  0
 26 27  2  0  0  0
 26 28  1  0  0  0
 28 29  1  0  0  0
  2  8  1  0  0  0
  8  9  2  0  0  0
  9 10  1  0  0  0
 10 11  2  0  0  0
 11 12  1  0  0  0
 12 13  1  0  0  0
 13 14  1  0  0  0
 14 15  2  0  0  0
 15 16  1  0  0  0
 10 17  1  0  0  0
 17 18  1  0  0  0
 17 19  1  0  0  0
  1  7  1  0  0  0
  6  1  1  0  0  0
 25 20  1  0  0  0
 13  8  1  0  0  0
 16 12  2  0  0  0
 28 30  1  0  0  0
M  END
>  <minimizedAffinity>
-2.89234

>  <minimizedRMSD>
3.42539

$$$$
CHEMBL4164589 PubChem-145957582


 31 33  0  0  0  0  0  0  0  0999 V2000
   17.9866  -11.7536   15.2408 N   0  0  0  0  0  0  0  0  0  0  0  0
   19.0549  -11.2652   14.4193 C   0  0  0  0  0  0  0  0  0  0  0  0
   19.6532  -10.1912   14.6929 O   0  0  0  0  0  0  0  0  0  0  0  0
   17.5791  -12.6088   14.9727 H   0  0  0  0  0  0  0  0  0  0  0  0
   16.1025   -9.4165   17.4989 C   0  0  0  0  0  0  0  0  0  0  0  0
   16.6109  -10.0037   16.3354 C   0  0  0  0  0  0  0  0  0  0  0  0
   17.4502  -11.1254   16.4125 C   0  0  0  0  0  0  0  0  0  0  0  0
   17.7714  -11.6544   17.6672 C   0  0  0  0  0  0  0  0  0  0  0  0
   17.2636  -11.0715   18.8320 C   0  0  0  0  0  0  0  0  0  0  0  0
   16.4292   -9.9541   18.7477 C   0  0  0  0  0  0  0  0  0  0  0  0
   13.6146   -8.4711   17.3894 O   0  0  0  0  0  0  0  0  0  0  0  0
   15.0474   -8.0194   17.3970 S   0  0  0  0  0  0  0  0  0  0  0  0
   15.3339   -7.2544   16.1354 O   0  0  0  0  0  0  0  0  0  0  0  0
   15.3243   -6.9859   18.7534 N   0  0  0  0  0  0  0  0  0  0  0  0
   14.7101   -6.1738   18.6930 H   0  0  0  0  0  0  0  0  0  0  0  0
   16.2966   -6.6776   18.7531 H   0  0  0  0  0  0  0  0  0  0  0  0
   19.4384  -12.0242   13.1965 C   0  0  0  0  0  0  0  0  0  0  0  0
   19.0737  -11.2705   12.0069 N   0  0  0  0  0  0  0  0  0  0  0  0
   17.9599  -10.5664   11.7871 C   0  0  0  0  0  0  0  0  0  0  0  0
   16.8898  -10.4253   12.6061 N   0  0  0  0  0  0  0  0  0  0  0  0
   15.8566   -9.6403   12.1743 C   0  0  0  0  0  0  0  0  0  0  0  0
   15.9162   -9.0199   10.9515 N   0  0  0  0  0  0  0  0  0  0  0  0
   17.0033   -9.1646   10.1310 C   0  0  0  0  0  0  0  0  0  0  0  0
   18.0438   -9.9649   10.5814 C   0  0  0  0  0  0  0  0  0  0  0  0
   19.2177  -10.2580    9.9903 N   0  0  0  0  0  0  0  0  0  0  0  0
   19.8336  -11.0638   10.9023 C   0  0  0  0  0  0  0  0  0  0  0  0
   17.0741   -8.5165    8.8579 N   0  0  0  0  0  0  0  0  0  0  0  0
   18.1953   -8.3404    8.2337 C   0  0  0  0  0  0  0  0  0  0  0  0
   18.2383   -7.6901    6.9628 N   0  0  0  0  0  0  0  0  0  0  0  0
   19.5251   -7.4008    6.3603 C   0  0  0  0  0  0  0  0  0  0  0  0
   17.0248   -7.3086    6.2588 C   0  0  0  0  0  0  0  0  0  0  0  0
 11 12  2  0  0  0
 12 13  2  0  0  0
 12  5  1  0  0  0
  5  6  2  0  0  0
  6  7  1  0  0  0
  7  1  1  0  0  0
  1  2  1  0  0  0
  2  3  2  0  0  0
  2 17  1  0  0  0
 17 18  1  0  0  0
 18 19  1  0  0  0
 19 20  2  0  0  0
 20 21  1  0  0  0
 21 22  2  0  0  0
 22 23  1  0  0  0
 23 24  2  0  0  0
 24 25  1  0  0  0
 25 26  2  0  0  0
 23 27  1  0  0  0
 27 28  2  0  0  0
 28 29  1  0  0  0
 29 30  1  0  0  0
 29 31  1  0  0  0
  7  8  2  0  0  0
  8  9  1  0  0  0
  9 10  2  0  0  0
 12 14  1  0  0  0
 10  5  1  0  0  0
 26 18  1  0  0  0
 24 19  1  0  0  0
  1  4  1  0  0  0
 14 15  1  0  0  0
 14 16  1  0  0  0
M  END
>  <minimizedAffinity>
7.19939

>  <minimizedRMSD>
3.42886

$$$$
CHEMBL1783001 PubChem-136000597


 40 42  0  0  0  0  0  0  0  0999 V2000
   18.8231  -10.4975   13.8184 C   0  0  0  0  0  0  0  0  0  0  0  0
   17.5478  -10.0316   13.2926 N   0  0  0  0  0  0  0  0  0  0  0  0
   17.0524  -10.3997   12.0043 C   0  0  0  0  0  0  0  0  0  0  0  0
   17.7015  -11.1885   11.2661 O   0  0  0  0  0  0  0  0  0  0  0  0
   17.0005   -9.4341   13.8519 H   0  0  0  0  0  0  0  0  0  0  0  0
   15.7674   -9.8175   11.5226 C   0  0  0  0  0  0  0  0  0  0  0  0
   15.6400   -9.9268   10.0063 C   0  0  0  0  0  0  0  0  0  0  0  0
   16.7751   -9.2554    9.2991 C   0  0  0  0  0  0  0  0  0  0  0  0
   16.8188   -9.2589    7.9405 N   0  0  0  0  0  0  0  0  0  0  0  0
   17.8566   -8.6897    7.2738 C   0  0  0  0  0  0  0  0  0  0  0  0
   17.8878   -8.7067    5.8757 C   0  0  0  0  0  0  0  0  0  0  0  0
   18.9643   -8.1320    5.1921 C   0  0  0  0  0  0  0  0  0  0  0  0
   20.0114   -7.5371    5.9034 C   0  0  0  0  0  0  0  0  0  0  0  0
   19.9872   -7.5145    7.3009 C   0  0  0  0  0  0  0  0  0  0  0  0
   18.9111   -8.0909    7.9936 C   0  0  0  0  0  0  0  0  0  0  0  0
   18.8459   -8.1010    9.3925 C   0  0  0  0  0  0  0  0  0  0  0  0
   19.7593   -7.5801   10.0870 O   0  0  0  0  0  0  0  0  0  0  0  0
   17.7854   -8.6867   10.0116 N   0  0  0  0  0  0  0  0  0  0  0  0
   17.7481   -8.6994   10.9953 H   0  0  0  0  0  0  0  0  0  0  0  0
   19.0274  -11.9408   13.4828 C   0  0  0  0  0  0  0  0  0  0  0  0
   20.1409  -12.3176   13.0274 O   0  0  0  0  0  0  0  0  0  0  0  0
   17.9874  -13.7514   14.7853 C   0  0  0  0  0  0  0  0  0  0  0  0
   17.9917  -12.8555   13.6851 O   0  0  0  0  0  0  0  0  0  0  0  0
   18.8406  -10.3050   15.3235 C   0  0  0  0  0  0  0  0  0  0  0  0
   18.1533  -11.4687   16.0170 C   0  0  0  0  0  0  0  0  0  0  0  0
   18.0989  -11.2210   17.5118 C   0  0  0  0  0  0  0  0  0  0  0  0
   16.9626  -10.2664   17.8385 C   0  0  0  0  0  0  0  0  0  0  0  0
   17.1616   -8.9944   17.1585 N   0  0  0  0  0  0  0  0  0  0  0  0
   16.4377   -8.6260   15.9828 C   0  0  0  0  0  0  0  0  0  0  0  0
   15.5793   -9.4139   15.4998 O   0  0  0  0  0  0  0  0  0  0  0  0
   16.6959   -7.3521   15.3770 N   0  0  0  0  0  0  0  0  0  0  0  0
   17.8220   -8.3622   17.5237 H   0  0  0  0  0  0  0  0  0  0  0  0
   17.4102   -6.8079   15.7805 H   0  0  0  0  0  0  0  0  0  0  0  0
   16.0201   -6.7889   14.2433 C   0  0  0  0  0  0  0  0  0  0  0  0
   15.0731   -7.5676   13.5681 C   0  0  0  0  0  0  0  0  0  0  0  0
   14.4035   -7.0595   12.4510 C   0  0  0  0  0  0  0  0  0  0  0  0
   14.6770   -5.7652   12.0032 C   0  0  0  0  0  0  0  0  0  0  0  0
   15.6193   -4.9800   12.6717 C   0  0  0  0  0  0  0  0  0  0  0  0
   15.8754   -3.7215   12.2418 F   0  0  0  0  0  0  0  0  0  0  0  0
   16.2896   -5.4907   13.7868 C   0  0  0  0  0  0  0  0  0  0  0  0
 22 23  1  0  0  0
 23 20  1  0  0  0
 20 21  2  0  0  0
  1 20  1  0  0  0
  1 24  1  0  0  0
  1  2  1  0  0  0
 24 25  1  0  0  0
 25 26  1  0  0  0
 26 27  1  0  0  0
 27 28  1  0  0  0
 28 29  1  0  0  0
 29 30  2  0  0  0
 29 31  1  0  0  0
 31 34  1  0  0  0
 34 35  2  0  0  0
 35 36  1  0  0  0
 36 37  2  0  0  0
 37 38  1  0  0  0
 38 39  1  0  0  0
 38 40  2  0  0  0
 40 34  1  0  0  0
  2  3  1  0  0  0
  3  4  2  0  0  0
  3  6  1  0  0  0
  6  7  1  0  0  0
  7  8  1  0  0  0
  8  9  2  0  0  0
  9 10  1  0  0  0
 10 11  2  0  0  0
 11 12  1  0  0  0
 12 13  2  0  0  0
 13 14  1  0  0  0
 14 15  2  0  0  0
 15 16  1  0  0  0
 15 10  1  0  0  0
 16 17  2  0  0  0
 16 18  1  0  0  0
 18  8  1  0  0  0
 28 32  1  0  0  0
 31 33  1  0  0  0
  2  5  1  0  0  0
 18 19  1  0  0  0
M  END
>  <minimizedAffinity>
7.61664

>  <minimizedRMSD>
3.43619

$$$$
CHEMBL3397318 PubChem-118726587


 40 43  0  0  0  0  0  0  0  0999 V2000
   17.0226   -8.7258   10.0788 C   0  0  0  0  0  0  0  0  0  0  0  0
   16.2477   -9.9398    9.5984 C   0  0  0  0  0  0  0  0  0  0  0  0
   15.7679  -10.5435   10.8831 C   0  0  0  0  0  0  0  0  0  0  0  0
   16.5814   -9.8499   11.9605 C   0  0  0  0  0  0  0  0  0  0  0  0
   17.5224   -8.9929   11.3613 O   0  0  0  0  0  0  0  0  0  0  0  0
   14.4168  -10.2473   11.0617 O   0  0  0  0  0  0  0  0  0  0  0  0
   17.0885  -10.8557    8.9608 O   0  0  0  0  0  0  0  0  0  0  0  0
   14.2921   -9.2854   11.0476 H   0  0  0  0  0  0  0  0  0  0  0  0
   17.8046  -11.1110    9.5632 H   0  0  0  0  0  0  0  0  0  0  0  0
   18.0959   -8.3423    9.1641 N   0  0  0  0  0  0  0  0  0  0  0  0
   18.1144   -8.3625    7.8252 C   0  0  0  0  0  0  0  0  0  0  0  0
   19.2915   -7.8677    7.3873 C   0  0  0  0  0  0  0  0  0  0  0  0
   20.0663   -7.5066    8.4270 N   0  0  0  0  0  0  0  0  0  0  0  0
   19.2949   -7.8090    9.5103 C   0  0  0  0  0  0  0  0  0  0  0  0
   19.5415   -7.7799    6.0256 C   0  0  0  0  0  0  0  0  0  0  0  0
   18.5655   -8.2054    5.1698 N   0  0  0  0  0  0  0  0  0  0  0  0
   17.3752   -8.7021    5.6392 C   0  0  0  0  0  0  0  0  0  0  0  0
   17.1382   -8.7833    6.9838 N   0  0  0  0  0  0  0  0  0  0  0  0
   20.7696   -7.2610    5.5273 N   0  0  0  0  0  0  0  0  0  0  0  0
   21.4658   -6.9573    6.1536 H   0  0  0  0  0  0  0  0  0  0  0  0
   20.9228   -7.2058    4.5564 H   0  0  0  0  0  0  0  0  0  0  0  0
   17.2961  -10.8911   12.8052 C   0  0  0  0  0  0  0  0  0  0  0  0
   19.0971  -10.6253   12.7643 S   0  0  0  0  0  0  0  0  0  0  0  0
   19.1744  -10.1300   14.5111 C   0  0  0  0  0  0  0  0  0  0  0  0
   18.2324  -10.9898   15.3351 C   0  0  0  0  0  0  0  0  0  0  0  0
   17.8327  -10.2609   16.6113 C   0  0  0  0  0  0  0  0  0  0  0  0
   17.7244  -11.2195   17.6966 N   0  0  0  0  0  0  0  0  0  0  0  0
   16.9933  -11.8970   17.4802 H   0  0  0  0  0  0  0  0  0  0  0  0
   17.4897  -10.7302   18.5603 H   0  0  0  0  0  0  0  0  0  0  0  0
   16.5393   -9.5087   16.4761 C   0  0  0  0  0  0  0  0  0  0  0  0
   15.7479   -9.7477   15.5225 O   0  0  0  0  0  0  0  0  0  0  0  0
   16.2146   -8.5080   17.4442 N   0  0  0  0  0  0  0  0  0  0  0  0
   16.8598   -8.3236   18.1646 H   0  0  0  0  0  0  0  0  0  0  0  0
   14.9712   -7.7489   17.4120 C   0  0  0  0  0  0  0  0  0  0  0  0
   14.4147   -7.5983   18.7876 C   0  0  0  0  0  0  0  0  0  0  0  0
   13.0534   -7.3272   18.9640 C   0  0  0  0  0  0  0  0  0  0  0  0
   12.5265   -7.1970   20.2526 C   0  0  0  0  0  0  0  0  0  0  0  0
   13.3598   -7.3390   21.3665 C   0  0  0  0  0  0  0  0  0  0  0  0
   14.7202   -7.6117   21.1920 C   0  0  0  0  0  0  0  0  0  0  0  0
   15.2476   -7.7422   19.9036 C   0  0  0  0  0  0  0  0  0  0  0  0
  1 10  1  0  0  0
  1  2  1  0  0  0
  2  3  1  0  0  0
  3  4  1  0  0  0
  4  5  1  0  0  0
  4 22  1  0  0  0
 22 23  1  0  0  0
 23 24  1  0  0  0
 24 25  1  0  0  0
 26 25  1  0  0  0
 26 30  1  0  0  0
 30 31  2  0  0  0
 30 32  1  0  0  0
 32 34  1  0  0  0
 34 35  1  0  0  0
 35 36  2  0  0  0
 36 37  1  0  0  0
 37 38  2  0  0  0
 38 39  1  0  0  0
 39 40  2  0  0  0
 26 27  1  0  0  0
  3  6  1  0  0  0
  2  7  1  0  0  0
 10 11  1  0  0  0
 11 12  2  0  0  0
 12 13  1  0  0  0
 13 14  2  0  0  0
 12 15  1  0  0  0
 15 16  2  0  0  0
 16 17  1  0  0  0
 17 18  2  0  0  0
 15 19  1  0  0  0
 14 10  1  0  0  0
  5  1  1  0  0  0
 40 35  1  0  0  0
 18 11  1  0  0  0
 32 33  1  0  0  0
 27 28  1  0  0  0
 27 29  1  0  0  0
  6  8  1  0  0  0
  7  9  1  0  0  0
 19 20  1  0  0  0
 19 21  1  0  0  0
M  END
>  <minimizedAffinity>
-5.96282

>  <minimizedRMSD>
3.43806

$$$$
CHEMBL375115 PubChem-25190919


 33 36  0  0  0  0  0  0  0  0999 V2000
   17.0827   -9.6575   14.5117 C   0  0  0  0  0  0  0  0  0  0  0  0
   16.3720   -9.7743   13.3054 C   0  0  0  0  0  0  0  0  0  0  0  0
   17.2113   -9.7434   12.1960 C   0  0  0  0  0  0  0  0  0  0  0  0
   18.8127   -9.5766   12.7006 S   0  0  0  0  0  0  0  0  0  0  0  0
   18.4559   -9.5420   14.3406 C   0  0  0  0  0  0  0  0  0  0  0  0
   16.7627   -9.8355   10.8345 N   0  0  0  0  0  0  0  0  0  0  0  0
   17.2989   -9.3053    9.7222 C   0  0  0  0  0  0  0  0  0  0  0  0
   18.4403   -8.5200    9.5770 C   0  0  0  0  0  0  0  0  0  0  0  0
   18.7868   -8.0877    8.2769 C   0  0  0  0  0  0  0  0  0  0  0  0
   17.9815   -8.4547    7.1683 C   0  0  0  0  0  0  0  0  0  0  0  0
   16.8313   -9.2535    7.3621 C   0  0  0  0  0  0  0  0  0  0  0  0
   16.5281   -9.6562    8.6579 C   0  0  0  0  0  0  0  0  0  0  0  0
   15.4899  -10.4115    9.0570 N   0  0  0  0  0  0  0  0  0  0  0  0
   15.6629  -10.5033   10.4023 C   0  0  0  0  0  0  0  0  0  0  0  0
   18.3454   -8.0143    5.8912 O   0  0  0  0  0  0  0  0  0  0  0  0
   18.8556   -8.8871    4.8926 C   0  0  0  0  0  0  0  0  0  0  0  0
   19.9201   -7.2966    8.0600 O   0  0  0  0  0  0  0  0  0  0  0  0
   20.6232   -7.2826    6.8251 C   0  0  0  0  0  0  0  0  0  0  0  0
   19.4267   -9.4059   15.3911 C   0  0  0  0  0  0  0  0  0  0  0  0
   20.2084   -9.2964   16.2373 N   0  0  0  0  0  0  0  0  0  0  0  0
   16.4828   -9.6568   15.7757 O   0  0  0  0  0  0  0  0  0  0  0  0
   15.0826   -9.8303   15.9682 C   0  0  0  0  0  0  0  0  0  0  0  0
   14.5343   -8.7414   16.8276 C   0  0  0  0  0  0  0  0  0  0  0  0
   13.2326   -8.2764   16.6184 C   0  0  0  0  0  0  0  0  0  0  0  0
   12.7209   -7.2465   17.4128 C   0  0  0  0  0  0  0  0  0  0  0  0
   13.5071   -6.6725   18.4228 C   0  0  0  0  0  0  0  0  0  0  0  0
   14.8122   -7.1437   18.6268 C   0  0  0  0  0  0  0  0  0  0  0  0
   15.3242   -8.1734   17.8322 C   0  0  0  0  0  0  0  0  0  0  0  0
   12.9681   -5.5864   19.2599 C   0  0  0  0  0  0  0  0  0  0  0  0
   12.7208   -4.4580   18.7569 O   0  0  0  0  0  0  0  0  0  0  0  0
   12.7208   -5.7990   20.6469 N   0  0  0  0  0  0  0  0  0  0  0  0
   12.9099   -6.6762   21.0519 H   0  0  0  0  0  0  0  0  0  0  0  0
   12.3608   -5.0686   21.2003 H   0  0  0  0  0  0  0  0  0  0  0  0
 23 24  2  0  0  0
 24 25  1  0  0  0
 25 26  2  0  0  0
 26 27  1  0  0  0
 27 28  2  0  0  0
 26 29  1  0  0  0
 29 30  2  0  0  0
 29 31  1  0  0  0
 23 22  1  0  0  0
 22 21  1  0  0  0
 21  1  1  0  0  0
  1  2  1  0  0  0
  2  3  2  0  0  0
  3  6  1  0  0  0
  6  7  1  0  0  0
  7  8  2  0  0  0
  8  9  1  0  0  0
  9 10  2  0  0  0
 10 11  1  0  0  0
 11 12  2  0  0  0
 12 13  1  0  0  0
 13 14  2  0  0  0
 10 15  1  0  0  0
 15 16  1  0  0  0
  9 17  1  0  0  0
 17 18  1  0  0  0
  3  4  1  0  0  0
  4  5  1  0  0  0
  5 19  1  0  0  0
 19 20  3  0  0  0
 28 23  1  0  0  0
  5  1  2  0  0  0
 14  6  1  0  0  0
 12  7  1  0  0  0
 31 32  1  0  0  0
 31 33  1  0  0  0
M  END
>  <minimizedAffinity>
-0.82591

>  <minimizedRMSD>
3.44303

$$$$
CHEMBL4173465 PubChem-145951848


 32 36  0  0  0  0  0  0  0  0999 V2000
   16.9691   -9.9430   12.3039 C   0  0  0  0  0  0  0  0  0  0  0  0
   16.4290   -8.9426   13.1351 C   0  0  0  0  0  0  0  0  0  0  0  0
   16.5984   -9.0779   14.5101 C   0  0  0  0  0  0  0  0  0  0  0  0
   17.2705  -10.1334   15.0540 C   0  0  0  0  0  0  0  0  0  0  0  0
   17.8384  -11.1359   14.2706 C   0  0  0  0  0  0  0  0  0  0  0  0
   17.6812  -11.0291   12.8774 C   0  0  0  0  0  0  0  0  0  0  0  0
   17.2893   -9.9978   16.3864 N   0  0  0  0  0  0  0  0  0  0  0  0
   16.6127   -8.8388   16.6107 C   0  0  0  0  0  0  0  0  0  0  0  0
   16.1753   -8.2381   15.4732 N   0  0  0  0  0  0  0  0  0  0  0  0
   17.9801  -10.8566   17.3368 C   0  0  0  0  0  0  0  0  0  0  0  0
   16.3863   -8.2599   17.9016 N   0  0  0  0  0  0  0  0  0  0  0  0
   16.9218   -7.4723   18.1511 H   0  0  0  0  0  0  0  0  0  0  0  0
   15.4191   -8.7562   18.8694 C   0  0  0  0  0  0  0  0  0  0  0  0
   14.4103   -7.7004   19.1702 C   0  0  0  0  0  0  0  0  0  0  0  0
   14.2868   -7.2038   20.4718 C   0  0  0  0  0  0  0  0  0  0  0  0
   13.3579   -6.1974   20.7531 C   0  0  0  0  0  0  0  0  0  0  0  0
   12.5498   -5.6774   19.7364 C   0  0  0  0  0  0  0  0  0  0  0  0
   12.6813   -6.1744   18.4291 C   0  0  0  0  0  0  0  0  0  0  0  0
   13.6098   -7.1805   18.1483 C   0  0  0  0  0  0  0  0  0  0  0  0
   11.6305   -4.6726   20.0499 O   0  0  0  0  0  0  0  0  0  0  0  0
   10.3367   -4.6063   19.4658 C   0  0  0  0  0  0  0  0  0  0  0  0
   16.8248   -9.8122   10.9167 O   0  0  0  0  0  0  0  0  0  0  0  0
   18.7831   -8.4738   10.6058 N   0  0  0  0  0  0  0  0  0  0  0  0
   19.6941   -7.8197    9.8158 C   0  0  0  0  0  0  0  0  0  0  0  0
   19.5807   -7.8485    8.4542 N   0  0  0  0  0  0  0  0  0  0  0  0
   18.5473   -8.5424    7.9199 C   0  0  0  0  0  0  0  0  0  0  0  0
   17.6337   -9.1974    8.6776 C   0  0  0  0  0  0  0  0  0  0  0  0
   17.7453   -9.1823   10.0687 C   0  0  0  0  0  0  0  0  0  0  0  0
   16.7032   -9.7154    7.7913 C   0  0  0  0  0  0  0  0  0  0  0  0
   17.1032   -9.3639    6.5391 N   0  0  0  0  0  0  0  0  0  0  0  0
   18.2212   -8.6536    6.6287 N   0  0  0  0  0  0  0  0  0  0  0  0
   18.9271   -8.0843    5.4944 C   0  0  0  0  0  0  0  0  0  0  0  0
 23 24  2  0  0  0
 24 25  1  0  0  0
 25 26  2  0  0  0
 26 27  1  0  0  0
 27 28  2  0  0  0
 28 22  1  0  0  0
 22  1  1  0  0  0
  1  2  2  0  0  0
  2  3  1  0  0  0
  3  4  2  0  0  0
  4  5  1  0  0  0
  5  6  2  0  0  0
  4  7  1  0  0  0
  7  8  1  0  0  0
  8  9  2  0  0  0
  8 11  1  0  0  0
 11 13  1  0  0  0
 13 14  1  0  0  0
 14 15  2  0  0  0
 15 16  1  0  0  0
 16 17  2  0  0  0
 17 18  1  0  0  0
 18 19  2  0  0  0
 17 20  1  0  0  0
 20 21  1  0  0  0
  7 10  1  0  0  0
 27 29  1  0  0  0
 29 30  2  0  0  0
 30 31  1  0  0  0
 31 32  1  0  0  0
 28 23  1  0  0  0
  6  1  1  0  0  0
 19 14  1  0  0  0
 31 26  1  0  0  0
  9  3  1  0  0  0
 11 12  1  0  0  0
M  END
>  <minimizedAffinity>
-7.08316

>  <minimizedRMSD>
3.47058

$$$$
CHEMBL358886


 28 30  0  0  0  0  0  0  0  0999 V2000
   18.2302   -8.5116    8.8645 C   0  0  0  0  0  0  0  0  0  0  0  0
   19.4909   -8.2054    9.4453 C   0  0  0  0  0  0  0  0  0  0  0  0
   19.7976   -8.5832   10.7648 C   0  0  0  0  0  0  0  0  0  0  0  0
   18.8191   -9.2676   11.4771 C   0  0  0  0  0  0  0  0  0  0  0  0
   18.8911   -9.7204   12.7364 N   0  0  0  0  0  0  0  0  0  0  0  0
   17.6724  -10.2957   12.9063 C   0  0  0  0  0  0  0  0  0  0  0  0
   16.8523  -10.2268   11.8258 N   0  0  0  0  0  0  0  0  0  0  0  0
   17.6082   -9.5684   10.9363 C   0  0  0  0  0  0  0  0  0  0  0  0
   17.2697   -9.2108    9.6350 C   0  0  0  0  0  0  0  0  0  0  0  0
   19.6370   -9.6532   13.3754 H   0  0  0  0  0  0  0  0  0  0  0  0
   18.1512   -9.2578    6.4969 C   0  0  0  0  0  0  0  0  0  0  0  0
   17.9421   -8.0845    7.4376 C   0  0  0  0  0  0  0  0  0  0  0  0
   18.8840   -6.9635    7.0357 C   0  0  0  0  0  0  0  0  0  0  0  0
   16.5158   -7.5852    7.2509 C   0  0  0  0  0  0  0  0  0  0  0  0
   17.1860  -11.0844   14.4336 S   0  0  0  0  0  0  0  0  0  0  0  0
   16.3073   -9.5937   15.0056 C   0  0  0  0  0  0  0  0  0  0  0  0
   16.8393   -9.0637   16.3073 C   0  0  0  0  0  0  0  0  0  0  0  0
   18.0690   -9.1548   16.5759 O   0  0  0  0  0  0  0  0  0  0  0  0
   15.9253   -8.4329   17.2800 C   0  0  0  0  0  0  0  0  0  0  0  0
   16.2158   -8.4762   18.6519 C   0  0  0  0  0  0  0  0  0  0  0  0
   15.3544   -7.8809   19.5776 C   0  0  0  0  0  0  0  0  0  0  0  0
   14.1940   -7.2363   19.1412 C   0  0  0  0  0  0  0  0  0  0  0  0
   13.3436   -6.6472   20.0684 O   0  0  0  0  0  0  0  0  0  0  0  0
   13.8948   -7.1874   17.7740 C   0  0  0  0  0  0  0  0  0  0  0  0
   12.7440   -6.5494   17.3287 O   0  0  0  0  0  0  0  0  0  0  0  0
   14.7577   -7.7836   16.8499 C   0  0  0  0  0  0  0  0  0  0  0  0
   13.5492   -6.6833   20.9819 H   0  0  0  0  0  0  0  0  0  0  0  0
   12.1625   -6.1484   17.9444 H   0  0  0  0  0  0  0  0  0  0  0  0
 11 12  1  0  0  0
 12 13  1  0  0  0
 12 14  1  0  0  0
 12  1  1  0  0  0
  1  2  2  0  0  0
  2  3  1  0  0  0
  3  4  2  0  0  0
  4  5  1  0  0  0
  5  6  1  0  0  0
  6 15  1  0  0  0
  6  7  2  0  0  0
 15 16  1  0  0  0
 16 17  1  0  0  0
 17 18  2  0  0  0
 17 19  1  0  0  0
 19 20  2  0  0  0
 20 21  1  0  0  0
 21 22  2  0  0  0
 22 23  1  0  0  0
 22 24  1  0  0  0
 24 25  1  0  0  0
 24 26  2  0  0  0
 26 19  1  0  0  0
  7  8  1  0  0  0
  8  9  2  0  0  0
  8  4  1  0  0  0
  9  1  1  0  0  0
  5 10  1  0  0  0
 23 27  1  0  0  0
 25 28  1  0  0  0
M  END
>  <minimizedAffinity>
-3.61452

>  <minimizedRMSD>
3.49384

$$$$
CHEMBL1354783 ChemDiv-C720-0546 MCULE-5686263108 MolPort-007-662-239 PubChem-135458504 ZINC000008604709


 32 34  0  0  0  0  0  0  0  0999 V2000
   16.9626  -10.3650   13.1700 C   0  0  0  0  0  0  0  0  0  0  0  0
   16.1550   -9.6098   14.0788 N   0  0  0  0  0  0  0  0  0  0  0  0
   17.4793  -11.4493   13.5560 O   0  0  0  0  0  0  0  0  0  0  0  0
   15.7182   -8.7910   13.7501 H   0  0  0  0  0  0  0  0  0  0  0  0
   18.6252   -8.8220   10.1413 N   0  0  0  0  0  0  0  0  0  0  0  0
   19.8171   -8.2429    9.8043 C   0  0  0  0  0  0  0  0  0  0  0  0
   20.0484   -7.7726    8.5120 C   0  0  0  0  0  0  0  0  0  0  0  0
   19.0473   -7.8959    7.5533 C   0  0  0  0  0  0  0  0  0  0  0  0
   17.8303   -8.4845    7.8898 C   0  0  0  0  0  0  0  0  0  0  0  0
   16.7720   -8.6062    6.8462 C   0  0  0  0  0  0  0  0  0  0  0  0
   17.6285   -8.9487    9.2013 C   0  0  0  0  0  0  0  0  0  0  0  0
   16.4479   -9.5252    9.5406 N   0  0  0  0  0  0  0  0  0  0  0  0
   16.2117   -9.9867   10.7916 C   0  0  0  0  0  0  0  0  0  0  0  0
   17.2017   -9.8727   11.7847 C   0  0  0  0  0  0  0  0  0  0  0  0
   18.4276   -9.2714   11.4205 C   0  0  0  0  0  0  0  0  0  0  0  0
   19.3414   -9.1345   12.2832 O   0  0  0  0  0  0  0  0  0  0  0  0
   14.9861  -10.5852   11.0599 O   0  0  0  0  0  0  0  0  0  0  0  0
   14.3394  -10.6517   10.3851 H   0  0  0  0  0  0  0  0  0  0  0  0
   15.9497   -9.9976   15.4684 C   0  0  0  0  0  0  0  0  0  0  0  0
   16.6599   -9.0292   16.4076 C   0  0  0  0  0  0  0  0  0  0  0  0
   15.6967   -8.3614   17.3325 C   0  0  0  0  0  0  0  0  0  0  0  0
   16.0141   -8.1839   18.6850 C   0  0  0  0  0  0  0  0  0  0  0  0
   15.1058   -7.5533   19.5401 C   0  0  0  0  0  0  0  0  0  0  0  0
   13.8780   -7.0973   19.0470 C   0  0  0  0  0  0  0  0  0  0  0  0
   13.5661   -7.2659   17.6934 C   0  0  0  0  0  0  0  0  0  0  0  0
   14.4740   -7.8962   16.8378 C   0  0  0  0  0  0  0  0  0  0  0  0
   12.7405   -6.2972   20.1161 S   0  0  0  0  0  0  0  0  0  0  0  0
   13.5660   -5.0961   21.0429 N   0  0  0  0  0  0  0  0  0  0  0  0
   12.1196   -7.3046   21.0429 O   0  0  0  0  0  0  0  0  0  0  0  0
   11.6546   -5.6488   19.3044 O   0  0  0  0  0  0  0  0  0  0  0  0
   14.3026   -5.5379   21.5931 H   0  0  0  0  0  0  0  0  0  0  0  0
   12.9048   -4.6351   21.6680 H   0  0  0  0  0  0  0  0  0  0  0  0
  5  6  1  0  0  0
  6  7  2  0  0  0
  7  8  1  0  0  0
  8  9  2  0  0  0
  9 10  1  0  0  0
  9 11  1  0  0  0
 11 12  2  0  0  0
 12 13  1  0  0  0
 13 14  2  0  0  0
 14  1  1  0  0  0
  1  2  1  0  0  0
  2 19  1  0  0  0
 19 20  1  0  0  0
 20 21  1  0  0  0
 21 22  2  0  0  0
 22 23  1  0  0  0
 23 24  2  0  0  0
 24 25  1  0  0  0
 25 26  2  0  0  0
 24 27  1  0  0  0
 27 28  1  0  0  0
 27 29  2  0  0  0
 27 30  2  0  0  0
  1  3  2  0  0  0
 14 15  1  0  0  0
 15 16  2  0  0  0
 13 17  1  0  0  0
 11  5  1  0  0  0
 26 21  1  0  0  0
 15  5  1  0  0  0
  2  4  1  0  0  0
 28 31  1  0  0  0
 28 32  1  0  0  0
 17 18  1  0  0  0
M  END
>  <minimizedAffinity>
-5.06953

>  <minimizedRMSD>
3.54840

$$$$
CHEMBL1721556 MCULE-2968644819 MolPort-000-122-661


 31 33  0  0  0  0  0  0  0  0999 V2000
   16.4181   -9.5703   14.0049 C   0  0  0  0  0  0  0  0  0  0  0  0
   17.0320  -10.6667   14.1017 O   0  0  0  0  0  0  0  0  0  0  0  0
   16.0557   -8.8340   15.1744 N   0  0  0  0  0  0  0  0  0  0  0  0
   15.5529   -7.9946   15.0653 H   0  0  0  0  0  0  0  0  0  0  0  0
   16.0754   -9.0238   12.6621 C   0  0  0  0  0  0  0  0  0  0  0  0
   15.6814  -10.3709   11.5053 S   0  0  0  0  0  0  0  0  0  0  0  0
   18.6466   -8.2241    6.4835 C   0  0  0  0  0  0  0  0  0  0  0  0
   19.4232   -7.5311    7.4491 C   0  0  0  0  0  0  0  0  0  0  0  0
   19.1578   -7.6709    8.8235 C   0  0  0  0  0  0  0  0  0  0  0  0
   18.1103   -8.5104    9.1894 C   0  0  0  0  0  0  0  0  0  0  0  0
   17.6822   -8.7915   10.4276 N   0  0  0  0  0  0  0  0  0  0  0  0
   16.6535   -9.6464   10.1910 C   0  0  0  0  0  0  0  0  0  0  0  0
   16.4231   -9.9137    8.8792 N   0  0  0  0  0  0  0  0  0  0  0  0
   17.3620   -9.1776    8.2690 C   0  0  0  0  0  0  0  0  0  0  0  0
   17.5958   -9.0636    6.9013 C   0  0  0  0  0  0  0  0  0  0  0  0
   18.0258   -8.4622   11.2895 H   0  0  0  0  0  0  0  0  0  0  0  0
   20.0562   -7.4440    4.6074 C   0  0  0  0  0  0  0  0  0  0  0  0
   18.8995   -8.0943    5.1154 O   0  0  0  0  0  0  0  0  0  0  0  0
   16.3977   -9.2712   16.5214 C   0  0  0  0  0  0  0  0  0  0  0  0
   15.6697   -8.4547   17.5350 C   0  0  0  0  0  0  0  0  0  0  0  0
   16.1971   -8.3061   18.8222 C   0  0  0  0  0  0  0  0  0  0  0  0
   15.5234   -7.5296   19.7694 C   0  0  0  0  0  0  0  0  0  0  0  0
   14.3200   -6.8995   19.4328 C   0  0  0  0  0  0  0  0  0  0  0  0
   13.7962   -7.0437   18.1434 C   0  0  0  0  0  0  0  0  0  0  0  0
   14.4696   -7.8200   17.1956 C   0  0  0  0  0  0  0  0  0  0  0  0
   13.4814   -5.9157   20.6181 S   0  0  0  0  0  0  0  0  0  0  0  0
   12.3841   -6.8986   21.5210 N   0  0  0  0  0  0  0  0  0  0  0  0
   14.4764   -5.3053   21.5645 O   0  0  0  0  0  0  0  0  0  0  0  0
   12.7190   -4.8262   19.9189 O   0  0  0  0  0  0  0  0  0  0  0  0
   12.9018   -7.6383   21.9956 H   0  0  0  0  0  0  0  0  0  0  0  0
   11.7004   -7.3143   20.8883 H   0  0  0  0  0  0  0  0  0  0  0  0
 17 18  1  0  0  0
 18  7  1  0  0  0
  7  8  2  0  0  0
  8  9  1  0  0  0
  9 10  2  0  0  0
 10 11  1  0  0  0
 11 12  1  0  0  0
 12  6  1  0  0  0
 12 13  2  0  0  0
  6  5  1  0  0  0
  5  1  1  0  0  0
  1  2  2  0  0  0
  1  3  1  0  0  0
  3 19  1  0  0  0
 19 20  1  0  0  0
 20 21  2  0  0  0
 21 22  1  0  0  0
 22 23  2  0  0  0
 23 24  1  0  0  0
 23 26  1  0  0  0
 24 25  2  0  0  0
 25 20  1  0  0  0
 26 27  1  0  0  0
 26 28  2  0  0  0
 26 29  2  0  0  0
 13 14  1  0  0  0
 14 15  2  0  0  0
 14 10  1  0  0  0
 15  7  1  0  0  0
 11 16  1  0  0  0
  3  4  1  0  0  0
 27 30  1  0  0  0
 27 31  1  0  0  0
M  END
>  <minimizedAffinity>
-6.50249

>  <minimizedRMSD>
3.56629

$$$$
CHEMBL3621239 PubChem-78323549


 34 36  0  0  0  0  0  0  0  0999 V2000
   17.7421   -9.9467   12.4632 N   0  0  0  0  0  0  0  0  0  0  0  0
   18.9582   -9.4771   12.0921 C   0  0  0  0  0  0  0  0  0  0  0  0
   18.9889   -9.0980   10.7835 N   0  0  0  0  0  0  0  0  0  0  0  0
   17.7344   -9.3399   10.3541 C   0  0  0  0  0  0  0  0  0  0  0  0
   16.9907   -9.8472   11.3633 C   0  0  0  0  0  0  0  0  0  0  0  0
   15.6900  -10.1935   11.2174 N   0  0  0  0  0  0  0  0  0  0  0  0
   15.1175  -10.0204    9.9894 C   0  0  0  0  0  0  0  0  0  0  0  0
   15.8496   -9.5107    8.9474 N   0  0  0  0  0  0  0  0  0  0  0  0
   17.1637   -9.1519    9.0910 C   0  0  0  0  0  0  0  0  0  0  0  0
   13.7546  -10.3742    9.7891 N   0  0  0  0  0  0  0  0  0  0  0  0
   13.2264  -10.7403   10.5349 H   0  0  0  0  0  0  0  0  0  0  0  0
   13.3394  -10.2530    8.9047 H   0  0  0  0  0  0  0  0  0  0  0  0
   17.8992   -8.6272    7.9692 N   0  0  0  0  0  0  0  0  0  0  0  0
   18.7814   -7.4667    8.1094 C   0  0  0  0  0  0  0  0  0  0  0  0
   19.8955   -7.5437    7.0657 C   0  0  0  0  0  0  0  0  0  0  0  0
   19.3384   -7.6893    5.7833 O   0  0  0  0  0  0  0  0  0  0  0  0
   18.8045   -8.9885    5.7280 C   0  0  0  0  0  0  0  0  0  0  0  0
   17.5643   -9.0780    6.6174 C   0  0  0  0  0  0  0  0  0  0  0  0
   17.3377  -10.3923   13.7877 C   0  0  0  0  0  0  0  0  0  0  0  0
   16.5886   -9.3098   14.4848 C   0  0  0  0  0  0  0  0  0  0  0  0
   16.0780   -8.3738   13.8139 O   0  0  0  0  0  0  0  0  0  0  0  0
   16.4147   -9.3709   15.9016 N   0  0  0  0  0  0  0  0  0  0  0  0
   16.7785  -10.1450   16.3891 H   0  0  0  0  0  0  0  0  0  0  0  0
   15.7215   -8.3348   16.6537 C   0  0  0  0  0  0  0  0  0  0  0  0
   15.8111   -8.6099   18.1488 C   0  0  0  0  0  0  0  0  0  0  0  0
   15.0413   -7.5757   18.9596 C   0  0  0  0  0  0  0  0  0  0  0  0
   13.6425   -7.3445   18.4018 C   0  0  0  0  0  0  0  0  0  0  0  0
   12.6651   -6.9839   19.5150 C   0  0  0  0  0  0  0  0  0  0  0  0
   12.8364   -5.5821   20.0179 C   0  0  0  0  0  0  0  0  0  0  0  0
   12.5147   -4.5900   19.3085 O   0  0  0  0  0  0  0  0  0  0  0  0
   13.3853   -5.3780   21.3173 N   0  0  0  0  0  0  0  0  0  0  0  0
   13.5621   -4.1292   21.8085 O   0  0  0  0  0  0  0  0  0  0  0  0
   13.6392   -6.1558   21.8650 H   0  0  0  0  0  0  0  0  0  0  0  0
   13.2654   -3.4789   21.1527 H   0  0  0  0  0  0  0  0  0  0  0  0
 20 21  2  0  0  0
 20 19  1  0  0  0
 19  1  1  0  0  0
  1  2  1  0  0  0
  2  3  2  0  0  0
  3  4  1  0  0  0
  4  5  2  0  0  0
  5  6  1  0  0  0
  6  7  2  0  0  0
  7  8  1  0  0  0
  8  9  2  0  0  0
  9 13  1  0  0  0
 13 14  1  0  0  0
 14 15  1  0  0  0
 15 16  1  0  0  0
 16 17  1  0  0  0
 17 18  1  0  0  0
  7 10  1  0  0  0
 20 22  1  0  0  0
 22 24  1  0  0  0
 24 25  1  0  0  0
 25 26  1  0  0  0
 26 27  1  0  0  0
 27 28  1  0  0  0
 28 29  1  0  0  0
 29 30  2  0  0  0
 29 31  1  0  0  0
 31 32  1  0  0  0
  5  1  1  0  0  0
 18 13  1  0  0  0
  9  4  1  0  0  0
 10 11  1  0  0  0
 10 12  1  0  0  0
 22 23  1  0  0  0
 31 33  1  0  0  0
 32 34  1  0  0  0
M  END
>  <minimizedAffinity>
-5.20003

>  <minimizedRMSD>
3.58821

$$$$
CHEMBL1340869


 32 34  0  0  0  0  0  0  0  0999 V2000
   18.2839  -10.9490   14.2066 C   0  0  0  0  0  0  0  0  0  0  0  0
   18.3937   -9.6527   13.4211 C   0  0  0  0  0  0  0  0  0  0  0  0
   18.6611   -9.9403   12.0201 N   0  0  0  0  0  0  0  0  0  0  0  0
   19.5424  -10.3026   11.7724 H   0  0  0  0  0  0  0  0  0  0  0  0
   13.8189  -10.5772   10.4105 S   0  0  0  0  0  0  0  0  0  0  0  0
   15.4804   -9.9693   10.1720 C   0  0  0  0  0  0  0  0  0  0  0  0
   15.8038   -9.3116    9.0283 N   0  0  0  0  0  0  0  0  0  0  0  0
   17.0616   -8.8420    8.8282 C   0  0  0  0  0  0  0  0  0  0  0  0
   18.0504   -9.0360    9.8152 C   0  0  0  0  0  0  0  0  0  0  0  0
   17.6946   -9.7181   10.9864 C   0  0  0  0  0  0  0  0  0  0  0  0
   16.4179  -10.1666   11.1357 N   0  0  0  0  0  0  0  0  0  0  0  0
   19.3478   -8.5495    9.6040 C   0  0  0  0  0  0  0  0  0  0  0  0
   19.6574   -7.8751    8.4190 C   0  0  0  0  0  0  0  0  0  0  0  0
   18.6747   -7.6841    7.4422 C   0  0  0  0  0  0  0  0  0  0  0  0
   17.3783   -8.1669    7.6459 C   0  0  0  0  0  0  0  0  0  0  0  0
   13.0621  -10.2662    9.3241 H   0  0  0  0  0  0  0  0  0  0  0  0
   17.3987  -10.7532   15.4229 C   0  0  0  0  0  0  0  0  0  0  0  0
   17.6889   -9.4109   16.0743 C   0  0  0  0  0  0  0  0  0  0  0  0
   16.7576   -9.1866   17.2583 C   0  0  0  0  0  0  0  0  0  0  0  0
   15.5978   -8.2916   16.9372 C   0  0  0  0  0  0  0  0  0  0  0  0
   15.5884   -7.5910   15.8875 O   0  0  0  0  0  0  0  0  0  0  0  0
   14.4899   -8.2518   17.8385 N   0  0  0  0  0  0  0  0  0  0  0  0
   14.5018   -8.8432   18.6254 H   0  0  0  0  0  0  0  0  0  0  0  0
   13.3432   -7.3742   17.6440 C   0  0  0  0  0  0  0  0  0  0  0  0
   12.9943   -6.6830   18.9187 C   0  0  0  0  0  0  0  0  0  0  0  0
   13.2739   -7.2948   20.1447 C   0  0  0  0  0  0  0  0  0  0  0  0
   12.9333   -6.6551   21.3398 C   0  0  0  0  0  0  0  0  0  0  0  0
   12.3077   -5.3975   21.3163 C   0  0  0  0  0  0  0  0  0  0  0  0
   12.0284   -4.7922   20.0863 C   0  0  0  0  0  0  0  0  0  0  0  0
   12.3689   -5.4320   18.8909 C   0  0  0  0  0  0  0  0  0  0  0  0
   11.9548   -4.7321   22.4936 O   0  0  0  0  0  0  0  0  0  0  0  0
   12.2910   -3.3731   22.7375 C   0  0  0  0  0  0  0  0  0  0  0  0
  5  6  1  0  0  0
  6  7  2  0  0  0
  7  8  1  0  0  0
  8  9  2  0  0  0
  9 10  1  0  0  0
 10 11  2  0  0  0
 10  3  1  0  0  0
  3  2  1  0  0  0
  2  1  1  0  0  0
  1 17  1  0  0  0
 17 18  1  0  0  0
 18 19  1  0  0  0
 19 20  1  0  0  0
 20 21  2  0  0  0
 20 22  1  0  0  0
 22 24  1  0  0  0
 24 25  1  0  0  0
 25 26  2  0  0  0
 26 27  1  0  0  0
 27 28  2  0  0  0
 28 31  1  0  0  0
 31 32  1  0  0  0
 28 29  1  0  0  0
 29 30  2  0  0  0
  9 12  1  0  0  0
 12 13  2  0  0  0
 13 14  1  0  0  0
 14 15  2  0  0  0
 11  6  1  0  0  0
 30 25  1  0  0  0
 15  8  1  0  0  0
  5 16  1  0  0  0
  3  4  1  0  0  0
 22 23  1  0  0  0
M  END
>  <minimizedAffinity>
-6.13823

>  <minimizedRMSD>
3.61834

$$$$
CHEMBL1352949 891466 MCULE-3950318715 MolPort-001-986-947 PubChem-1146603 ZINC000000891466 ZINC00891466


 31 34  0  0  0  0  0  0  0  0999 V2000
   16.9286   -8.3932   15.1044 C   0  0  0  0  0  0  0  0  0  0  0  0
   16.0598   -7.7877   14.2720 N   0  0  0  0  0  0  0  0  0  0  0  0
   16.0763   -8.4710   13.1349 N   0  0  0  0  0  0  0  0  0  0  0  0
   16.9494   -9.4838   13.2989 C   0  0  0  0  0  0  0  0  0  0  0  0
   17.5077   -9.4554   14.5208 N   0  0  0  0  0  0  0  0  0  0  0  0
   18.5080  -10.3531   15.0761 C   0  0  0  0  0  0  0  0  0  0  0  0
   17.2706   -7.8280   16.7708 S   0  0  0  0  0  0  0  0  0  0  0  0
   15.9009   -8.7872   17.4882 C   0  0  0  0  0  0  0  0  0  0  0  0
   15.2582   -7.8101   19.7240 N   0  0  0  0  0  0  0  0  0  0  0  0
   15.0276   -7.9070   18.3125 C   0  0  0  0  0  0  0  0  0  0  0  0
   14.1109   -7.2494   17.7528 O   0  0  0  0  0  0  0  0  0  0  0  0
   15.9838   -8.3645   20.0919 H   0  0  0  0  0  0  0  0  0  0  0  0
   13.1980   -5.3636   22.5176 C   0  0  0  0  0  0  0  0  0  0  0  0
   14.5695   -5.6263   22.6629 C   0  0  0  0  0  0  0  0  0  0  0  0
   15.2341   -6.4340   21.7358 C   0  0  0  0  0  0  0  0  0  0  0  0
   14.5409   -6.9890   20.6554 C   0  0  0  0  0  0  0  0  0  0  0  0
   13.1707   -6.7248   20.5113 C   0  0  0  0  0  0  0  0  0  0  0  0
   12.5046   -5.9173   21.4374 C   0  0  0  0  0  0  0  0  0  0  0  0
   12.5045   -4.5605   23.4275 O   0  0  0  0  0  0  0  0  0  0  0  0
   12.5763   -5.6591   25.5582 C   0  0  0  0  0  0  0  0  0  0  0  0
   12.9121   -4.4040   24.7801 C   0  0  0  0  0  0  0  0  0  0  0  0
   17.3050  -10.4546   12.2214 C   0  0  0  0  0  0  0  0  0  0  0  0
   18.0278   -9.7754   11.1563 N   0  0  0  0  0  0  0  0  0  0  0  0
   19.2421   -9.1825   11.2517 C   0  0  0  0  0  0  0  0  0  0  0  0
   19.6185   -8.5862   10.0877 N   0  0  0  0  0  0  0  0  0  0  0  0
   18.5827   -8.8244    9.2616 C   0  0  0  0  0  0  0  0  0  0  0  0
   18.4412   -8.4217    7.9360 C   0  0  0  0  0  0  0  0  0  0  0  0
   17.2521   -8.7824    7.2737 C   0  0  0  0  0  0  0  0  0  0  0  0
   16.2513   -9.5225    7.9436 C   0  0  0  0  0  0  0  0  0  0  0  0
   16.4265   -9.9127    9.2845 C   0  0  0  0  0  0  0  0  0  0  0  0
   17.6179   -9.5389    9.9043 C   0  0  0  0  0  0  0  0  0  0  0  0
 20 21  1  0  0  0
 21 19  1  0  0  0
 19 13  1  0  0  0
 13 14  2  0  0  0
 14 15  1  0  0  0
 15 16  2  0  0  0
 16  9  1  0  0  0
 16 17  1  0  0  0
  9 10  1  0  0  0
 10 11  2  0  0  0
 10  8  1  0  0  0
  8  7  1  0  0  0
  7  1  1  0  0  0
  1  2  2  0  0  0
  2  3  1  0  0  0
  3  4  2  0  0  0
  4 22  1  0  0  0
  4  5  1  0  0  0
 22 23  1  0  0  0
 23 24  1  0  0  0
 24 25  2  0  0  0
 25 26  1  0  0  0
 26 27  2  0  0  0
 27 28  1  0  0  0
 28 29  2  0  0  0
 29 30  1  0  0  0
 30 31  2  0  0  0
 31 23  1  0  0  0
 31 26  1  0  0  0
  5  6  1  0  0  0
  5  1  1  0  0  0
 17 18  2  0  0  0
 18 13  1  0  0  0
  9 12  1  0  0  0
M  END
>  <minimizedAffinity>
-4.88430

>  <minimizedRMSD>
3.63990

$$$$
CHEMBL4473306 PubChem-155536226


 35 38  0  0  0  0  0  0  0  0999 V2000
   17.6624   -9.8929    9.2168 C   0  0  0  0  0  0  0  0  0  0  0  0
   16.9773  -10.9810    8.6498 C   0  0  0  0  0  0  0  0  0  0  0  0
   16.5757  -12.0627    9.4387 C   0  0  0  0  0  0  0  0  0  0  0  0
   16.8544  -12.0707   10.8068 C   0  0  0  0  0  0  0  0  0  0  0  0
   17.5404  -10.9877   11.3908 C   0  0  0  0  0  0  0  0  0  0  0  0
   17.9396   -9.9074   10.5937 C   0  0  0  0  0  0  0  0  0  0  0  0
   17.8031  -11.0310   12.7663 C   0  0  0  0  0  0  0  0  0  0  0  0
   17.3897  -12.1068   13.4914 N   0  0  0  0  0  0  0  0  0  0  0  0
   16.7289  -13.1413   12.9079 C   0  0  0  0  0  0  0  0  0  0  0  0
   16.4653  -13.1198   11.5754 N   0  0  0  0  0  0  0  0  0  0  0  0
   18.0863   -8.7481    8.3768 C   0  0  0  0  0  0  0  0  0  0  0  0
   17.9934   -7.4334    8.8531 C   0  0  0  0  0  0  0  0  0  0  0  0
   18.3944   -6.3603    8.0568 C   0  0  0  0  0  0  0  0  0  0  0  0
   18.8933   -6.6101    6.7703 C   0  0  0  0  0  0  0  0  0  0  0  0
   18.9776   -7.8941    6.3209 N   0  0  0  0  0  0  0  0  0  0  0  0
   18.5911   -8.9503    7.0846 C   0  0  0  0  0  0  0  0  0  0  0  0
   19.2994   -5.5468    5.9591 O   0  0  0  0  0  0  0  0  0  0  0  0
   20.1518   -5.7353    4.8395 C   0  0  0  0  0  0  0  0  0  0  0  0
   18.2886   -5.0203    8.5698 C   0  0  0  0  0  0  0  0  0  0  0  0
   18.2034   -3.9425    8.9824 N   0  0  0  0  0  0  0  0  0  0  0  0
   18.4951   -9.9528   13.4066 N   0  0  0  0  0  0  0  0  0  0  0  0
   19.1382   -9.4269   12.8783 H   0  0  0  0  0  0  0  0  0  0  0  0
   18.2897   -9.6005   14.8030 C   0  0  0  0  0  0  0  0  0  0  0  0
   17.0475   -8.7239   14.9267 C   0  0  0  0  0  0  0  0  0  0  0  0
   16.9071   -8.2737   16.3086 N   0  0  0  0  0  0  0  0  0  0  0  0
   18.0396   -7.5855   16.9235 C   0  0  0  0  0  0  0  0  0  0  0  0
   19.2907   -8.4506   16.7974 C   0  0  0  0  0  0  0  0  0  0  0  0
   19.5094   -8.8474   15.3386 C   0  0  0  0  0  0  0  0  0  0  0  0
   15.7025   -8.5328   17.0445 C   0  0  0  0  0  0  0  0  0  0  0  0
   14.7459   -9.1436   16.4928 O   0  0  0  0  0  0  0  0  0  0  0  0
   15.5735   -8.0987   18.4723 C   0  0  0  0  0  0  0  0  0  0  0  0
   16.6546   -7.1936   18.8216 N   0  0  0  0  0  0  0  0  0  0  0  0
   14.2392   -7.4151   18.6982 C   0  0  0  0  0  0  0  0  0  0  0  0
   16.6078   -6.3639   18.2302 H   0  0  0  0  0  0  0  0  0  0  0  0
   17.5495   -7.6622   18.6799 H   0  0  0  0  0  0  0  0  0  0  0  0
  1  2  2  0  0  0
  2  3  1  0  0  0
  3  4  2  0  0  0
  4  5  1  0  0  0
  5  6  2  0  0  0
  5  7  1  0  0  0
  7  8  2  0  0  0
  8  9  1  0  0  0
  9 10  2  0  0  0
  7 21  1  0  0  0
 23 21  1  0  0  0
 23 24  1  0  0  0
 24 25  1  0  0  0
 25 26  1  0  0  0
 26 27  1  0  0  0
 27 28  1  0  0  0
 25 29  1  0  0  0
 29 30  2  0  0  0
 29 31  1  0  0  0
 31 32  1  0  0  0
 31 33  1  0  0  0
  1 11  1  0  0  0
 11 12  2  0  0  0
 12 13  1  0  0  0
 13 14  2  0  0  0
 14 15  1  0  0  0
 15 16  2  0  0  0
 14 17  1  0  0  0
 17 18  1  0  0  0
 13 19  1  0  0  0
 19 20  3  0  0  0
  6  1  1  0  0  0
 28 23  1  0  0  0
 16 11  1  0  0  0
 10  4  1  0  0  0
 21 22  1  0  0  0
 32 34  1  0  0  0
 32 35  1  0  0  0
M  END
>  <minimizedAffinity>
16.50096

>  <minimizedRMSD>
3.66683

$$$$
CHEMBL4782294 PubChem-162664266


 34 36  0  0  0  0  0  0  0  0999 V2000
   17.7103  -10.2811   13.1125 C   0  0  0  0  0  0  0  0  0  0  0  0
   16.3349  -10.5108   13.0408 C   0  0  0  0  0  0  0  0  0  0  0  0
   15.6319  -10.2945   11.8522 C   0  0  0  0  0  0  0  0  0  0  0  0
   16.3156   -9.8380   10.7023 C   0  0  0  0  0  0  0  0  0  0  0  0
   17.7107   -9.6082   10.7779 C   0  0  0  0  0  0  0  0  0  0  0  0
   18.3938   -9.8309   11.9748 C   0  0  0  0  0  0  0  0  0  0  0  0
   18.3851   -9.1792    9.7158 O   0  0  0  0  0  0  0  0  0  0  0  0
   17.8089   -8.9425    8.5389 C   0  0  0  0  0  0  0  0  0  0  0  0
   16.4318   -9.1468    8.3867 C   0  0  0  0  0  0  0  0  0  0  0  0
   15.6793   -9.5958    9.4690 C   0  0  0  0  0  0  0  0  0  0  0  0
   14.4416   -9.7754    9.3178 O   0  0  0  0  0  0  0  0  0  0  0  0
   14.2631  -10.5380   11.8358 O   0  0  0  0  0  0  0  0  0  0  0  0
   13.8317  -10.8403   12.6106 H   0  0  0  0  0  0  0  0  0  0  0  0
   18.6314   -8.4667    7.4081 C   0  0  0  0  0  0  0  0  0  0  0  0
   18.3199   -8.8197    6.0854 C   0  0  0  0  0  0  0  0  0  0  0  0
   19.1071   -8.3620    5.0252 C   0  0  0  0  0  0  0  0  0  0  0  0
   20.2156   -7.5461    5.2697 C   0  0  0  0  0  0  0  0  0  0  0  0
   20.5308   -7.1906    6.5906 C   0  0  0  0  0  0  0  0  0  0  0  0
   19.7435   -7.6483    7.6505 C   0  0  0  0  0  0  0  0  0  0  0  0
   20.9828   -7.1047    4.1882 O   0  0  0  0  0  0  0  0  0  0  0  0
   21.7557   -5.9130    4.2309 C   0  0  0  0  0  0  0  0  0  0  0  0
   18.3721  -10.5134   14.3236 O   0  0  0  0  0  0  0  0  0  0  0  0
   19.2784   -9.5856   14.9149 C   0  0  0  0  0  0  0  0  0  0  0  0
   18.7712   -9.1224   16.2753 C   0  0  0  0  0  0  0  0  0  0  0  0
   17.5057   -8.2928   16.1343 C   0  0  0  0  0  0  0  0  0  0  0  0
   16.3349   -8.9917   16.8053 C   0  0  0  0  0  0  0  0  0  0  0  0
   15.1693   -8.0341   16.9964 C   0  0  0  0  0  0  0  0  0  0  0  0
   14.8613   -7.8387   18.4772 C   0  0  0  0  0  0  0  0  0  0  0  0
   13.7203   -6.8984   18.7241 C   0  0  0  0  0  0  0  0  0  0  0  0
   12.9488   -6.5482   17.7894 O   0  0  0  0  0  0  0  0  0  0  0  0
   13.5046   -6.4080   20.0447 N   0  0  0  0  0  0  0  0  0  0  0  0
   12.4838   -5.5607   20.3132 O   0  0  0  0  0  0  0  0  0  0  0  0
   14.1061   -6.6894   20.7715 H   0  0  0  0  0  0  0  0  0  0  0  0
   11.9887   -5.3825   19.4984 H   0  0  0  0  0  0  0  0  0  0  0  0
 27 26  1  0  0  0
 26 25  1  0  0  0
 25 24  1  0  0  0
 24 23  1  0  0  0
 23 22  1  0  0  0
 22  1  1  0  0  0
  1  2  2  0  0  0
  2  3  1  0  0  0
  3  4  2  0  0  0
  4  5  1  0  0  0
  5  6  2  0  0  0
  5  7  1  0  0  0
  7  8  1  0  0  0
  8  9  2  0  0  0
  9 10  1  0  0  0
 10 11  2  0  0  0
  8 14  1  0  0  0
 14 15  2  0  0  0
 15 16  1  0  0  0
 16 17  2  0  0  0
 17 18  1  0  0  0
 18 19  2  0  0  0
 17 20  1  0  0  0
 20 21  1  0  0  0
  3 12  1  0  0  0
 27 28  1  0  0  0
 28 29  1  0  0  0
 29 30  2  0  0  0
 29 31  1  0  0  0
 31 32  1  0  0  0
  6  1  1  0  0  0
 19 14  1  0  0  0
 10  4  1  0  0  0
 12 13  1  0  0  0
 31 33  1  0  0  0
 32 34  1  0  0  0
M  END
>  <minimizedAffinity>
-6.24918

>  <minimizedRMSD>
3.68078

$$$$
CHEMBL1449287 4400597 MCULE-1768869490 MolPort-000-039-814 PubChem-649609 ZINC000004400597


 33 36  0  0  0  0  0  0  0  0999 V2000
   16.6727   -8.9524   16.8102 S   0  0  0  0  0  0  0  0  0  0  0  0
   16.5066   -9.0352   15.0272 C   0  0  0  0  0  0  0  0  0  0  0  0
   15.8706   -8.1037   14.2906 N   0  0  0  0  0  0  0  0  0  0  0  0
   15.9578   -8.4891   13.0242 N   0  0  0  0  0  0  0  0  0  0  0  0
   16.6385   -9.6516   13.0142 C   0  0  0  0  0  0  0  0  0  0  0  0
   17.0049  -10.0147   14.2550 N   0  0  0  0  0  0  0  0  0  0  0  0
   17.7690  -11.1826   14.6640 C   0  0  0  0  0  0  0  0  0  0  0  0
   17.0065  -10.3860   11.7677 C   0  0  0  0  0  0  0  0  0  0  0  0
   17.9331   -9.5898   10.9780 N   0  0  0  0  0  0  0  0  0  0  0  0
   17.7748   -9.1509    9.7230 C   0  0  0  0  0  0  0  0  0  0  0  0
   16.7325   -9.3606    8.8235 C   0  0  0  0  0  0  0  0  0  0  0  0
   16.8532   -8.7498    7.5598 C   0  0  0  0  0  0  0  0  0  0  0  0
   17.9871   -7.9631    7.2433 C   0  0  0  0  0  0  0  0  0  0  0  0
   19.0177   -7.7738    8.1859 C   0  0  0  0  0  0  0  0  0  0  0  0
   18.8639   -8.3938    9.4218 C   0  0  0  0  0  0  0  0  0  0  0  0
   19.6831   -8.3624   10.4894 N   0  0  0  0  0  0  0  0  0  0  0  0
   19.0841   -9.0986   11.4257 N   0  0  0  0  0  0  0  0  0  0  0  0
   14.9590   -8.3885   17.0490 C   0  0  0  0  0  0  0  0  0  0  0  0
   13.6002   -6.9458   18.6083 N   0  0  0  0  0  0  0  0  0  0  0  0
   14.8501   -7.5650   18.2847 C   0  0  0  0  0  0  0  0  0  0  0  0
   15.8553   -7.4403   19.0323 O   0  0  0  0  0  0  0  0  0  0  0  0
   12.8611   -7.0815   17.9722 H   0  0  0  0  0  0  0  0  0  0  0  0
   13.3166   -6.1476   19.7659 C   0  0  0  0  0  0  0  0  0  0  0  0
   13.0442   -4.4843   19.7734 S   0  0  0  0  0  0  0  0  0  0  0  0
   12.8047   -4.3612   21.4283 C   0  0  0  0  0  0  0  0  0  0  0  0
   12.9341   -5.6203   22.0073 C   0  0  0  0  0  0  0  0  0  0  0  0
   12.7774   -5.8367   23.4773 C   0  0  0  0  0  0  0  0  0  0  0  0
   13.2254   -6.6420   21.0717 C   0  0  0  0  0  0  0  0  0  0  0  0
   12.5029   -3.0897   22.1430 C   0  0  0  0  0  0  0  0  0  0  0  0
   13.4172   -8.0727   21.4179 C   0  0  0  0  0  0  0  0  0  0  0  0
   12.5030   -8.9112   21.1894 O   0  0  0  0  0  0  0  0  0  0  0  0
   14.6145   -8.4958   22.0000 O   0  0  0  0  0  0  0  0  0  0  0  0
   15.1356   -7.8917   23.1742 C   0  0  0  0  0  0  0  0  0  0  0  0
 23 19  1  0  0  0
 19 20  1  0  0  0
 20 18  1  0  0  0
 18  1  1  0  0  0
  1  2  1  0  0  0
  2  3  2  0  0  0
  3  4  1  0  0  0
  4  5  2  0  0  0
  5  8  1  0  0  0
  8  9  1  0  0  0
  9 10  1  0  0  0
 10 11  2  0  0  0
 11 12  1  0  0  0
 12 13  2  0  0  0
 13 14  1  0  0  0
 14 15  2  0  0  0
 15 16  1  0  0  0
 16 17  2  0  0  0
  5  6  1  0  0  0
  6  7  1  0  0  0
 20 21  2  0  0  0
 23 24  1  0  0  0
 24 25  1  0  0  0
 25 26  2  0  0  0
 26 27  1  0  0  0
 26 28  1  0  0  0
 28 30  1  0  0  0
 30 32  1  0  0  0
 32 33  1  0  0  0
 30 31  2  0  0  0
 25 29  1  0  0  0
 28 23  2  0  0  0
  6  2  1  0  0  0
 17  9  1  0  0  0
 15 10  1  0  0  0
 19 22  1  0  0  0
M  END
>  <minimizedAffinity>
-5.37625

>  <minimizedRMSD>
3.71433

$$$$
CHEMBL140016 PubChem-10645022


 36 38  0  0  0  0  0  0  0  0999 V2000
   17.5345   -9.8098   13.4453 C   0  0  0  0  0  0  0  0  0  0  0  0
   18.6003  -10.1523   14.4333 C   0  0  0  0  0  0  0  0  0  0  0  0
   19.2126   -9.2237   15.0264 O   0  0  0  0  0  0  0  0  0  0  0  0
   18.9138  -11.4897   14.6871 O   0  0  0  0  0  0  0  0  0  0  0  0
   17.9612  -11.6990   16.8762 C   0  0  0  0  0  0  0  0  0  0  0  0
   18.0885  -12.3126   15.4976 C   0  0  0  0  0  0  0  0  0  0  0  0
   16.1894   -9.6493   14.1386 C   0  0  0  0  0  0  0  0  0  0  0  0
   16.0011   -8.2135   14.5996 C   0  0  0  0  0  0  0  0  0  0  0  0
   15.7708   -8.1648   16.0708 C   0  0  0  0  0  0  0  0  0  0  0  0
   16.7332   -8.6599   16.9588 C   0  0  0  0  0  0  0  0  0  0  0  0
   16.5120   -8.5961   18.3367 C   0  0  0  0  0  0  0  0  0  0  0  0
   15.3312   -8.0338   18.8299 C   0  0  0  0  0  0  0  0  0  0  0  0
   14.3625   -7.5289   17.9500 C   0  0  0  0  0  0  0  0  0  0  0  0
   14.5935   -7.5967   16.5670 C   0  0  0  0  0  0  0  0  0  0  0  0
   13.1192   -6.9345   18.4769 C   0  0  0  0  0  0  0  0  0  0  0  0
   12.5411   -5.9604   17.8537 N   0  0  0  0  0  0  0  0  0  0  0  0
   12.5398   -7.4294   19.6811 N   0  0  0  0  0  0  0  0  0  0  0  0
   12.9307   -5.6088   17.0207 H   0  0  0  0  0  0  0  0  0  0  0  0
   12.9696   -8.1708   20.1657 H   0  0  0  0  0  0  0  0  0  0  0  0
   11.7097   -7.0299   20.0284 H   0  0  0  0  0  0  0  0  0  0  0  0
   17.4539  -10.8935   12.3786 C   0  0  0  0  0  0  0  0  0  0  0  0
   16.8626  -10.3697   11.1541 N   0  0  0  0  0  0  0  0  0  0  0  0
   15.5740  -10.5084   10.7614 C   0  0  0  0  0  0  0  0  0  0  0  0
   15.3339   -9.9180    9.5591 N   0  0  0  0  0  0  0  0  0  0  0  0
   16.5305   -9.4071    9.2138 C   0  0  0  0  0  0  0  0  0  0  0  0
   16.8505   -8.6959    8.0609 C   0  0  0  0  0  0  0  0  0  0  0  0
   18.1837   -8.2566    7.9055 C   0  0  0  0  0  0  0  0  0  0  0  0
   19.1416   -8.5497    8.9109 C   0  0  0  0  0  0  0  0  0  0  0  0
   18.7844   -9.2714   10.0641 C   0  0  0  0  0  0  0  0  0  0  0  0
   17.4571   -9.6802   10.1717 C   0  0  0  0  0  0  0  0  0  0  0  0
   18.5729   -7.4981    6.7014 C   0  0  0  0  0  0  0  0  0  0  0  0
   18.9572   -6.2673    6.7963 N   0  0  0  0  0  0  0  0  0  0  0  0
   18.5289   -8.1147    5.4176 N   0  0  0  0  0  0  0  0  0  0  0  0
   18.9922   -5.8291    7.6772 H   0  0  0  0  0  0  0  0  0  0  0  0
   18.2382   -9.0513    5.3311 H   0  0  0  0  0  0  0  0  0  0  0  0
   18.7893   -7.6041    4.6171 H   0  0  0  0  0  0  0  0  0  0  0  0
  5  6  1  0  0  0
  6  4  1  0  0  0
  4  2  1  0  0  0
  2  3  2  0  0  0
  1  2  1  0  0  0
  1  7  1  0  0  0
  1 21  1  0  0  0
  7  8  1  0  0  0
  8  9  1  0  0  0
  9 10  2  0  0  0
 10 11  1  0  0  0
 11 12  2  0  0  0
 12 13  1  0  0  0
 13 15  1  0  0  0
 13 14  2  0  0  0
 15 16  2  0  0  0
 15 17  1  0  0  0
 14  9  1  0  0  0
 21 22  1  0  0  0
 22 23  1  0  0  0
 23 24  2  0  0  0
 24 25  1  0  0  0
 25 26  2  0  0  0
 26 27  1  0  0  0
 27 31  1  0  0  0
 27 28  2  0  0  0
 31 32  2  0  0  0
 31 33  1  0  0  0
 28 29  1  0  0  0
 29 30  2  0  0  0
 30 22  1  0  0  0
 30 25  1  0  0  0
 16 18  1  0  0  0
 17 19  1  0  0  0
 17 20  1  0  0  0
 32 34  1  0  0  0
 33 35  1  0  0  0
 33 36  1  0  0  0
M  END
>  <minimizedAffinity>
-5.29764

>  <minimizedRMSD>
3.72783

$$$$
CHEMBL4792689 PubChem-133084072


 35 38  0  0  0  0  0  0  0  0999 V2000
   18.1335   -8.6575    7.6860 C   0  0  0  0  0  0  0  0  0  0  0  0
   19.0588   -7.8306    8.3521 C   0  0  0  0  0  0  0  0  0  0  0  0
   19.9606   -7.0774    7.6513 N   0  0  0  0  0  0  0  0  0  0  0  0
   20.0205   -7.0922    6.2850 C   0  0  0  0  0  0  0  0  0  0  0  0
   19.1358   -7.9360    5.6014 C   0  0  0  0  0  0  0  0  0  0  0  0
   18.2059   -8.6692    6.2867 C   0  0  0  0  0  0  0  0  0  0  0  0
   17.4379   -9.3089    5.3305 C   0  0  0  0  0  0  0  0  0  0  0  0
   17.9237   -8.9540    4.1165 N   0  0  0  0  0  0  0  0  0  0  0  0
   18.9534   -8.1309    4.2780 N   0  0  0  0  0  0  0  0  0  0  0  0
   19.7164   -7.6223    3.1750 C   0  0  0  0  0  0  0  0  0  0  0  0
   19.4354   -6.3474    2.6644 C   0  0  0  0  0  0  0  0  0  0  0  0
   20.1325   -5.8615    1.5544 C   0  0  0  0  0  0  0  0  0  0  0  0
   21.1048   -6.6537    0.9382 C   0  0  0  0  0  0  0  0  0  0  0  0
   21.3719   -7.9362    1.4246 C   0  0  0  0  0  0  0  0  0  0  0  0
   20.6745   -8.4216    2.5344 C   0  0  0  0  0  0  0  0  0  0  0  0
   21.7810   -6.1826   -0.1367 F   0  0  0  0  0  0  0  0  0  0  0  0
   17.0090   -9.2575    9.8692 N   0  0  0  0  0  0  0  0  0  0  0  0
   17.1488   -9.4460    8.4575 C   0  0  0  0  0  0  0  0  0  0  0  0
   16.4208  -10.2879    7.8635 O   0  0  0  0  0  0  0  0  0  0  0  0
   17.5431   -8.5545   10.3048 H   0  0  0  0  0  0  0  0  0  0  0  0
   16.1121  -10.0590   10.6906 C   0  0  0  0  0  0  0  0  0  0  0  0
   17.2958   -9.8172   14.8081 C   0  0  0  0  0  0  0  0  0  0  0  0
   15.9751   -9.5349   14.4405 C   0  0  0  0  0  0  0  0  0  0  0  0
   15.5875   -9.6181   13.1000 C   0  0  0  0  0  0  0  0  0  0  0  0
   16.5190   -9.9876   12.1232 C   0  0  0  0  0  0  0  0  0  0  0  0
   17.8393  -10.2686   12.4898 C   0  0  0  0  0  0  0  0  0  0  0  0
   18.2265  -10.1852   13.8304 C   0  0  0  0  0  0  0  0  0  0  0  0
   17.7886   -9.7215   16.4909 S   0  0  0  0  0  0  0  0  0  0  0  0
   18.1012  -11.1034   16.9912 O   0  0  0  0  0  0  0  0  0  0  0  0
   19.0231   -8.8715   16.6156 O   0  0  0  0  0  0  0  0  0  0  0  0
   15.7913   -8.0951   16.6121 C   0  0  0  0  0  0  0  0  0  0  0  0
   16.5155   -9.0393   17.4461 N   0  0  0  0  0  0  0  0  0  0  0  0
   15.8858   -9.7767   17.7626 H   0  0  0  0  0  0  0  0  0  0  0  0
   20.9160   -6.2673    5.6038 O   0  0  0  0  0  0  0  0  0  0  0  0
   22.0627   -6.7819    4.9440 C   0  0  0  0  0  0  0  0  0  0  0  0
 31 32  1  0  0  0
 32 28  1  0  0  0
 28 29  2  0  0  0
 28 30  2  0  0  0
 28 22  1  0  0  0
 22 23  2  0  0  0
 23 24  1  0  0  0
 24 25  2  0  0  0
 25 26  1  0  0  0
 26 27  2  0  0  0
 25 21  1  0  0  0
 21 17  1  0  0  0
 17 18  1  0  0  0
 18 19  2  0  0  0
 18  1  1  0  0  0
  1  2  2  0  0  0
  2  3  1  0  0  0
  3  4  2  0  0  0
  4  5  1  0  0  0
  5  6  2  0  0  0
  6  7  1  0  0  0
  7  8  2  0  0  0
  8  9  1  0  0  0
  9 10  1  0  0  0
 10 11  2  0  0  0
 11 12  1  0  0  0
 12 13  2  0  0  0
 13 14  1  0  0  0
 14 15  2  0  0  0
 13 16  1  0  0  0
  4 34  1  0  0  0
 34 35  1  0  0  0
 27 22  1  0  0  0
  6  1  1  0  0  0
  9  5  1  0  0  0
 15 10  1  0  0  0
 32 33  1  0  0  0
 17 20  1  0  0  0
M  END
>  <minimizedAffinity>
-5.73551

>  <minimizedRMSD>
3.73236

$$$$
CHEMBL4208487 PubChem-136645449


 35 38  0  0  0  0  0  0  0  0999 V2000
   16.8040   -9.6531   13.4531 C   0  0  0  0  0  0  0  0  0  0  0  0
   17.3745  -10.7334   14.1693 C   0  0  0  0  0  0  0  0  0  0  0  0
   17.3277  -10.7304   15.5742 C   0  0  0  0  0  0  0  0  0  0  0  0
   16.7257   -9.6800   16.2668 C   0  0  0  0  0  0  0  0  0  0  0  0
   16.1620   -8.6148   15.5647 C   0  0  0  0  0  0  0  0  0  0  0  0
   16.2044   -8.6052   14.1691 C   0  0  0  0  0  0  0  0  0  0  0  0
   18.6721   -8.2924    9.1380 C   0  0  0  0  0  0  0  0  0  0  0  0
   18.2876   -8.4692    7.8490 N   0  0  0  0  0  0  0  0  0  0  0  0
   17.1375   -9.1825    7.9256 C   0  0  0  0  0  0  0  0  0  0  0  0
   16.8440   -9.4260    9.2501 C   0  0  0  0  0  0  0  0  0  0  0  0
   17.8010   -8.8712    9.9930 N   0  0  0  0  0  0  0  0  0  0  0  0
   17.8140   -8.9286   11.3227 N   0  0  0  0  0  0  0  0  0  0  0  0
   16.8020   -9.5807   11.9707 C   0  0  0  0  0  0  0  0  0  0  0  0
   15.8035  -10.1607   11.2327 N   0  0  0  0  0  0  0  0  0  0  0  0
   15.7986  -10.0993    9.8717 C   0  0  0  0  0  0  0  0  0  0  0  0
   14.8724  -10.6383    9.2107 O   0  0  0  0  0  0  0  0  0  0  0  0
   16.3473   -9.6138    6.7396 C   0  0  0  0  0  0  0  0  0  0  0  0
   15.0738  -10.6319   11.6962 H   0  0  0  0  0  0  0  0  0  0  0  0
   19.9210   -7.5337    9.4964 C   0  0  0  0  0  0  0  0  0  0  0  0
   22.1938   -8.4658    9.8097 C   0  0  0  0  0  0  0  0  0  0  0  0
   20.8426   -8.2601   10.4599 C   0  0  0  0  0  0  0  0  0  0  0  0
   15.5046   -7.4903   16.3074 C   0  0  0  0  0  0  0  0  0  0  0  0
   14.6381   -7.9152   17.5064 C   0  0  0  0  0  0  0  0  0  0  0  0
   13.1475   -7.7988   17.2371 C   0  0  0  0  0  0  0  0  0  0  0  0
   13.0423   -6.7203   18.3075 C   0  0  0  0  0  0  0  0  0  0  0  0
   14.5345   -6.8380   18.5727 C   0  0  0  0  0  0  0  0  0  0  0  0
   12.2620   -7.1698   19.5092 C   0  0  0  0  0  0  0  0  0  0  0  0
   11.7624   -6.3040   20.2761 O   0  0  0  0  0  0  0  0  0  0  0  0
   12.0588   -8.5582   19.7787 N   0  0  0  0  0  0  0  0  0  0  0  0
   11.3474   -8.9597   20.8578 O   0  0  0  0  0  0  0  0  0  0  0  0
   12.4415   -9.2318   19.1713 H   0  0  0  0  0  0  0  0  0  0  0  0
   11.0414   -8.1824   21.3508 H   0  0  0  0  0  0  0  0  0  0  0  0
   17.9743  -11.7987   13.4866 O   0  0  0  0  0  0  0  0  0  0  0  0
   18.7270  -12.8119   14.1395 C   0  0  0  0  0  0  0  0  0  0  0  0
   17.8340  -13.5556   15.1096 C   0  0  0  0  0  0  0  0  0  0  0  0
 20 21  1  0  0  0
 21 19  1  0  0  0
 19  7  1  0  0  0
  7  8  2  0  0  0
  8  9  1  0  0  0
  9 10  2  0  0  0
 10 11  1  0  0  0
 11 12  1  0  0  0
 12 13  2  0  0  0
 13 14  1  0  0  0
 14 15  1  0  0  0
 15 16  2  0  0  0
 13  1  1  0  0  0
  1  2  2  0  0  0
  2  3  1  0  0  0
  3  4  2  0  0  0
  4  5  1  0  0  0
  5  6  2  0  0  0
  5 22  1  0  0  0
 22 23  1  0  0  0
 23 24  1  0  0  0
 24 25  1  0  0  0
 25 26  1  0  0  0
 25 27  1  0  0  0
 27 28  2  0  0  0
 27 29  1  0  0  0
 29 30  1  0  0  0
  2 33  1  0  0  0
 33 34  1  0  0  0
 34 35  1  0  0  0
  9 17  1  0  0  0
 11  7  1  0  0  0
 15 10  1  0  0  0
  6  1  1  0  0  0
 26 23  1  0  0  0
 14 18  1  0  0  0
 29 31  1  0  0  0
 30 32  1  0  0  0
M  END
>  <minimizedAffinity>
-0.84984

>  <minimizedRMSD>
3.75572

$$$$
CHEMBL3985685 PubChem-68328367


 36 40  0  0  0  0  0  0  0  0999 V2000
   17.8122  -10.8009   15.0137 N   0  0  0  0  0  0  0  0  0  0  0  0
   18.2532   -9.5931   14.5986 C   0  0  0  0  0  0  0  0  0  0  0  0
   17.6681   -8.5851   15.3457 C   0  0  0  0  0  0  0  0  0  0  0  0
   16.8367   -9.2902   16.2049 C   0  0  0  0  0  0  0  0  0  0  0  0
   16.9408  -10.6175   15.9913 N   0  0  0  0  0  0  0  0  0  0  0  0
   19.2290  -16.0179   13.0906 C   0  0  0  0  0  0  0  0  0  0  0  0
   18.8656  -14.6646   13.5853 C   0  0  0  0  0  0  0  0  0  0  0  0
   19.3539  -13.5287   12.9354 C   0  0  0  0  0  0  0  0  0  0  0  0
   19.0118  -12.2562   13.4013 C   0  0  0  0  0  0  0  0  0  0  0  0
   18.1789  -12.1047   14.5218 C   0  0  0  0  0  0  0  0  0  0  0  0
   17.6935  -13.2545   15.1648 C   0  0  0  0  0  0  0  0  0  0  0  0
   18.0350  -14.5278   14.6999 C   0  0  0  0  0  0  0  0  0  0  0  0
   15.9577   -8.6936   17.2246 C   0  0  0  0  0  0  0  0  0  0  0  0
   16.3089   -8.7547   18.5796 C   0  0  0  0  0  0  0  0  0  0  0  0
   15.4771   -8.1911   19.5509 C   0  0  0  0  0  0  0  0  0  0  0  0
   14.2822   -7.5587   19.1811 C   0  0  0  0  0  0  0  0  0  0  0  0
   13.9309   -7.4980   17.8252 C   0  0  0  0  0  0  0  0  0  0  0  0
   14.7627   -8.0614   16.8537 C   0  0  0  0  0  0  0  0  0  0  0  0
   13.4057   -6.9646   20.2060 C   0  0  0  0  0  0  0  0  0  0  0  0
   12.6107   -7.6965   20.8576 O   0  0  0  0  0  0  0  0  0  0  0  0
   13.4550   -5.5588   20.4634 N   0  0  0  0  0  0  0  0  0  0  0  0
   12.6107   -4.9280   21.4637 C   0  0  0  0  0  0  0  0  0  0  0  0
   14.0805   -5.0010   19.9467 H   0  0  0  0  0  0  0  0  0  0  0  0
   19.2642   -9.4020   13.6005 N   0  0  0  0  0  0  0  0  0  0  0  0
   19.0317   -8.9835   12.2501 C   0  0  0  0  0  0  0  0  0  0  0  0
   19.8986   -8.2702   11.6802 O   0  0  0  0  0  0  0  0  0  0  0  0
   20.1969   -9.5728   13.8652 H   0  0  0  0  0  0  0  0  0  0  0  0
   17.8433   -9.4187   11.4913 C   0  0  0  0  0  0  0  0  0  0  0  0
   17.6437   -9.3714   10.1322 C   0  0  0  0  0  0  0  0  0  0  0  0
   18.4551   -8.8726    9.1672 N   0  0  0  0  0  0  0  0  0  0  0  0
   18.0368   -8.9333    7.8688 C   0  0  0  0  0  0  0  0  0  0  0  0
   16.7893   -9.5021    7.5433 C   0  0  0  0  0  0  0  0  0  0  0  0
   15.9865  -10.0048    8.5766 C   0  0  0  0  0  0  0  0  0  0  0  0
   16.4596   -9.9135    9.8421 N   0  0  0  0  0  0  0  0  0  0  0  0
   15.8658  -10.3301   10.9460 N   0  0  0  0  0  0  0  0  0  0  0  0
   16.6957  -10.0462   11.9830 C   0  0  0  0  0  0  0  0  0  0  0  0
  6  7  1  0  0  0
  7  8  2  0  0  0
  8  9  1  0  0  0
  9 10  2  0  0  0
 10 11  1  0  0  0
 10  1  1  0  0  0
 11 12  2  0  0  0
 12  7  1  0  0  0
  1  2  1  0  0  0
  2  3  2  0  0  0
  2 24  1  0  0  0
  3  4  1  0  0  0
  4  5  2  0  0  0
  4 13  1  0  0  0
  5  1  1  0  0  0
 13 14  2  0  0  0
 14 15  1  0  0  0
 15 16  2  0  0  0
 16 17  1  0  0  0
 16 19  1  0  0  0
 17 18  2  0  0  0
 18 13  1  0  0  0
 19 20  2  0  0  0
 19 21  1  0  0  0
 21 22  1  0  0  0
 24 25  1  0  0  0
 25 26  2  0  0  0
 25 28  1  0  0  0
 28 29  2  0  0  0
 29 30  1  0  0  0
 30 31  2  0  0  0
 31 32  1  0  0  0
 32 33  2  0  0  0
 33 34  1  0  0  0
 34 35  1  0  0  0
 34 29  1  0  0  0
 35 36  2  0  0  0
 36 28  1  0  0  0
 21 23  1  0  0  0
 24 27  1  0  0  0
M  END
>  <minimizedAffinity>
13.03697

>  <minimizedRMSD>
3.76957

$$$$
CHEMBL297113 PubChem-44291243


 34 36  0  0  0  0  0  0  0  0999 V2000
   15.4114   -8.3369   15.8643 C   0  0  0  0  0  0  0  0  0  0  0  0
   16.6027   -8.6789   16.5133 C   0  0  0  0  0  0  0  0  0  0  0  0
   16.7606   -8.4308   17.8798 C   0  0  0  0  0  0  0  0  0  0  0  0
   15.7237   -7.8403   18.6091 C   0  0  0  0  0  0  0  0  0  0  0  0
   14.5316   -7.4915   17.9664 C   0  0  0  0  0  0  0  0  0  0  0  0
   14.3756   -7.7407   16.6000 C   0  0  0  0  0  0  0  0  0  0  0  0
   15.9138   -9.6690   13.7249 C   0  0  0  0  0  0  0  0  0  0  0  0
   16.6714  -10.4842   14.3198 O   0  0  0  0  0  0  0  0  0  0  0  0
   15.2903   -8.6055   14.4608 N   0  0  0  0  0  0  0  0  0  0  0  0
   14.7168   -7.9935   13.9454 H   0  0  0  0  0  0  0  0  0  0  0  0
   15.6909   -9.8249   12.2602 C   0  0  0  0  0  0  0  0  0  0  0  0
   16.7028   -9.6651   11.2773 C   0  0  0  0  0  0  0  0  0  0  0  0
   16.3664   -9.8445    9.9106 C   0  0  0  0  0  0  0  0  0  0  0  0
   15.0953  -10.1618    9.5541 N   0  0  0  0  0  0  0  0  0  0  0  0
   14.1145  -10.3167   10.4783 C   0  0  0  0  0  0  0  0  0  0  0  0
   14.3956  -10.1515   11.8331 C   0  0  0  0  0  0  0  0  0  0  0  0
   17.3394   -9.6917    8.9186 C   0  0  0  0  0  0  0  0  0  0  0  0
   18.6501   -9.3595    9.2649 C   0  0  0  0  0  0  0  0  0  0  0  0
   18.9938   -9.1788   10.6055 C   0  0  0  0  0  0  0  0  0  0  0  0
   18.0273   -9.3305   11.6026 C   0  0  0  0  0  0  0  0  0  0  0  0
   15.9096   -7.5415   20.0589 C   0  0  0  0  0  0  0  0  0  0  0  0
   14.5698   -7.5235   20.7856 C   0  0  0  0  0  0  0  0  0  0  0  0
   14.0625   -6.1614   20.8738 N   0  0  0  0  0  0  0  0  0  0  0  0
   12.8664   -5.8440   21.5924 C   0  0  0  0  0  0  0  0  0  0  0  0
   12.2161   -6.7639   22.1624 O   0  0  0  0  0  0  0  0  0  0  0  0
   14.5571   -5.4375   20.4258 H   0  0  0  0  0  0  0  0  0  0  0  0
   12.3382   -4.4337   21.5850 C   0  0  0  0  0  0  0  0  0  0  0  0
   11.4882   -4.2265   20.3470 C   0  0  0  0  0  0  0  0  0  0  0  0
   13.4824   -3.4356   21.5686 C   0  0  0  0  0  0  0  0  0  0  0  0
   11.4883   -4.1585   22.8144 C   0  0  0  0  0  0  0  0  0  0  0  0
   14.7175   -8.0977   22.1546 C   0  0  0  0  0  0  0  0  0  0  0  0
   15.4909   -7.5649   22.9941 O   0  0  0  0  0  0  0  0  0  0  0  0
   13.9915   -9.2273   22.5065 O   0  0  0  0  0  0  0  0  0  0  0  0
   13.4152   -9.6263   21.8847 H   0  0  0  0  0  0  0  0  0  0  0  0
  7  8  2  0  0  0
  7 11  1  0  0  0
 11 12  2  0  0  0
 12 13  1  0  0  0
 13 14  2  0  0  0
 14 15  1  0  0  0
 15 16  2  0  0  0
 13 17  1  0  0  0
 17 18  2  0  0  0
 18 19  1  0  0  0
 19 20  2  0  0  0
  7  9  1  0  0  0
  9  1  1  0  0  0
  1  2  2  0  0  0
  2  3  1  0  0  0
  3  4  2  0  0  0
  4 21  1  0  0  0
 22 21  1  0  0  0
 22 23  1  0  0  0
 23 24  1  0  0  0
 24 25  2  0  0  0
 24 27  1  0  0  0
 27 28  1  0  0  0
 27 29  1  0  0  0
 27 30  1  0  0  0
 22 31  1  0  0  0
 31 32  2  0  0  0
 31 33  1  0  0  0
  4  5  1  0  0  0
  5  6  2  0  0  0
 16 11  1  0  0  0
  6  1  1  0  0  0
 20 12  1  0  0  0
  9 10  1  0  0  0
 23 26  1  0  0  0
 33 34  1  0  0  0
M  END
>  <minimizedAffinity>
-3.78398

>  <minimizedRMSD>
3.79149

$$$$
CHEMBL4113333 PubChem-90072693


 37 41  0  0  0  0  0  0  0  0999 V2000
   14.5576  -10.7326    8.8542 C   0  0  0  0  0  0  0  0  0  0  0  0
   15.8619  -10.0151    8.9109 C   0  0  0  0  0  0  0  0  0  0  0  0
   16.6453   -9.7989   10.0406 C   0  0  0  0  0  0  0  0  0  0  0  0
   17.7318   -9.1167    9.6344 N   0  0  0  0  0  0  0  0  0  0  0  0
   18.8011   -8.6592   10.3365 C   0  0  0  0  0  0  0  0  0  0  0  0
   19.8038   -7.9675    9.6437 C   0  0  0  0  0  0  0  0  0  0  0  0
   19.6764   -7.7686    8.2575 C   0  0  0  0  0  0  0  0  0  0  0  0
   18.5521   -8.2587    7.5650 C   0  0  0  0  0  0  0  0  0  0  0  0
   17.5871   -8.9392    8.3081 C   0  0  0  0  0  0  0  0  0  0  0  0
   16.4506   -9.4757    7.8178 N   0  0  0  0  0  0  0  0  0  0  0  0
   16.3670  -10.2265   11.4291 C   0  0  0  0  0  0  0  0  0  0  0  0
   15.2363  -10.0072   11.9414 O   0  0  0  0  0  0  0  0  0  0  0  0
   17.3754  -10.8942   12.1918 N   0  0  0  0  0  0  0  0  0  0  0  0
   18.2340  -11.1029   11.7577 H   0  0  0  0  0  0  0  0  0  0  0  0
   17.1862  -11.2786   13.5836 C   0  0  0  0  0  0  0  0  0  0  0  0
   18.3069  -12.2439   13.9950 C   0  0  0  0  0  0  0  0  0  0  0  0
   19.0973  -11.5955   15.1558 C   0  0  0  0  0  0  0  0  0  0  0  0
   18.4387  -10.2836   15.3358 C   0  0  0  0  0  0  0  0  0  0  0  0
   18.7930   -9.2950   16.2567 C   0  0  0  0  0  0  0  0  0  0  0  0
   18.0425   -8.1105   16.2932 C   0  0  0  0  0  0  0  0  0  0  0  0
   16.9573   -7.9334   15.4177 C   0  0  0  0  0  0  0  0  0  0  0  0
   16.6205   -8.9383   14.4989 C   0  0  0  0  0  0  0  0  0  0  0  0
   17.3857  -10.1073   14.4725 C   0  0  0  0  0  0  0  0  0  0  0  0
   18.9897  -12.3423   16.3328 O   0  0  0  0  0  0  0  0  0  0  0  0
   17.7587  -13.4761   14.3598 O   0  0  0  0  0  0  0  0  0  0  0  0
   18.0545  -12.4331   16.5737 H   0  0  0  0  0  0  0  0  0  0  0  0
   17.1435  -13.3502   15.0990 H   0  0  0  0  0  0  0  0  0  0  0  0
   18.3875   -8.0823    6.1885 O   0  0  0  0  0  0  0  0  0  0  0  0
   19.0153   -7.0273    5.4727 C   0  0  0  0  0  0  0  0  0  0  0  0
   19.7506   -7.5862    4.3005 C   0  0  0  0  0  0  0  0  0  0  0  0
   19.0615   -8.3143    3.3177 C   0  0  0  0  0  0  0  0  0  0  0  0
   19.7577   -8.8588    2.2344 C   0  0  0  0  0  0  0  0  0  0  0  0
   21.1402   -8.6857    2.1302 C   0  0  0  0  0  0  0  0  0  0  0  0
   21.8307   -7.9692    3.1109 C   0  0  0  0  0  0  0  0  0  0  0  0
   21.1409   -7.4219    4.1969 C   0  0  0  0  0  0  0  0  0  0  0  0
   21.8278   -6.7340    5.1430 F   0  0  0  0  0  0  0  0  0  0  0  0
   17.7202   -8.4967    3.4063 F   0  0  0  0  0  0  0  0  0  0  0  0
  1  2  1  0  0  0
  2  3  2  0  0  0
  3  4  1  0  0  0
  3 11  1  0  0  0
  4  5  1  0  0  0
  5  6  2  0  0  0
  6  7  1  0  0  0
  7  8  2  0  0  0
  8  9  1  0  0  0
  8 28  1  0  0  0
  9 10  2  0  0  0
  9  4  1  0  0  0
 10  2  1  0  0  0
 28 29  1  0  0  0
 29 30  1  0  0  0
 30 31  2  0  0  0
 31 32  1  0  0  0
 31 37  1  0  0  0
 32 33  2  0  0  0
 33 34  1  0  0  0
 34 35  2  0  0  0
 35 36  1  0  0  0
 35 30  1  0  0  0
 11 12  2  0  0  0
 11 13  1  0  0  0
 15 13  1  0  0  0
 15 16  1  0  0  0
 16 17  1  0  0  0
 16 25  1  0  0  0
 17 18  1  0  0  0
 17 24  1  0  0  0
 18 19  2  0  0  0
 19 20  1  0  0  0
 20 21  2  0  0  0
 21 22  1  0  0  0
 22 23  2  0  0  0
 23 15  1  0  0  0
 23 18  1  0  0  0
 13 14  1  0  0  0
 24 26  1  0  0  0
 25 27  1  0  0  0
M  END
>  <minimizedAffinity>
-6.56026

>  <minimizedRMSD>
3.83680

$$$$
CHEMBL5183907 PubChem-155694834


 41 45  0  0  0  0  0  0  0  0999 V2000
   17.0516   -9.3662   10.5768 C   0  0  0  0  0  0  0  0  0  0  0  0
   18.0091   -8.7859    9.7560 C   0  0  0  0  0  0  0  0  0  0  0  0
   18.0585   -9.1081    8.4460 C   0  0  0  0  0  0  0  0  0  0  0  0
   17.2033   -9.9917    7.8737 N   0  0  0  0  0  0  0  0  0  0  0  0
   16.2555  -10.5717    8.6720 C   0  0  0  0  0  0  0  0  0  0  0  0
   16.1842  -10.2596   10.0061 N   0  0  0  0  0  0  0  0  0  0  0  0
   19.0545   -8.4344    7.8628 N   0  0  0  0  0  0  0  0  0  0  0  0
   19.5986   -7.6926    8.8635 C   0  0  0  0  0  0  0  0  0  0  0  0
   18.9710   -7.8910   10.0579 N   0  0  0  0  0  0  0  0  0  0  0  0
   19.4380   -8.4640    6.4572 C   0  0  0  0  0  0  0  0  0  0  0  0
   18.3787   -7.7977    5.6063 C   0  0  0  0  0  0  0  0  0  0  0  0
   19.1748   -6.9621    4.6311 C   0  0  0  0  0  0  0  0  0  0  0  0
   20.6120   -7.2850    4.9659 C   0  0  0  0  0  0  0  0  0  0  0  0
   20.6596   -7.7953    6.2731 O   0  0  0  0  0  0  0  0  0  0  0  0
   18.9089   -7.3014    3.3003 O   0  0  0  0  0  0  0  0  0  0  0  0
   17.6138   -8.7748    4.9631 O   0  0  0  0  0  0  0  0  0  0  0  0
   19.1103   -8.2398    3.1595 H   0  0  0  0  0  0  0  0  0  0  0  0
   18.1957   -9.3499    4.4420 H   0  0  0  0  0  0  0  0  0  0  0  0
   21.4568   -6.0288    4.8668 C   0  0  0  0  0  0  0  0  0  0  0  0
   22.4921   -6.2251    3.9535 O   0  0  0  0  0  0  0  0  0  0  0  0
   23.0501   -6.9609    4.2505 H   0  0  0  0  0  0  0  0  0  0  0  0
   16.9763   -9.0306   11.9677 N   0  0  0  0  0  0  0  0  0  0  0  0
   16.2936   -8.3765   12.2421 H   0  0  0  0  0  0  0  0  0  0  0  0
   18.3726  -11.8669   13.6867 C   0  0  0  0  0  0  0  0  0  0  0  0
   18.5142  -10.8674   12.5492 C   0  0  0  0  0  0  0  0  0  0  0  0
   17.8369   -9.5866   13.0095 C   0  0  0  0  0  0  0  0  0  0  0  0
   17.0465   -9.9345   14.2563 C   0  0  0  0  0  0  0  0  0  0  0  0
   17.7731  -11.1145   14.8603 C   0  0  0  0  0  0  0  0  0  0  0  0
   17.0475   -8.8587   15.1457 O   0  0  0  0  0  0  0  0  0  0  0  0
   15.7274   -8.3997   15.1540 C   0  0  0  0  0  0  0  0  0  0  0  0
   15.3032   -8.1087   16.5511 C   0  0  0  0  0  0  0  0  0  0  0  0
   14.0221   -7.6076   16.7991 C   0  0  0  0  0  0  0  0  0  0  0  0
   13.6170   -7.3382   18.1099 C   0  0  0  0  0  0  0  0  0  0  0  0
   14.4899   -7.5692   19.1832 C   0  0  0  0  0  0  0  0  0  0  0  0
   15.7723   -8.0757   18.9270 C   0  0  0  0  0  0  0  0  0  0  0  0
   16.1772   -8.3456   17.6170 C   0  0  0  0  0  0  0  0  0  0  0  0
   14.0637   -7.2866   20.5659 C   0  0  0  0  0  0  0  0  0  0  0  0
   12.8875   -7.5482   20.9375 O   0  0  0  0  0  0  0  0  0  0  0  0
   14.9773   -6.7163   21.5002 N   0  0  0  0  0  0  0  0  0  0  0  0
   15.8986   -6.5073   21.2229 H   0  0  0  0  0  0  0  0  0  0  0  0
   14.6869   -6.5315   22.4226 H   0  0  0  0  0  0  0  0  0  0  0  0
 24 25  1  0  0  0
 25 26  1  0  0  0
 26 27  1  0  0  0
 27 28  1  0  0  0
 27 29  1  0  0  0
 29 30  1  0  0  0
 30 31  1  0  0  0
 31 32  2  0  0  0
 32 33  1  0  0  0
 33 34  2  0  0  0
 34 35  1  0  0  0
 35 36  2  0  0  0
 34 37  1  0  0  0
 37 38  2  0  0  0
 37 39  1  0  0  0
 26 22  1  0  0  0
 22  1  1  0  0  0
  1  2  2  0  0  0
  2  3  1  0  0  0
  3  4  2  0  0  0
  4  5  1  0  0  0
  5  6  2  0  0  0
  3  7  1  0  0  0
  7  8  1  0  0  0
  8  9  2  0  0  0
 10  7  1  0  0  0
 10 11  1  0  0  0
 11 12  1  0  0  0
 12 13  1  0  0  0
 13 14  1  0  0  0
 13 19  1  0  0  0
 19 20  1  0  0  0
 12 15  1  0  0  0
 11 16  1  0  0  0
 28 24  1  0  0  0
 36 31  1  0  0  0
  6  1  1  0  0  0
  9  2  1  0  0  0
 14 10  1  0  0  0
 39 40  1  0  0  0
 39 41  1  0  0  0
 22 23  1  0  0  0
 20 21  1  0  0  0
 15 17  1  0  0  0
 16 18  1  0  0  0
M  END
>  <minimizedAffinity>
-4.77981

>  <minimizedRMSD>
3.84060

$$$$
CHEMBL1715122


 34 36  0  0  0  0  0  0  0  0999 V2000
   17.4111  -10.0183   13.8323 C   0  0  0  0  0  0  0  0  0  0  0  0
   16.2716   -9.4920   16.0187 N   0  0  0  0  0  0  0  0  0  0  0  0
   16.8041   -9.0343   14.7696 C   0  0  0  0  0  0  0  0  0  0  0  0
   16.7469   -7.8212   14.4384 O   0  0  0  0  0  0  0  0  0  0  0  0
   16.3703  -10.4517   16.2146 H   0  0  0  0  0  0  0  0  0  0  0  0
   14.3700   -7.1738   19.0161 C   0  0  0  0  0  0  0  0  0  0  0  0
   13.7695   -7.2995   17.7588 C   0  0  0  0  0  0  0  0  0  0  0  0
   14.3873   -8.0588   16.7607 C   0  0  0  0  0  0  0  0  0  0  0  0
   15.6108   -8.6997   17.0122 C   0  0  0  0  0  0  0  0  0  0  0  0
   16.1996   -8.5775   18.2748 C   0  0  0  0  0  0  0  0  0  0  0  0
   15.5840   -7.8180   19.2732 C   0  0  0  0  0  0  0  0  0  0  0  0
   14.8011   -5.4603   21.2515 N   0  0  0  0  0  0  0  0  0  0  0  0
   13.5977   -6.2187   20.2693 S   0  0  0  0  0  0  0  0  0  0  0  0
   12.7428   -7.1104   21.1237 O   0  0  0  0  0  0  0  0  0  0  0  0
   12.7428   -5.1553   19.6382 O   0  0  0  0  0  0  0  0  0  0  0  0
   14.3474   -4.9066   21.9782 H   0  0  0  0  0  0  0  0  0  0  0  0
   15.3794   -4.8521   20.6718 H   0  0  0  0  0  0  0  0  0  0  0  0
   17.1290   -9.6486   12.4896 O   0  0  0  0  0  0  0  0  0  0  0  0
   16.0090  -10.1212   11.7997 C   0  0  0  0  0  0  0  0  0  0  0  0
   14.8461   -9.9510   12.2561 O   0  0  0  0  0  0  0  0  0  0  0  0
   16.1979  -10.7966   10.4831 C   0  0  0  0  0  0  0  0  0  0  0  0
   15.7620   -9.8932    9.3351 C   0  0  0  0  0  0  0  0  0  0  0  0
   16.9322   -9.2181    8.6984 C   0  0  0  0  0  0  0  0  0  0  0  0
   17.8811   -8.6364    9.4801 N   0  0  0  0  0  0  0  0  0  0  0  0
   18.9611   -8.0178    8.9350 C   0  0  0  0  0  0  0  0  0  0  0  0
   19.9021   -7.4213    9.7664 O   0  0  0  0  0  0  0  0  0  0  0  0
   19.1105   -7.9841    7.5444 C   0  0  0  0  0  0  0  0  0  0  0  0
   20.2122   -7.3720    6.9324 C   0  0  0  0  0  0  0  0  0  0  0  0
   20.3210   -7.3641    5.5371 C   0  0  0  0  0  0  0  0  0  0  0  0
   19.3312   -7.9648    4.7516 C   0  0  0  0  0  0  0  0  0  0  0  0
   18.2288   -8.5773    5.3576 C   0  0  0  0  0  0  0  0  0  0  0  0
   18.1150   -8.5893    6.7511 C   0  0  0  0  0  0  0  0  0  0  0  0
   17.0510   -9.1878    7.3434 N   0  0  0  0  0  0  0  0  0  0  0  0
   19.7911   -7.4505   10.6963 H   0  0  0  0  0  0  0  0  0  0  0  0
 12 13  1  0  0  0
 13 14  2  0  0  0
 13 15  2  0  0  0
 13  6  1  0  0  0
  6  7  2  0  0  0
  7  8  1  0  0  0
  8  9  2  0  0  0
  9  2  1  0  0  0
  9 10  1  0  0  0
  2  3  1  0  0  0
  3  4  2  0  0  0
  3  1  1  0  0  0
  1 18  1  0  0  0
 18 19  1  0  0  0
 19 20  2  0  0  0
 19 21  1  0  0  0
 21 22  1  0  0  0
 22 23  1  0  0  0
 23 24  2  0  0  0
 24 25  1  0  0  0
 25 26  1  0  0  0
 25 27  2  0  0  0
 27 28  1  0  0  0
 28 29  2  0  0  0
 29 30  1  0  0  0
 30 31  2  0  0  0
 31 32  1  0  0  0
 32 33  2  0  0  0
 32 27  1  0  0  0
 33 23  1  0  0  0
 10 11  2  0  0  0
 11  6  1  0  0  0
 12 16  1  0  0  0
 12 17  1  0  0  0
  2  5  1  0  0  0
 26 34  1  0  0  0
M  END
>  <minimizedAffinity>
-5.54051

>  <minimizedRMSD>
3.86682

$$$$
CHEMBL565453


 39 42  0  0  0  0  0  0  0  0999 V2000
   17.1438   -9.9698   16.3283 C   0  0  0  0  0  0  0  0  0  0  0  0
   17.1132  -11.1989   16.7467 N   0  0  0  0  0  0  0  0  0  0  0  0
   17.8515   -9.3469   12.2303 N   0  0  0  0  0  0  0  0  0  0  0  0
   18.5653  -10.4153   12.9144 C   0  0  0  0  0  0  0  0  0  0  0  0
   17.7402  -10.8681   14.1115 C   0  0  0  0  0  0  0  0  0  0  0  0
   17.3383   -9.7192   14.9264 N   0  0  0  0  0  0  0  0  0  0  0  0
   16.7703   -8.5271   14.2631 C   0  0  0  0  0  0  0  0  0  0  0  0
   16.7562   -7.3169   15.1859 C   0  0  0  0  0  0  0  0  0  0  0  0
   17.5847   -8.1561   13.0244 C   0  0  0  0  0  0  0  0  0  0  0  0
   19.6365   -8.1331    9.8601 C   0  0  0  0  0  0  0  0  0  0  0  0
   18.3728   -8.5927    9.2224 C   0  0  0  0  0  0  0  0  0  0  0  0
   18.0887   -8.5187    7.8634 C   0  0  0  0  0  0  0  0  0  0  0  0
   16.8930   -9.1021    7.5987 N   0  0  0  0  0  0  0  0  0  0  0  0
   16.4480   -9.5358    8.7903 C   0  0  0  0  0  0  0  0  0  0  0  0
   15.3049  -10.2334    8.9937 N   0  0  0  0  0  0  0  0  0  0  0  0
   15.0113  -10.6515   10.2590 C   0  0  0  0  0  0  0  0  0  0  0  0
   15.8558  -10.3667   11.2978 N   0  0  0  0  0  0  0  0  0  0  0  0
   17.0095   -9.6572   11.1116 C   0  0  0  0  0  0  0  0  0  0  0  0
   17.3074   -9.2423    9.8080 C   0  0  0  0  0  0  0  0  0  0  0  0
   16.4484   -9.1889    6.7246 H   0  0  0  0  0  0  0  0  0  0  0  0
   16.9461  -11.5447   18.0975 C   0  0  0  0  0  0  0  0  0  0  0  0
   16.8079  -11.8300   19.2106 N   0  0  0  0  0  0  0  0  0  0  0  0
   17.0287   -8.8841   17.2659 N   0  0  0  0  0  0  0  0  0  0  0  0
   17.8665   -8.4795   17.5880 H   0  0  0  0  0  0  0  0  0  0  0  0
   15.8045   -8.3391   17.7725 C   0  0  0  0  0  0  0  0  0  0  0  0
   14.6940   -8.1300   16.9403 C   0  0  0  0  0  0  0  0  0  0  0  0
   13.5056   -7.6170   17.4662 C   0  0  0  0  0  0  0  0  0  0  0  0
   13.4166   -7.3218   18.8288 C   0  0  0  0  0  0  0  0  0  0  0  0
   14.5139   -7.5433   19.6677 C   0  0  0  0  0  0  0  0  0  0  0  0
   15.7033   -8.0537   19.1372 C   0  0  0  0  0  0  0  0  0  0  0  0
   14.4075   -7.1738   21.3807 S   0  0  0  0  0  0  0  0  0  0  0  0
   13.0465   -6.6126   21.6797 O   0  0  0  0  0  0  0  0  0  0  0  0
   14.6131   -8.4265   22.1877 O   0  0  0  0  0  0  0  0  0  0  0  0
   15.6138   -6.0095   21.8157 N   0  0  0  0  0  0  0  0  0  0  0  0
   15.2079   -5.3014   22.4274 H   0  0  0  0  0  0  0  0  0  0  0  0
   16.6791   -6.7120   22.5116 C   0  0  0  0  0  0  0  0  0  0  0  0
   18.0194   -6.1902   22.0404 C   0  0  0  0  0  0  0  0  0  0  0  0
   18.1443   -6.3999   20.6679 O   0  0  0  0  0  0  0  0  0  0  0  0
   18.0831   -7.3493   20.4789 H   0  0  0  0  0  0  0  0  0  0  0  0
 10 11  1  0  0  0
 11 12  2  0  0  0
 12 13  1  0  0  0
 13 14  1  0  0  0
 14 15  2  0  0  0
 15 16  1  0  0  0
 16 17  2  0  0  0
 17 18  1  0  0  0
 18  3  1  0  0  0
 18 19  2  0  0  0
  3  4  1  0  0  0
  4  5  1  0  0  0
  5  6  1  0  0  0
  6  1  1  0  0  0
  6  7  1  0  0  0
  1  2  2  0  0  0
  1 23  1  0  0  0
  2 21  1  0  0  0
 21 22  3  0  0  0
 23 25  1  0  0  0
 25 26  2  0  0  0
 26 27  1  0  0  0
 27 28  2  0  0  0
 28 29  1  0  0  0
 29 31  1  0  0  0
 29 30  2  0  0  0
 31 32  2  0  0  0
 31 33  2  0  0  0
 31 34  1  0  0  0
 34 36  1  0  0  0
 36 37  1  0  0  0
 37 38  1  0  0  0
 30 25  1  0  0  0
  7  8  1  0  0  0
  7  9  1  0  0  0
  9  3  1  0  0  0
 19 11  1  0  0  0
 19 14  1  0  0  0
 13 20  1  0  0  0
 23 24  1  0  0  0
 34 35  1  0  0  0
 38 39  1  0  0  0
M  END
>  <minimizedAffinity>
-2.74347

>  <minimizedRMSD>
3.89906

$$$$
CHEMBL4792689 PubChem-133084072


 35 38  0  0  0  0  0  0  0  0999 V2000
   18.0335   -8.6307    7.6281 C   0  0  0  0  0  0  0  0  0  0  0  0
   18.7999   -7.6413    8.2739 C   0  0  0  0  0  0  0  0  0  0  0  0
   19.6309   -6.8197    7.5623 N   0  0  0  0  0  0  0  0  0  0  0  0
   19.7702   -6.9180    6.2053 C   0  0  0  0  0  0  0  0  0  0  0  0
   19.0471   -7.9198    5.5454 C   0  0  0  0  0  0  0  0  0  0  0  0
   18.1865   -8.7265    6.2385 C   0  0  0  0  0  0  0  0  0  0  0  0
   17.5671   -9.5289    5.2973 C   0  0  0  0  0  0  0  0  0  0  0  0
   18.0693   -9.1929    4.0846 N   0  0  0  0  0  0  0  0  0  0  0  0
   18.9683   -8.2266    4.2329 N   0  0  0  0  0  0  0  0  0  0  0  0
   19.7178   -7.6930    3.1325 C   0  0  0  0  0  0  0  0  0  0  0  0
   19.2630   -6.5416    2.4748 C   0  0  0  0  0  0  0  0  0  0  0  0
   19.9522   -6.0427    1.3657 C   0  0  0  0  0  0  0  0  0  0  0  0
   21.0926   -6.7009    0.8976 C   0  0  0  0  0  0  0  0  0  0  0  0
   21.5369   -7.8644    1.5311 C   0  0  0  0  0  0  0  0  0  0  0  0
   20.8473   -8.3630    2.6400 C   0  0  0  0  0  0  0  0  0  0  0  0
   21.7610   -6.2170   -0.1764 F   0  0  0  0  0  0  0  0  0  0  0  0
   16.9358   -9.2786    9.8112 N   0  0  0  0  0  0  0  0  0  0  0  0
   17.1211   -9.4939    8.4086 C   0  0  0  0  0  0  0  0  0  0  0  0
   16.4955  -10.4243    7.8304 O   0  0  0  0  0  0  0  0  0  0  0  0
   17.3859   -8.5111   10.2326 H   0  0  0  0  0  0  0  0  0  0  0  0
   16.1111  -10.1439   10.6435 C   0  0  0  0  0  0  0  0  0  0  0  0
   17.2489   -9.7249   14.7597 C   0  0  0  0  0  0  0  0  0  0  0  0
   15.9261   -9.4850   14.3700 C   0  0  0  0  0  0  0  0  0  0  0  0
   15.5536   -9.6260   13.0300 C   0  0  0  0  0  0  0  0  0  0  0  0
   16.5024  -10.0109   12.0760 C   0  0  0  0  0  0  0  0  0  0  0  0
   17.8247  -10.2495   12.4647 C   0  0  0  0  0  0  0  0  0  0  0  0
   18.1968  -10.1083   13.8047 C   0  0  0  0  0  0  0  0  0  0  0  0
   17.7230   -9.5565   16.4422 S   0  0  0  0  0  0  0  0  0  0  0  0
   19.0010   -8.7699   16.5166 O   0  0  0  0  0  0  0  0  0  0  0  0
   16.6562   -8.8189   17.2037 O   0  0  0  0  0  0  0  0  0  0  0  0
   17.9810  -12.0960   16.0765 C   0  0  0  0  0  0  0  0  0  0  0  0
   17.9673  -11.1176   17.1508 N   0  0  0  0  0  0  0  0  0  0  0  0
   18.8571  -11.1370   17.6491 H   0  0  0  0  0  0  0  0  0  0  0  0
   20.5842   -6.0252    5.5078 O   0  0  0  0  0  0  0  0  0  0  0  0
   21.8454   -6.4085    4.9811 C   0  0  0  0  0  0  0  0  0  0  0  0
 31 32  1  0  0  0
 32 28  1  0  0  0
 28 29  2  0  0  0
 28 30  2  0  0  0
 28 22  1  0  0  0
 22 23  2  0  0  0
 23 24  1  0  0  0
 24 25  2  0  0  0
 25 26  1  0  0  0
 26 27  2  0  0  0
 25 21  1  0  0  0
 21 17  1  0  0  0
 17 18  1  0  0  0
 18 19  2  0  0  0
 18  1  1  0  0  0
  1  2  2  0  0  0
  2  3  1  0  0  0
  3  4  2  0  0  0
  4  5  1  0  0  0
  5  6  2  0  0  0
  6  7  1  0  0  0
  7  8  2  0  0  0
  8  9  1  0  0  0
  9 10  1  0  0  0
 10 11  2  0  0  0
 11 12  1  0  0  0
 12 13  2  0  0  0
 13 14  1  0  0  0
 14 15  2  0  0  0
 13 16  1  0  0  0
  4 34  1  0  0  0
 34 35  1  0  0  0
 27 22  1  0  0  0
  6  1  1  0  0  0
  9  5  1  0  0  0
 15 10  1  0  0  0
 32 33  1  0  0  0
 17 20  1  0  0  0
M  END
>  <minimizedAffinity>
-5.33751

>  <minimizedRMSD>
3.94719

$$$$
CHEMBL4446074 PubChem-155518296


 43 46  0  0  0  0  0  0  0  0999 V2000
   18.2550   -9.4120   13.6794 C   0  0  0  0  0  0  0  0  0  0  0  0
   18.3807   -9.9829   10.2384 C   0  0  0  0  0  0  0  0  0  0  0  0
   18.8242   -8.5375   10.1727 C   0  0  0  0  0  0  0  0  0  0  0  0
   18.8753   -8.1302   11.6179 C   0  0  0  0  0  0  0  0  0  0  0  0
   19.0125   -9.4419   12.3571 C   0  0  0  0  0  0  0  0  0  0  0  0
   18.4911  -10.4746   11.5558 O   0  0  0  0  0  0  0  0  0  0  0  0
   19.9655   -7.2975   11.8853 O   0  0  0  0  0  0  0  0  0  0  0  0
   20.0912   -8.4834    9.5848 O   0  0  0  0  0  0  0  0  0  0  0  0
   20.7870   -7.7518   11.6412 H   0  0  0  0  0  0  0  0  0  0  0  0
   20.7024   -9.0502   10.0809 H   0  0  0  0  0  0  0  0  0  0  0  0
   17.0086  -10.1205    9.7623 N   0  0  0  0  0  0  0  0  0  0  0  0
   15.8715  -10.1834   10.4662 C   0  0  0  0  0  0  0  0  0  0  0  0
   14.8261  -10.2771    9.6176 C   0  0  0  0  0  0  0  0  0  0  0  0
   15.2539  -10.2728    8.3413 N   0  0  0  0  0  0  0  0  0  0  0  0
   16.6081  -10.1718    8.4669 C   0  0  0  0  0  0  0  0  0  0  0  0
   13.5338  -10.3516   10.1172 C   0  0  0  0  0  0  0  0  0  0  0  0
   13.3725  -10.3259   11.4734 N   0  0  0  0  0  0  0  0  0  0  0  0
   14.4516  -10.2285   12.3161 C   0  0  0  0  0  0  0  0  0  0  0  0
   15.7211  -10.1549   11.8130 N   0  0  0  0  0  0  0  0  0  0  0  0
   12.4074  -10.4503    9.2529 N   0  0  0  0  0  0  0  0  0  0  0  0
   12.5358  -10.4679    8.2770 H   0  0  0  0  0  0  0  0  0  0  0  0
   11.4998  -10.5008    9.6310 H   0  0  0  0  0  0  0  0  0  0  0  0
   19.1228   -8.9014   14.8244 C   0  0  0  0  0  0  0  0  0  0  0  0
   18.2963   -8.5197   15.9770 C   0  0  0  0  0  0  0  0  0  0  0  0
   17.6125   -8.2106   16.9205 C   0  0  0  0  0  0  0  0  0  0  0  0
   16.7931   -7.8459   18.0397 C   0  0  0  0  0  0  0  0  0  0  0  0
   17.3816   -7.3488   19.2057 C   0  0  0  0  0  0  0  0  0  0  0  0
   16.5817   -6.9960   20.2958 C   0  0  0  0  0  0  0  0  0  0  0  0
   15.1931   -7.1407   20.2199 C   0  0  0  0  0  0  0  0  0  0  0  0
   14.5944   -7.6393   19.0535 C   0  0  0  0  0  0  0  0  0  0  0  0
   15.4046   -7.9911   17.9639 C   0  0  0  0  0  0  0  0  0  0  0  0
   13.1309   -7.7912   18.9730 C   0  0  0  0  0  0  0  0  0  0  0  0
   12.5048   -7.3934   17.9547 O   0  0  0  0  0  0  0  0  0  0  0  0
   12.4074   -8.3902   20.0444 N   0  0  0  0  0  0  0  0  0  0  0  0
   12.8851   -8.7051   20.8456 H   0  0  0  0  0  0  0  0  0  0  0  0
   11.4298   -8.4891   19.9836 H   0  0  0  0  0  0  0  0  0  0  0  0
   20.1732   -9.9342   15.2283 C   0  0  0  0  0  0  0  0  0  0  0  0
   19.8559  -11.3319   14.7045 C   0  0  0  0  0  0  0  0  0  0  0  0
   18.7164  -11.9488   15.5040 C   0  0  0  0  0  0  0  0  0  0  0  0
   17.9047  -12.9296   14.7111 C   0  0  0  0  0  0  0  0  0  0  0  0
   17.8528  -12.8735   13.4529 O   0  0  0  0  0  0  0  0  0  0  0  0
   17.2035  -13.9236   15.3794 O   0  0  0  0  0  0  0  0  0  0  0  0
   17.2367  -13.9725   16.3146 H   0  0  0  0  0  0  0  0  0  0  0  0
  2 11  1  0  0  0
  2  3  1  0  0  0
  3  4  1  0  0  0
  4  5  1  0  0  0
  5  6  1  0  0  0
  5  1  1  0  0  0
 23  1  1  0  0  0
 23 37  1  0  0  0
 37 38  1  0  0  0
 38 39  1  0  0  0
 39 40  1  0  0  0
 40 41  2  0  0  0
 40 42  1  0  0  0
 23 24  1  0  0  0
 24 25  3  0  0  0
 25 26  1  0  0  0
 26 27  2  0  0  0
 27 28  1  0  0  0
 28 29  2  0  0  0
 29 30  1  0  0  0
 30 31  2  0  0  0
 30 32  1  0  0  0
 32 33  2  0  0  0
 32 34  1  0  0  0
  4  7  1  0  0  0
  3  8  1  0  0  0
 11 12  1  0  0  0
 12 13  2  0  0  0
 13 14  1  0  0  0
 14 15  2  0  0  0
 13 16  1  0  0  0
 16 17  2  0  0  0
 17 18  1  0  0  0
 18 19  2  0  0  0
 16 20  1  0  0  0
 15 11  1  0  0  0
  6  2  1  0  0  0
 31 26  1  0  0  0
 19 12  1  0  0  0
 42 43  1  0  0  0
 34 35  1  0  0  0
 34 36  1  0  0  0
  7  9  1  0  0  0
  8 10  1  0  0  0
 20 21  1  0  0  0
 20 22  1  0  0  0
M  END
>  <minimizedAffinity>
12.45221

>  <minimizedRMSD>
3.97658

$$$$
CHEMBL3143017


 36 40  0  0  0  0  0  0  0  0999 V2000
   17.6053   -9.4145   13.5618 C   0  0  0  0  0  0  0  0  0  0  0  0
   18.7647   -9.9902   13.0078 O   0  0  0  0  0  0  0  0  0  0  0  0
   19.4854  -10.5822   14.0660 C   0  0  0  0  0  0  0  0  0  0  0  0
   18.7136  -10.4399   15.3639 C   0  0  0  0  0  0  0  0  0  0  0  0
   19.2866   -9.4089   16.1147 O   0  0  0  0  0  0  0  0  0  0  0  0
   17.3323  -10.0710   14.8924 C   0  0  0  0  0  0  0  0  0  0  0  0
   19.3065   -8.5962   15.5856 H   0  0  0  0  0  0  0  0  0  0  0  0
   13.8602  -10.3473    8.8890 N   0  0  0  0  0  0  0  0  0  0  0  0
   15.1351  -10.0381    9.4448 C   0  0  0  0  0  0  0  0  0  0  0  0
   16.2257   -9.8723    8.6389 N   0  0  0  0  0  0  0  0  0  0  0  0
   17.4604   -9.5848    9.1648 C   0  0  0  0  0  0  0  0  0  0  0  0
   17.6253   -9.4517   10.5169 N   0  0  0  0  0  0  0  0  0  0  0  0
   16.5328   -9.5968   11.3068 C   0  0  0  0  0  0  0  0  0  0  0  0
   15.3146   -9.9045   10.8151 C   0  0  0  0  0  0  0  0  0  0  0  0
   14.4416  -10.1128   11.8181 N   0  0  0  0  0  0  0  0  0  0  0  0
   15.1959   -9.9109   12.9353 C   0  0  0  0  0  0  0  0  0  0  0  0
   16.4800   -9.5711   12.6430 N   0  0  0  0  0  0  0  0  0  0  0  0
   13.7569  -10.4372    7.9141 H   0  0  0  0  0  0  0  0  0  0  0  0
   13.0825  -10.4711    9.4799 H   0  0  0  0  0  0  0  0  0  0  0  0
   16.6471   -9.1517   15.7973 N   0  0  0  0  0  0  0  0  0  0  0  0
   16.4063   -9.4692   17.1727 C   0  0  0  0  0  0  0  0  0  0  0  0
   16.7822  -10.5799   17.6379 O   0  0  0  0  0  0  0  0  0  0  0  0
   16.3401   -8.2834   15.4494 H   0  0  0  0  0  0  0  0  0  0  0  0
   15.7074   -8.5081   18.0416 C   0  0  0  0  0  0  0  0  0  0  0  0
   16.0864   -8.3742   19.4014 C   0  0  0  0  0  0  0  0  0  0  0  0
   15.4191   -7.4757   20.2547 C   0  0  0  0  0  0  0  0  0  0  0  0
   14.3795   -6.7300   19.7076 C   0  0  0  0  0  0  0  0  0  0  0  0
   13.6100   -5.8223   20.3227 N   0  0  0  0  0  0  0  0  0  0  0  0
   12.7670   -5.4142   19.3357 C   0  0  0  0  0  0  0  0  0  0  0  0
   12.9872   -6.0254   18.1399 N   0  0  0  0  0  0  0  0  0  0  0  0
   14.0140   -6.8466   18.4033 C   0  0  0  0  0  0  0  0  0  0  0  0
   14.6493   -7.7267   17.5295 C   0  0  0  0  0  0  0  0  0  0  0  0
   13.6458   -5.5234   21.2600 H   0  0  0  0  0  0  0  0  0  0  0  0
   19.7199  -12.0494   13.7526 C   0  0  0  0  0  0  0  0  0  0  0  0
   18.5422  -12.7751   13.9360 O   0  0  0  0  0  0  0  0  0  0  0  0
   18.2528  -12.6941   14.8583 H   0  0  0  0  0  0  0  0  0  0  0  0
  8  9  1  0  0  0
  9 10  2  0  0  0
 10 11  1  0  0  0
 11 12  2  0  0  0
 12 13  1  0  0  0
 13 14  2  0  0  0
 14 15  1  0  0  0
 14  9  1  0  0  0
 15 16  2  0  0  0
 16 17  1  0  0  0
 17 13  1  0  0  0
  1 17  1  0  0  0
  1  2  1  0  0  0
  2  3  1  0  0  0
  3 34  1  0  0  0
  3  4  1  0  0  0
 34 35  1  0  0  0
  4  5  1  0  0  0
  4  6  1  0  0  0
  6 20  1  0  0  0
  6  1  1  0  0  0
 20 21  1  0  0  0
 21 22  2  0  0  0
 21 24  1  0  0  0
 24 25  2  0  0  0
 25 26  1  0  0  0
 26 27  2  0  0  0
 27 28  1  0  0  0
 28 29  1  0  0  0
 29 30  2  0  0  0
 30 31  1  0  0  0
 31 32  2  0  0  0
 31 27  1  0  0  0
 32 24  1  0  0  0
  8 18  1  0  0  0
  8 19  1  0  0  0
 35 36  1  0  0  0
  5  7  1  0  0  0
 20 23  1  0  0  0
 28 33  1  0  0  0
M  END
>  <minimizedAffinity>
-0.71544

>  <minimizedRMSD>
4.00247

$$$$
CHEMBL4170025 PubChem-145954667


 34 38  0  0  0  0  0  0  0  0999 V2000
   17.9287   -9.9228   13.1502 C   0  0  0  0  0  0  0  0  0  0  0  0
   16.8151   -9.0717   13.2877 C   0  0  0  0  0  0  0  0  0  0  0  0
   16.2775   -8.9041   14.5607 C   0  0  0  0  0  0  0  0  0  0  0  0
   16.8051   -9.5271   15.6543 C   0  0  0  0  0  0  0  0  0  0  0  0
   17.9214  -10.3566   15.5706 C   0  0  0  0  0  0  0  0  0  0  0  0
   18.4831  -10.5510   14.2963 C   0  0  0  0  0  0  0  0  0  0  0  0
   16.1089   -9.1643   16.7394 N   0  0  0  0  0  0  0  0  0  0  0  0
   15.1611   -8.3180   16.2566 C   0  0  0  0  0  0  0  0  0  0  0  0
   15.2422   -8.1198   14.9150 N   0  0  0  0  0  0  0  0  0  0  0  0
   16.4377   -9.4627   18.1255 C   0  0  0  0  0  0  0  0  0  0  0  0
   14.2168   -7.6115   17.0707 N   0  0  0  0  0  0  0  0  0  0  0  0
   13.4569   -7.1846   16.6128 H   0  0  0  0  0  0  0  0  0  0  0  0
   14.2858   -7.4748   18.4939 C   0  0  0  0  0  0  0  0  0  0  0  0
   13.1275   -7.6667   19.2526 C   0  0  0  0  0  0  0  0  0  0  0  0
   13.1757   -7.5801   20.6466 C   0  0  0  0  0  0  0  0  0  0  0  0
   14.3900   -7.3112   21.2989 C   0  0  0  0  0  0  0  0  0  0  0  0
   15.5513   -7.1385   20.5393 C   0  0  0  0  0  0  0  0  0  0  0  0
   15.5027   -7.2255   19.1453 C   0  0  0  0  0  0  0  0  0  0  0  0
   14.4749   -7.2137   22.6937 O   0  0  0  0  0  0  0  0  0  0  0  0
   14.4425   -5.9829   23.4131 C   0  0  0  0  0  0  0  0  0  0  0  0
   13.3153   -5.9302   24.2132 F   0  0  0  0  0  0  0  0  0  0  0  0
   15.5653   -5.8983   24.2132 F   0  0  0  0  0  0  0  0  0  0  0  0
   14.4380   -4.9174   22.5307 F   0  0  0  0  0  0  0  0  0  0  0  0
   18.4921  -10.0894   11.8786 O   0  0  0  0  0  0  0  0  0  0  0  0
   16.6748  -10.3485   10.3446 N   0  0  0  0  0  0  0  0  0  0  0  0
   16.0352  -10.0748    9.1623 C   0  0  0  0  0  0  0  0  0  0  0  0
   16.5813   -9.2036    8.2620 N   0  0  0  0  0  0  0  0  0  0  0  0
   17.7640   -8.6246    8.5794 C   0  0  0  0  0  0  0  0  0  0  0  0
   18.4165   -8.8775    9.7404 C   0  0  0  0  0  0  0  0  0  0  0  0
   17.8633   -9.7584   10.6709 C   0  0  0  0  0  0  0  0  0  0  0  0
   19.6065   -8.1713    9.6715 C   0  0  0  0  0  0  0  0  0  0  0  0
   19.6135   -7.5124    8.4810 N   0  0  0  0  0  0  0  0  0  0  0  0
   18.4927   -7.7943    7.8274 N   0  0  0  0  0  0  0  0  0  0  0  0
   18.1618   -7.2899    6.5064 C   0  0  0  0  0  0  0  0  0  0  0  0
 25 26  2  0  0  0
 26 27  1  0  0  0
 27 28  2  0  0  0
 28 29  1  0  0  0
 29 30  2  0  0  0
 30 24  1  0  0  0
 24  1  1  0  0  0
  1  2  2  0  0  0
  2  3  1  0  0  0
  3  4  2  0  0  0
  4  5  1  0  0  0
  5  6  2  0  0  0
  4  7  1  0  0  0
  7  8  1  0  0  0
  8  9  2  0  0  0
  8 11  1  0  0  0
 11 13  1  0  0  0
 13 14  2  0  0  0
 14 15  1  0  0  0
 15 16  2  0  0  0
 16 17  1  0  0  0
 17 18  2  0  0  0
 16 19  1  0  0  0
 19 20  1  0  0  0
 20 21  1  0  0  0
 20 22  1  0  0  0
 20 23  1  0  0  0
  7 10  1  0  0  0
 29 31  1  0  0  0
 31 32  2  0  0  0
 32 33  1  0  0  0
 33 34  1  0  0  0
 30 25  1  0  0  0
  6  1  1  0  0  0
 18 13  1  0  0  0
 33 28  1  0  0  0
  9  3  1  0  0  0
 11 12  1  0  0  0
M  END
>  <minimizedAffinity>
-6.85621

>  <minimizedRMSD>
4.01363

$$$$
CHEMBL2142022 ChemDiv-G357-4005 MCULE-9810773170 MolPort-007-848-112 PubChem-16027393 ZINC000008606923


 35 38  0  0  0  0  0  0  0  0999 V2000
   17.0579   -9.2835   16.3728 C   0  0  0  0  0  0  0  0  0  0  0  0
   18.1004   -9.8003   16.8635 O   0  0  0  0  0  0  0  0  0  0  0  0
   16.1400   -8.5186   17.2310 C   0  0  0  0  0  0  0  0  0  0  0  0
   16.4544   -8.2744   18.5753 C   0  0  0  0  0  0  0  0  0  0  0  0
   15.5780   -7.5446   19.3839 C   0  0  0  0  0  0  0  0  0  0  0  0
   14.3774   -7.0519   18.8621 C   0  0  0  0  0  0  0  0  0  0  0  0
   14.0631   -7.2956   17.5170 C   0  0  0  0  0  0  0  0  0  0  0  0
   14.9385   -8.0242   16.7074 C   0  0  0  0  0  0  0  0  0  0  0  0
   13.5085   -6.2991   19.7193 N   0  0  0  0  0  0  0  0  0  0  0  0
   13.0328   -6.6891   21.0164 C   0  0  0  0  0  0  0  0  0  0  0  0
   13.4033   -7.7710   21.5441 O   0  0  0  0  0  0  0  0  0  0  0  0
   13.2070   -5.4241   19.3834 H   0  0  0  0  0  0  0  0  0  0  0  0
   12.0720   -5.8156   21.7631 C   0  0  0  0  0  0  0  0  0  0  0  0
   12.2525   -5.8910   23.2848 C   0  0  0  0  0  0  0  0  0  0  0  0
   13.4567   -5.0768   23.7586 C   0  0  0  0  0  0  0  0  0  0  0  0
   13.3451   -3.6338   23.2798 C   0  0  0  0  0  0  0  0  0  0  0  0
   13.2939   -3.5953   21.7568 C   0  0  0  0  0  0  0  0  0  0  0  0
   12.0785   -4.3702   21.2515 C   0  0  0  0  0  0  0  0  0  0  0  0
   16.7730   -9.4279   15.0130 O   0  0  0  0  0  0  0  0  0  0  0  0
   15.5421   -9.9674   14.5551 C   0  0  0  0  0  0  0  0  0  0  0  0
   15.5360  -10.0040   10.3393 N   0  0  0  0  0  0  0  0  0  0  0  0
   15.6938   -9.9970    9.0180 N   0  0  0  0  0  0  0  0  0  0  0  0
   16.9977   -9.9044    8.6630 C   0  0  0  0  0  0  0  0  0  0  0  0
   18.0230   -9.8106   10.0131 S   0  0  0  0  0  0  0  0  0  0  0  0
   16.6913   -9.9122   11.0307 C   0  0  0  0  0  0  0  0  0  0  0  0
   16.7126   -9.9056   12.3857 N   0  0  0  0  0  0  0  0  0  0  0  0
   15.5378  -10.0037   13.0689 C   0  0  0  0  0  0  0  0  0  0  0  0
   14.3189  -10.0906   12.3761 C   0  0  0  0  0  0  0  0  0  0  0  0
   14.3393  -10.0919   10.9773 C   0  0  0  0  0  0  0  0  0  0  0  0
   13.2638  -10.1711   10.3269 O   0  0  0  0  0  0  0  0  0  0  0  0
   17.4572   -9.8548    7.2461 C   0  0  0  0  0  0  0  0  0  0  0  0
   18.4992   -8.7647    7.0572 C   0  0  0  0  0  0  0  0  0  0  0  0
   17.8742   -7.5268    6.8967 O   0  0  0  0  0  0  0  0  0  0  0  0
   18.7334   -6.6160    7.5133 C   0  0  0  0  0  0  0  0  0  0  0  0
   19.3515   -7.2537    8.7413 C   0  0  0  0  0  0  0  0  0  0  0  0
 21 22  1  0  0  0
 22 23  2  0  0  0
 23 24  1  0  0  0
 24 25  1  0  0  0
 25 26  2  0  0  0
 26 27  1  0  0  0
 27 20  1  0  0  0
 20 19  1  0  0  0
 19  1  1  0  0  0
  1  2  2  0  0  0
  1  3  1  0  0  0
  3  4  2  0  0  0
  4  5  1  0  0  0
  5  6  2  0  0  0
  6  7  1  0  0  0
  7  8  2  0  0  0
  6  9  1  0  0  0
  9 10  1  0  0  0
 10 13  1  0  0  0
 13 14  1  0  0  0
 14 15  1  0  0  0
 15 16  1  0  0  0
 16 17  1  0  0  0
 17 18  1  0  0  0
 10 11  2  0  0  0
 27 28  2  0  0  0
 28 29  1  0  0  0
 29 30  2  0  0  0
 23 31  1  0  0  0
 31 32  1  0  0  0
 32 33  1  0  0  0
 33 34  1  0  0  0
 34 35  1  0  0  0
 25 21  1  0  0  0
  8  3  1  0  0  0
 18 13  1  0  0  0
 29 21  1  0  0  0
  9 12  1  0  0  0
M  END
>  <minimizedAffinity>
-4.54382

>  <minimizedRMSD>
4.03163

$$$$
CHEMBL4170025 PubChem-145954667


 34 38  0  0  0  0  0  0  0  0999 V2000
   18.0954   -9.8750   13.0097 C   0  0  0  0  0  0  0  0  0  0  0  0
   16.9355   -9.1260   13.2868 C   0  0  0  0  0  0  0  0  0  0  0  0
   16.3769   -9.2374   14.5569 C   0  0  0  0  0  0  0  0  0  0  0  0
   16.9269  -10.0332   15.5196 C   0  0  0  0  0  0  0  0  0  0  0  0
   18.0879  -10.7714   15.2996 C   0  0  0  0  0  0  0  0  0  0  0  0
   18.6720  -10.6846   14.0235 C   0  0  0  0  0  0  0  0  0  0  0  0
   16.2012   -9.9251   16.6399 N   0  0  0  0  0  0  0  0  0  0  0  0
   15.2132   -9.0513   16.3111 C   0  0  0  0  0  0  0  0  0  0  0  0
   15.2966   -8.5920   15.0352 N   0  0  0  0  0  0  0  0  0  0  0  0
   16.5320  -10.4698   17.9483 C   0  0  0  0  0  0  0  0  0  0  0  0
   14.2234   -8.5668   17.2271 N   0  0  0  0  0  0  0  0  0  0  0  0
   13.2819   -8.7694   17.0227 H   0  0  0  0  0  0  0  0  0  0  0  0
   14.4892   -7.8129   18.4145 C   0  0  0  0  0  0  0  0  0  0  0  0
   15.7380   -7.8683   19.0505 C   0  0  0  0  0  0  0  0  0  0  0  0
   15.9595   -7.1563   20.2325 C   0  0  0  0  0  0  0  0  0  0  0  0
   14.9350   -6.3915   20.7992 C   0  0  0  0  0  0  0  0  0  0  0  0
   13.6791   -6.3525   20.1720 C   0  0  0  0  0  0  0  0  0  0  0  0
   13.4581   -7.0644   18.9899 C   0  0  0  0  0  0  0  0  0  0  0  0
   15.1933   -5.6879   21.9826 O   0  0  0  0  0  0  0  0  0  0  0  0
   14.9556   -6.2064   23.2896 C   0  0  0  0  0  0  0  0  0  0  0  0
   13.6012   -6.1830   23.5704 F   0  0  0  0  0  0  0  0  0  0  0  0
   15.4278   -7.5037   23.3788 F   0  0  0  0  0  0  0  0  0  0  0  0
   15.6193   -5.4226   24.2134 F   0  0  0  0  0  0  0  0  0  0  0  0
   18.6797   -9.7615   11.7418 O   0  0  0  0  0  0  0  0  0  0  0  0
   16.8033  -10.2205   10.3306 N   0  0  0  0  0  0  0  0  0  0  0  0
   16.0928  -10.0682    9.1670 C   0  0  0  0  0  0  0  0  0  0  0  0
   16.5499   -9.2453    8.1763 N   0  0  0  0  0  0  0  0  0  0  0  0
   17.7170   -8.5905    8.3858 C   0  0  0  0  0  0  0  0  0  0  0  0
   18.4382   -8.7232    9.5260 C   0  0  0  0  0  0  0  0  0  0  0  0
   17.9760   -9.5536   10.5481 C   0  0  0  0  0  0  0  0  0  0  0  0
   19.5870   -7.9710    9.3410 C   0  0  0  0  0  0  0  0  0  0  0  0
   19.5021   -7.4065    8.1057 N   0  0  0  0  0  0  0  0  0  0  0  0
   18.3654   -7.7885    7.5360 N   0  0  0  0  0  0  0  0  0  0  0  0
   17.9448   -7.4032    6.2005 C   0  0  0  0  0  0  0  0  0  0  0  0
 25 26  2  0  0  0
 26 27  1  0  0  0
 27 28  2  0  0  0
 28 29  1  0  0  0
 29 30  2  0  0  0
 30 24  1  0  0  0
 24  1  1  0  0  0
  1  2  2  0  0  0
  2  3  1  0  0  0
  3  4  2  0  0  0
  4  5  1  0  0  0
  5  6  2  0  0  0
  4  7  1  0  0  0
  7  8  1  0  0  0
  8  9  2  0  0  0
  8 11  1  0  0  0
 11 13  1  0  0  0
 13 14  2  0  0  0
 14 15  1  0  0  0
 15 16  2  0  0  0
 16 17  1  0  0  0
 17 18  2  0  0  0
 16 19  1  0  0  0
 19 20  1  0  0  0
 20 21  1  0  0  0
 20 22  1  0  0  0
 20 23  1  0  0  0
  7 10  1  0  0  0
 29 31  1  0  0  0
 31 32  2  0  0  0
 32 33  1  0  0  0
 33 34  1  0  0  0
 30 25  1  0  0  0
  6  1  1  0  0  0
 18 13  1  0  0  0
 33 28  1  0  0  0
  9  3  1  0  0  0
 11 12  1  0  0  0
M  END
>  <minimizedAffinity>
-4.82070

>  <minimizedRMSD>
4.03238

$$$$
CHEMBL1473225


 32 34  0  0  0  0  0  0  0  0999 V2000
   17.1156   -9.1205   14.5670 C   0  0  0  0  0  0  0  0  0  0  0  0
   17.3697  -10.5194   15.1030 C   0  0  0  0  0  0  0  0  0  0  0  0
   16.4774   -8.2200   15.5835 C   0  0  0  0  0  0  0  0  0  0  0  0
   16.5046   -6.9748   15.3918 O   0  0  0  0  0  0  0  0  0  0  0  0
   15.8521   -8.7666   16.7558 N   0  0  0  0  0  0  0  0  0  0  0  0
   15.8678   -9.7467   16.8473 H   0  0  0  0  0  0  0  0  0  0  0  0
   15.2077   -8.0339   17.8066 C   0  0  0  0  0  0  0  0  0  0  0  0
   13.9612   -7.4166   17.6261 C   0  0  0  0  0  0  0  0  0  0  0  0
   13.3636   -6.7107   18.6735 C   0  0  0  0  0  0  0  0  0  0  0  0
   14.0039   -6.6118   19.9167 C   0  0  0  0  0  0  0  0  0  0  0  0
   15.2495   -7.2290   20.0956 C   0  0  0  0  0  0  0  0  0  0  0  0
   15.8459   -7.9349   19.0468 C   0  0  0  0  0  0  0  0  0  0  0  0
   13.3752   -5.8677   21.0222 C   0  0  0  0  0  0  0  0  0  0  0  0
   13.9801   -4.6816   21.5298 N   0  0  0  0  0  0  0  0  0  0  0  0
   12.2958   -6.2734   21.5298 O   0  0  0  0  0  0  0  0  0  0  0  0
   14.8236   -4.3542   21.1417 H   0  0  0  0  0  0  0  0  0  0  0  0
   13.5545   -4.1894   22.2687 H   0  0  0  0  0  0  0  0  0  0  0  0
   16.0732   -9.2234   13.0800 S   0  0  0  0  0  0  0  0  0  0  0  0
   17.1934  -10.3931   12.2508 C   0  0  0  0  0  0  0  0  0  0  0  0
   20.1462   -6.9151    6.1313 C   0  0  0  0  0  0  0  0  0  0  0  0
   19.4662   -7.6647    7.2236 C   0  0  0  0  0  0  0  0  0  0  0  0
   19.9731   -7.6608    8.8379 S   0  0  0  0  0  0  0  0  0  0  0  0
   18.7459   -8.6798    9.3557 C   0  0  0  0  0  0  0  0  0  0  0  0
   18.5320   -9.1153   10.6193 N   0  0  0  0  0  0  0  0  0  0  0  0
   17.4741   -9.9397   10.8605 C   0  0  0  0  0  0  0  0  0  0  0  0
   16.6418  -10.3104    9.8413 N   0  0  0  0  0  0  0  0  0  0  0  0
   16.8442   -9.8809    8.5634 C   0  0  0  0  0  0  0  0  0  0  0  0
   15.9771  -10.2826    7.5549 O   0  0  0  0  0  0  0  0  0  0  0  0
   17.9280   -9.0364    8.3012 C   0  0  0  0  0  0  0  0  0  0  0  0
   18.3289   -8.4650    7.0818 C   0  0  0  0  0  0  0  0  0  0  0  0
   17.6322   -8.6743    5.7782 C   0  0  0  0  0  0  0  0  0  0  0  0
   15.2575  -10.8489    7.7537 H   0  0  0  0  0  0  0  0  0  0  0  0
 20 21  1  0  0  0
 21 22  1  0  0  0
 22 23  1  0  0  0
 23 24  2  0  0  0
 24 25  1  0  0  0
 25 19  1  0  0  0
 25 26  2  0  0  0
 19 18  1  0  0  0
  1 18  1  0  0  0
  1  2  1  0  0  0
  1  3  1  0  0  0
  3  4  2  0  0  0
  3  5  1  0  0  0
  5  7  1  0  0  0
  7  8  2  0  0  0
  8  9  1  0  0  0
  9 10  2  0  0  0
 10 13  1  0  0  0
 10 11  1  0  0  0
 13 14  1  0  0  0
 13 15  2  0  0  0
 11 12  2  0  0  0
 12  7  1  0  0  0
 26 27  1  0  0  0
 27 28  1  0  0  0
 27 29  2  0  0  0
 29 30  1  0  0  0
 29 23  1  0  0  0
 30 31  1  0  0  0
 30 21  2  0  0  0
  5  6  1  0  0  0
 14 16  1  0  0  0
 14 17  1  0  0  0
 28 32  1  0  0  0
M  END
>  <minimizedAffinity>
-5.09256

>  <minimizedRMSD>
4.04199

$$$$
CHEMBL3752903


 38 42  0  0  0  0  0  0  0  0999 V2000
   13.4037   -7.2977   18.0494 C   0  0  0  0  0  0  0  0  0  0  0  0
   12.0052   -7.2601   17.4429 C   0  0  0  0  0  0  0  0  0  0  0  0
   13.3719   -8.2346   19.2760 C   0  0  0  0  0  0  0  0  0  0  0  0
   14.7646   -8.4843   19.8386 C   0  0  0  0  0  0  0  0  0  0  0  0
   15.6286   -9.1573   18.7784 C   0  0  0  0  0  0  0  0  0  0  0  0
   15.7728   -8.2944   17.5181 C   0  0  0  0  0  0  0  0  0  0  0  0
   14.3690   -7.8949   16.9923 C   0  0  0  0  0  0  0  0  0  0  0  0
   14.4813   -7.0487   15.7188 C   0  0  0  0  0  0  0  0  0  0  0  0
   15.3687   -7.7057   14.7005 C   0  0  0  0  0  0  0  0  0  0  0  0
   16.3509   -8.5710   15.0165 C   0  0  0  0  0  0  0  0  0  0  0  0
   16.4645   -9.1419   16.4257 C   0  0  0  0  0  0  0  0  0  0  0  0
   16.6206   -7.0592   17.8428 C   0  0  0  0  0  0  0  0  0  0  0  0
   12.5329   -7.7511   20.2831 O   0  0  0  0  0  0  0  0  0  0  0  0
   12.8764   -6.9056   20.6119 H   0  0  0  0  0  0  0  0  0  0  0  0
   13.8376   -5.8687   18.4269 C   0  0  0  0  0  0  0  0  0  0  0  0
   12.8065   -5.1564   19.0451 O   0  0  0  0  0  0  0  0  0  0  0  0
   12.0565   -5.0781   18.4350 H   0  0  0  0  0  0  0  0  0  0  0  0
   17.8992   -9.5245   16.7926 C   0  0  0  0  0  0  0  0  0  0  0  0
   18.0503  -11.0346   16.7968 C   0  0  0  0  0  0  0  0  0  0  0  0
   18.5349  -11.5002   15.4680 C   0  0  0  0  0  0  0  0  0  0  0  0
   19.3934  -10.8513   14.6950 C   0  0  0  0  0  0  0  0  0  0  0  0
   19.5887  -11.6159   13.4089 C   0  0  0  0  0  0  0  0  0  0  0  0
   18.7280  -12.7439   13.5398 O   0  0  0  0  0  0  0  0  0  0  0  0
   18.0993  -12.6776   14.7637 C   0  0  0  0  0  0  0  0  0  0  0  0
   17.2731  -13.5292   15.1843 O   0  0  0  0  0  0  0  0  0  0  0  0
   17.1329   -9.2172   13.9013 C   0  0  0  0  0  0  0  0  0  0  0  0
   16.2765   -9.6007   12.7837 N   0  0  0  0  0  0  0  0  0  0  0  0
   14.9657   -9.9415   12.8676 C   0  0  0  0  0  0  0  0  0  0  0  0
   14.4184  -10.2191   11.6519 N   0  0  0  0  0  0  0  0  0  0  0  0
   15.4474  -10.0313   10.8076 C   0  0  0  0  0  0  0  0  0  0  0  0
   16.5646   -9.6591   11.4745 C   0  0  0  0  0  0  0  0  0  0  0  0
   17.7438   -9.4123   10.7760 C   0  0  0  0  0  0  0  0  0  0  0  0
   17.7187   -9.5597    9.4189 N   0  0  0  0  0  0  0  0  0  0  0  0
   16.5740   -9.9369    8.7642 C   0  0  0  0  0  0  0  0  0  0  0  0
   15.4223  -10.1767    9.4610 N   0  0  0  0  0  0  0  0  0  0  0  0
   18.9438   -9.0255   11.4336 N   0  0  0  0  0  0  0  0  0  0  0  0
   18.9569   -8.9205   12.4124 H   0  0  0  0  0  0  0  0  0  0  0  0
   19.7615   -8.8627   10.9101 H   0  0  0  0  0  0  0  0  0  0  0  0
 15  1  1  0  0  0
  1  2  1  0  0  0
  1  3  1  0  0  0
  3  4  1  0  0  0
  4  5  1  0  0  0
  5  6  1  0  0  0
  6  7  1  0  0  0
  7  8  1  0  0  0
  8  9  1  0  0  0
  9 10  2  0  0  0
 10 11  1  0  0  0
 11 18  1  0  0  0
 18 19  1  0  0  0
 19 20  1  0  0  0
 20 21  2  0  0  0
 21 22  1  0  0  0
 22 23  1  0  0  0
 23 24  1  0  0  0
 24 25  2  0  0  0
 10 26  1  0  0  0
 26 27  1  0  0  0
 27 28  1  0  0  0
 28 29  2  0  0  0
 29 30  1  0  0  0
 30 31  2  0  0  0
 31 32  1  0  0  0
 32 33  2  0  0  0
 33 34  1  0  0  0
 34 35  2  0  0  0
 32 36  1  0  0  0
  6 12  1  0  0  0
  3 13  1  0  0  0
 15 16  1  0  0  0
  7  1  1  0  0  0
 24 20  1  0  0  0
 31 27  1  0  0  0
 11  6  1  0  0  0
 35 30  1  0  0  0
 36 37  1  0  0  0
 36 38  1  0  0  0
 13 14  1  0  0  0
 16 17  1  0  0  0
M  END
>  <minimizedAffinity>
2.99662

>  <minimizedRMSD>
4.04924

$$$$
CHEMBL1383140 PubChem-9550403


 36 40  0  0  0  0  0  0  0  0999 V2000
   16.3165   -9.3820   13.1256 C   0  0  0  0  0  0  0  0  0  0  0  0
   17.3209   -9.0223   12.2796 N   0  0  0  0  0  0  0  0  0  0  0  0
   16.7428   -9.2319   11.0822 C   0  0  0  0  0  0  0  0  0  0  0  0
   17.3070   -9.0332    9.8252 C   0  0  0  0  0  0  0  0  0  0  0  0
   18.6123   -8.5648    9.6444 C   0  0  0  0  0  0  0  0  0  0  0  0
   19.1093   -8.3901    8.3489 C   0  0  0  0  0  0  0  0  0  0  0  0
   18.3065   -8.6822    7.2396 C   0  0  0  0  0  0  0  0  0  0  0  0
   16.9999   -9.1513    7.4164 C   0  0  0  0  0  0  0  0  0  0  0  0
   16.4907   -9.3303    8.7053 C   0  0  0  0  0  0  0  0  0  0  0  0
   15.2150   -9.7892    8.8846 N   0  0  0  0  0  0  0  0  0  0  0  0
   14.7048   -9.9699   10.1365 C   0  0  0  0  0  0  0  0  0  0  0  0
   15.4918   -9.6812   11.2038 N   0  0  0  0  0  0  0  0  0  0  0  0
   15.1950   -9.7862   12.4836 N   0  0  0  0  0  0  0  0  0  0  0  0
   16.4162   -9.3450   14.6177 C   0  0  0  0  0  0  0  0  0  0  0  0
   17.8305   -9.6201   15.1043 C   0  0  0  0  0  0  0  0  0  0  0  0
   17.4264  -11.5666   17.5838 C   0  0  0  0  0  0  0  0  0  0  0  0
   17.8814  -11.9448   16.2179 C   0  0  0  0  0  0  0  0  0  0  0  0
   18.1589  -13.2075   15.8401 N   0  0  0  0  0  0  0  0  0  0  0  0
   18.5167  -13.1915   14.5630 N   0  0  0  0  0  0  0  0  0  0  0  0
   18.4676  -11.9186   14.1255 C   0  0  0  0  0  0  0  0  0  0  0  0
   18.7858  -11.5058   12.7313 C   0  0  0  0  0  0  0  0  0  0  0  0
   18.0742  -11.0915   15.1542 C   0  0  0  0  0  0  0  0  0  0  0  0
   18.7741  -13.9758   14.0266 H   0  0  0  0  0  0  0  0  0  0  0  0
   13.0329  -10.5727   10.3503 S   0  0  0  0  0  0  0  0  0  0  0  0
   13.0005  -11.2878    8.6803 C   0  0  0  0  0  0  0  0  0  0  0  0
   11.5969  -11.4098    8.2023 C   0  0  0  0  0  0  0  0  0  0  0  0
   10.7039  -10.6874    8.7189 O   0  0  0  0  0  0  0  0  0  0  0  0
   11.2718  -12.3718    7.1924 N   0  0  0  0  0  0  0  0  0  0  0  0
   11.9528  -13.0516    6.9842 H   0  0  0  0  0  0  0  0  0  0  0  0
   10.0423  -12.4322    6.4581 C   0  0  0  0  0  0  0  0  0  0  0  0
    9.4923  -11.2364    5.9826 C   0  0  0  0  0  0  0  0  0  0  0  0
    8.2855  -11.2407    5.2782 C   0  0  0  0  0  0  0  0  0  0  0  0
    7.6106  -12.4430    5.0572 C   0  0  0  0  0  0  0  0  0  0  0  0
    8.1362  -13.6391    5.5513 C   0  0  0  0  0  0  0  0  0  0  0  0
    9.3445  -13.6408    6.2556 C   0  0  0  0  0  0  0  0  0  0  0  0
    9.7881  -14.8073    6.7844 F   0  0  0  0  0  0  0  0  0  0  0  0
 16 17  1  0  0  0
 17 18  2  0  0  0
 18 19  1  0  0  0
 19 20  1  0  0  0
 20 21  1  0  0  0
 20 22  2  0  0  0
 22 15  1  0  0  0
 22 17  1  0  0  0
 15 14  1  0  0  0
 14  1  1  0  0  0
  1  2  1  0  0  0
  2  3  2  0  0  0
  3  4  1  0  0  0
  4  5  2  0  0  0
  5  6  1  0  0  0
  6  7  2  0  0  0
  7  8  1  0  0  0
  8  9  2  0  0  0
  9 10  1  0  0  0
  9  4  1  0  0  0
 10 11  2  0  0  0
 11 24  1  0  0  0
 11 12  1  0  0  0
 24 25  1  0  0  0
 25 26  1  0  0  0
 26 27  2  0  0  0
 26 28  1  0  0  0
 28 30  1  0  0  0
 30 31  2  0  0  0
 31 32  1  0  0  0
 32 33  2  0  0  0
 33 34  1  0  0  0
 34 35  2  0  0  0
 35 36  1  0  0  0
 35 30  1  0  0  0
 12 13  1  0  0  0
 12  3  1  0  0  0
 13  1  2  0  0  0
 19 23  1  0  0  0
 28 29  1  0  0  0
M  END
>  <minimizedAffinity>
8.06722

>  <minimizedRMSD>
4.05806

$$$$
CHEMBL527885 PubChem-44579268


 34 39  0  0  0  0  0  0  0  0999 V2000
   20.4033   -7.8583    8.4868 N   0  0  0  0  0  0  0  0  0  0  0  0
   21.2430   -7.1693    7.6507 C   0  0  0  0  0  0  0  0  0  0  0  0
   20.9314   -7.0118    6.3308 N   0  0  0  0  0  0  0  0  0  0  0  0
   19.7671   -7.5410    5.8837 C   0  0  0  0  0  0  0  0  0  0  0  0
   18.9288   -8.2448    6.6869 C   0  0  0  0  0  0  0  0  0  0  0  0
   19.2333   -8.4129    8.0416 C   0  0  0  0  0  0  0  0  0  0  0  0
   17.9179   -8.7105    5.8631 C   0  0  0  0  0  0  0  0  0  0  0  0
   18.1861   -8.2689    4.6059 N   0  0  0  0  0  0  0  0  0  0  0  0
   19.3028   -7.5487    4.6249 N   0  0  0  0  0  0  0  0  0  0  0  0
   19.9161   -6.9920    3.4524 C   0  0  0  0  0  0  0  0  0  0  0  0
   20.1659   -7.8302    2.3567 C   0  0  0  0  0  0  0  0  0  0  0  0
   20.7613   -7.3273    1.1978 C   0  0  0  0  0  0  0  0  0  0  0  0
   21.1059   -5.9770    1.1202 C   0  0  0  0  0  0  0  0  0  0  0  0
   20.8388   -5.1257    2.1947 C   0  0  0  0  0  0  0  0  0  0  0  0
   20.2445   -5.6210    3.3598 C   0  0  0  0  0  0  0  0  0  0  0  0
   19.9105   -4.6548    4.4444 C   0  0  0  0  0  0  0  0  0  0  0  0
   21.7399   -5.4413   -0.1122 C   0  0  0  0  0  0  0  0  0  0  0  0
   18.3941   -9.1550    8.9468 N   0  0  0  0  0  0  0  0  0  0  0  0
   18.8695  -10.3504    9.6417 C   0  0  0  0  0  0  0  0  0  0  0  0
   18.4638  -10.2903   11.1104 C   0  0  0  0  0  0  0  0  0  0  0  0
   16.9573  -10.0545   11.2297 C   0  0  0  0  0  0  0  0  0  0  0  0
   16.5483   -8.7726   10.5025 C   0  0  0  0  0  0  0  0  0  0  0  0
   16.9691   -8.8436    9.0381 C   0  0  0  0  0  0  0  0  0  0  0  0
   16.5565   -9.9981   12.6338 N   0  0  0  0  0  0  0  0  0  0  0  0
   15.2929  -10.0217   13.1221 C   0  0  0  0  0  0  0  0  0  0  0  0
   14.2719  -10.0982   12.3885 O   0  0  0  0  0  0  0  0  0  0  0  0
   15.2190   -9.9555   14.4765 N   0  0  0  0  0  0  0  0  0  0  0  0
   16.5157   -9.8876   14.8352 C   0  0  0  0  0  0  0  0  0  0  0  0
   17.3242   -9.9127   13.7331 C   0  0  0  0  0  0  0  0  0  0  0  0
   18.7145   -9.8547   13.8295 C   0  0  0  0  0  0  0  0  0  0  0  0
   19.2678   -9.7679   15.1201 C   0  0  0  0  0  0  0  0  0  0  0  0
   18.4331   -9.7418   16.2599 C   0  0  0  0  0  0  0  0  0  0  0  0
   17.0333   -9.8022   16.1251 C   0  0  0  0  0  0  0  0  0  0  0  0
   14.4196   -9.9568   15.0511 H   0  0  0  0  0  0  0  0  0  0  0  0
  1  2  2  0  0  0
  2  3  1  0  0  0
  3  4  2  0  0  0
  4  5  1  0  0  0
  5  6  2  0  0  0
  6 18  1  0  0  0
 18 19  1  0  0  0
 19 20  1  0  0  0
 20 21  1  0  0  0
 21 22  1  0  0  0
 22 23  1  0  0  0
 21 24  1  0  0  0
 24 25  1  0  0  0
 25 26  2  0  0  0
 25 27  1  0  0  0
 27 28  1  0  0  0
 28 29  2  0  0  0
 29 30  1  0  0  0
 30 31  2  0  0  0
 31 32  1  0  0  0
 32 33  2  0  0  0
  5  7  1  0  0  0
  7  8  2  0  0  0
  8  9  1  0  0  0
  9 10  1  0  0  0
 10 11  2  0  0  0
 11 12  1  0  0  0
 12 13  2  0  0  0
 13 14  1  0  0  0
 14 15  2  0  0  0
 15 16  1  0  0  0
 13 17  1  0  0  0
  6  1  1  0  0  0
 23 18  1  0  0  0
 29 24  1  0  0  0
 15 10  1  0  0  0
  9  4  1  0  0  0
 33 28  1  0  0  0
 27 34  1  0  0  0
M  END
>  <minimizedAffinity>
0.73264

>  <minimizedRMSD>
4.05821

$$$$
CHEMBL527885 PubChem-44579268


 34 39  0  0  0  0  0  0  0  0999 V2000
   20.4046   -7.8574    8.4858 N   0  0  0  0  0  0  0  0  0  0  0  0
   21.2435   -7.1673    7.6499 C   0  0  0  0  0  0  0  0  0  0  0  0
   20.9321   -7.0103    6.3299 N   0  0  0  0  0  0  0  0  0  0  0  0
   19.7688   -7.5412    5.8824 C   0  0  0  0  0  0  0  0  0  0  0  0
   18.9311   -8.2462    6.6854 C   0  0  0  0  0  0  0  0  0  0  0  0
   19.2355   -8.4138    8.0403 C   0  0  0  0  0  0  0  0  0  0  0  0
   17.9212   -8.7134    5.8614 C   0  0  0  0  0  0  0  0  0  0  0  0
   18.1893   -8.2715    4.6042 N   0  0  0  0  0  0  0  0  0  0  0  0
   19.3048   -7.5496    4.6235 N   0  0  0  0  0  0  0  0  0  0  0  0
   19.9177   -6.9922    3.4512 C   0  0  0  0  0  0  0  0  0  0  0  0
   20.1681   -7.8299    2.3552 C   0  0  0  0  0  0  0  0  0  0  0  0
   20.7629   -7.3260    1.1964 C   0  0  0  0  0  0  0  0  0  0  0  0
   21.1064   -5.9754    1.1192 C   0  0  0  0  0  0  0  0  0  0  0  0
   20.8388   -5.1247    2.1939 C   0  0  0  0  0  0  0  0  0  0  0  0
   20.2449   -5.6208    3.3590 C   0  0  0  0  0  0  0  0  0  0  0  0
   19.9103   -4.6552    4.4439 C   0  0  0  0  0  0  0  0  0  0  0  0
   21.7400   -5.4389   -0.1131 C   0  0  0  0  0  0  0  0  0  0  0  0
   18.3971   -9.1570    8.9452 N   0  0  0  0  0  0  0  0  0  0  0  0
   16.9716   -8.8478    9.0358 C   0  0  0  0  0  0  0  0  0  0  0  0
   16.5500   -8.7770   10.4999 C   0  0  0  0  0  0  0  0  0  0  0  0
   16.9605  -10.0581   11.2277 C   0  0  0  0  0  0  0  0  0  0  0  0
   18.4674  -10.2916   11.1091 C   0  0  0  0  0  0  0  0  0  0  0  0
   18.8739  -10.3514    9.6406 C   0  0  0  0  0  0  0  0  0  0  0  0
   16.5591  -10.0018   12.6316 N   0  0  0  0  0  0  0  0  0  0  0  0
   15.2953  -10.0275   13.1192 C   0  0  0  0  0  0  0  0  0  0  0  0
   14.2747  -10.1063   12.3853 O   0  0  0  0  0  0  0  0  0  0  0  0
   15.2206   -9.9610   14.4736 N   0  0  0  0  0  0  0  0  0  0  0  0
   16.5171   -9.8904   14.8329 C   0  0  0  0  0  0  0  0  0  0  0  0
   17.3261   -9.9145   13.7311 C   0  0  0  0  0  0  0  0  0  0  0  0
   18.7162   -9.8539   13.8283 C   0  0  0  0  0  0  0  0  0  0  0  0
   19.2688   -9.7656   15.1191 C   0  0  0  0  0  0  0  0  0  0  0  0
   18.4335   -9.7407   16.2585 C   0  0  0  0  0  0  0  0  0  0  0  0
   17.0339   -9.8036   16.1230 C   0  0  0  0  0  0  0  0  0  0  0  0
   14.4209   -9.9636   15.0479 H   0  0  0  0  0  0  0  0  0  0  0  0
  1  2  2  0  0  0
  2  3  1  0  0  0
  3  4  2  0  0  0
  4  5  1  0  0  0
  5  6  2  0  0  0
  6 18  1  0  0  0
 18 19  1  0  0  0
 19 20  1  0  0  0
 20 21  1  0  0  0
 21 22  1  0  0  0
 22 23  1  0  0  0
 21 24  1  0  0  0
 24 25  1  0  0  0
 25 26  2  0  0  0
 25 27  1  0  0  0
 27 28  1  0  0  0
 28 29  2  0  0  0
 29 30  1  0  0  0
 30 31  2  0  0  0
 31 32  1  0  0  0
 32 33  2  0  0  0
  5  7  1  0  0  0
  7  8  2  0  0  0
  8  9  1  0  0  0
  9 10  1  0  0  0
 10 11  2  0  0  0
 11 12  1  0  0  0
 12 13  2  0  0  0
 13 14  1  0  0  0
 14 15  2  0  0  0
 15 16  1  0  0  0
 13 17  1  0  0  0
  6  1  1  0  0  0
 23 18  1  0  0  0
 29 24  1  0  0  0
 15 10  1  0  0  0
  9  4  1  0  0  0
 33 28  1  0  0  0
 27 34  1  0  0  0
M  END
>  <minimizedAffinity>
0.72523

>  <minimizedRMSD>
4.06005

$$$$
CHEMBL4475237 PubChem-157291937 PubChem-58138789


 33 36  0  0  0  0  0  0  0  0999 V2000
   17.2459   -9.2067    9.6033 N   0  0  0  0  0  0  0  0  0  0  0  0
   17.3809   -9.3380    8.1846 C   0  0  0  0  0  0  0  0  0  0  0  0
   16.5990  -10.0975    7.5495 O   0  0  0  0  0  0  0  0  0  0  0  0
   17.8266   -8.5656   10.0735 H   0  0  0  0  0  0  0  0  0  0  0  0
   18.4250   -8.5871    7.4541 C   0  0  0  0  0  0  0  0  0  0  0  0
   18.4265   -8.4329    6.0584 C   0  0  0  0  0  0  0  0  0  0  0  0
   17.5602   -8.8811    5.0774 C   0  0  0  0  0  0  0  0  0  0  0  0
   18.0344   -8.4425    3.8854 N   0  0  0  0  0  0  0  0  0  0  0  0
   19.1494   -7.7459    4.0810 N   0  0  0  0  0  0  0  0  0  0  0  0
   19.4036   -7.7297    5.4049 C   0  0  0  0  0  0  0  0  0  0  0  0
   20.4574   -7.1239    6.0907 C   0  0  0  0  0  0  0  0  0  0  0  0
   20.4889   -7.2565    7.4883 C   0  0  0  0  0  0  0  0  0  0  0  0
   19.4834   -7.9799    8.1624 C   0  0  0  0  0  0  0  0  0  0  0  0
   19.9012   -7.1411    3.0107 C   0  0  0  0  0  0  0  0  0  0  0  0
   20.9980   -7.8211    2.4580 C   0  0  0  0  0  0  0  0  0  0  0  0
   21.7393   -7.2505    1.4195 C   0  0  0  0  0  0  0  0  0  0  0  0
   21.3911   -5.9925    0.9223 C   0  0  0  0  0  0  0  0  0  0  0  0
   20.3021   -5.3054    1.4635 C   0  0  0  0  0  0  0  0  0  0  0  0
   19.5616   -5.8770    2.5020 C   0  0  0  0  0  0  0  0  0  0  0  0
   22.1091   -5.4392   -0.0840 F   0  0  0  0  0  0  0  0  0  0  0  0
   16.2880   -9.9788   10.3828 C   0  0  0  0  0  0  0  0  0  0  0  0
   17.3434   -9.8486   14.5400 C   0  0  0  0  0  0  0  0  0  0  0  0
   18.3045  -10.1887   13.5819 C   0  0  0  0  0  0  0  0  0  0  0  0
   17.9592  -10.2358   12.2282 C   0  0  0  0  0  0  0  0  0  0  0  0
   16.6504   -9.9460   11.8288 C   0  0  0  0  0  0  0  0  0  0  0  0
   15.6886   -9.6040   12.7859 C   0  0  0  0  0  0  0  0  0  0  0  0
   16.0344   -9.5572   14.1396 C   0  0  0  0  0  0  0  0  0  0  0  0
   17.7840   -9.7986   16.2391 S   0  0  0  0  0  0  0  0  0  0  0  0
   18.9196   -8.8344   16.4460 O   0  0  0  0  0  0  0  0  0  0  0  0
   18.2272  -11.1672   16.6729 O   0  0  0  0  0  0  0  0  0  0  0  0
   15.8682   -8.1079   16.5872 C   0  0  0  0  0  0  0  0  0  0  0  0
   16.4245   -9.3062   17.1924 N   0  0  0  0  0  0  0  0  0  0  0  0
   15.7230  -10.0465   17.2046 H   0  0  0  0  0  0  0  0  0  0  0  0
 31 32  1  0  0  0
 32 28  1  0  0  0
 28 29  2  0  0  0
 28 30  2  0  0  0
 28 22  1  0  0  0
 22 23  2  0  0  0
 23 24  1  0  0  0
 24 25  2  0  0  0
 25 26  1  0  0  0
 25 21  1  0  0  0
 26 27  2  0  0  0
 27 22  1  0  0  0
 21  1  1  0  0  0
  1  2  1  0  0  0
  2  3  2  0  0  0
  2  5  1  0  0  0
  5  6  2  0  0  0
  6  7  1  0  0  0
  7  8  2  0  0  0
  8  9  1  0  0  0
  9 10  1  0  0  0
  9 14  1  0  0  0
 10 11  2  0  0  0
 10  6  1  0  0  0
 11 12  1  0  0  0
 12 13  2  0  0  0
 13  5  1  0  0  0
 14 15  2  0  0  0
 15 16  1  0  0  0
 16 17  2  0  0  0
 17 18  1  0  0  0
 17 20  1  0  0  0
 18 19  2  0  0  0
 19 14  1  0  0  0
 32 33  1  0  0  0
  1  4  1  0  0  0
M  END
>  <minimizedAffinity>
-6.89847

>  <minimizedRMSD>
4.06644

$$$$
CHEMBL3674499 PubChem-71699886


 33 36  0  0  0  0  0  0  0  0999 V2000
   17.4812   -7.0908   11.2531 C   0  0  0  0  0  0  0  0  0  0  0  0
   17.5836   -8.0574   10.2940 N   0  0  0  0  0  0  0  0  0  0  0  0
   18.0175   -7.7251    9.0805 N   0  0  0  0  0  0  0  0  0  0  0  0
   18.3628   -6.4867    8.7235 C   0  0  0  0  0  0  0  0  0  0  0  0
   18.7477   -6.4021    7.4349 N   0  0  0  0  0  0  0  0  0  0  0  0
   18.6285   -7.6743    6.9672 C   0  0  0  0  0  0  0  0  0  0  0  0
   18.1763   -8.4935    7.9979 C   0  0  0  0  0  0  0  0  0  0  0  0
   18.2914   -5.4446    9.6384 C   0  0  0  0  0  0  0  0  0  0  0  0
   17.8410   -5.7622   10.9291 C   0  0  0  0  0  0  0  0  0  0  0  0
   15.9999   -6.5332   13.2615 C   0  0  0  0  0  0  0  0  0  0  0  0
   16.9959   -7.4367   12.6030 C   0  0  0  0  0  0  0  0  0  0  0  0
   17.4969   -8.4726   13.2176 N   0  0  0  0  0  0  0  0  0  0  0  0
   17.1148   -8.9427   14.4914 N   0  0  0  0  0  0  0  0  0  0  0  0
   17.8584   -8.5754   15.6918 C   0  0  0  0  0  0  0  0  0  0  0  0
   15.8410   -9.5835   14.6344 C   0  0  0  0  0  0  0  0  0  0  0  0
   15.1288   -9.8075   13.6200 O   0  0  0  0  0  0  0  0  0  0  0  0
   15.3692   -9.9824   15.9188 N   0  0  0  0  0  0  0  0  0  0  0  0
   15.9170   -9.8127   16.7190 H   0  0  0  0  0  0  0  0  0  0  0  0
   14.4955  -10.4277   16.0058 H   0  0  0  0  0  0  0  0  0  0  0  0
   17.8711   -9.9618    7.9324 C   0  0  0  0  0  0  0  0  0  0  0  0
   16.7658  -10.2150    7.1160 O   0  0  0  0  0  0  0  0  0  0  0  0
   15.9810   -9.7867    7.4924 H   0  0  0  0  0  0  0  0  0  0  0  0
   17.6622  -10.5398    9.2993 C   0  0  0  0  0  0  0  0  0  0  0  0
   16.3763  -10.8266    9.7994 C   0  0  0  0  0  0  0  0  0  0  0  0
   16.2241  -11.3384   11.0922 C   0  0  0  0  0  0  0  0  0  0  0  0
   17.3458  -11.5660   11.8924 C   0  0  0  0  0  0  0  0  0  0  0  0
   18.6336  -11.2791   11.3930 C   0  0  0  0  0  0  0  0  0  0  0  0
   18.7852  -10.7688   10.1027 C   0  0  0  0  0  0  0  0  0  0  0  0
   19.7456  -11.5074   12.2036 C   0  0  0  0  0  0  0  0  0  0  0  0
   19.5692  -12.0159   13.4922 C   0  0  0  0  0  0  0  0  0  0  0  0
   18.2774  -12.2888   13.9522 C   0  0  0  0  0  0  0  0  0  0  0  0
   17.2013  -12.0605   13.1509 N   0  0  0  0  0  0  0  0  0  0  0  0
   15.2729  -10.6072    9.0417 F   0  0  0  0  0  0  0  0  0  0  0  0
 10 11  1  0  0  0
 11 12  2  0  0  0
 11  1  1  0  0  0
 12 13  1  0  0  0
 13 14  1  0  0  0
 13 15  1  0  0  0
 15 16  2  0  0  0
 15 17  1  0  0  0
  1  2  2  0  0  0
  2  3  1  0  0  0
  3  4  1  0  0  0
  4  5  2  0  0  0
  4  8  1  0  0  0
  5  6  1  0  0  0
  6  7  2  0  0  0
  7  3  1  0  0  0
 20  7  1  0  0  0
 20 23  1  0  0  0
 20 21  1  0  0  0
 23 24  2  0  0  0
 24 25  1  0  0  0
 24 33  1  0  0  0
 25 26  2  0  0  0
 26 27  1  0  0  0
 27 28  2  0  0  0
 27 29  1  0  0  0
 28 23  1  0  0  0
 29 30  2  0  0  0
 30 31  1  0  0  0
 31 32  2  0  0  0
 32 26  1  0  0  0
  8  9  2  0  0  0
  9  1  1  0  0  0
 17 18  1  0  0  0
 17 19  1  0  0  0
 21 22  1  0  0  0
M  END
>  <minimizedAffinity>
22.27591

>  <minimizedRMSD>
4.08410

$$$$
CHEMBL5180295


 33 36  0  0  0  0  0  0  0  0999 V2000
   18.1303   -9.0606   10.4183 C   0  0  0  0  0  0  0  0  0  0  0  0
   17.9745   -8.9603    9.0215 C   0  0  0  0  0  0  0  0  0  0  0  0
   19.0200   -8.4604    8.2056 C   0  0  0  0  0  0  0  0  0  0  0  0
   20.2007   -8.0739    8.7797 N   0  0  0  0  0  0  0  0  0  0  0  0
   20.3536   -8.1839   10.1206 C   0  0  0  0  0  0  0  0  0  0  0  0
   19.3710   -8.6602   10.9415 C   0  0  0  0  0  0  0  0  0  0  0  0
   19.9726   -8.6575   12.1915 C   0  0  0  0  0  0  0  0  0  0  0  0
   21.2337   -8.1788   12.0691 N   0  0  0  0  0  0  0  0  0  0  0  0
   21.4282   -7.8995   10.8089 O   0  0  0  0  0  0  0  0  0  0  0  0
   19.4290   -9.1826   13.4730 C   0  0  0  0  0  0  0  0  0  0  0  0
   18.8441   -8.3524    6.7415 C   0  0  0  0  0  0  0  0  0  0  0  0
   19.8114   -7.6991    5.9619 C   0  0  0  0  0  0  0  0  0  0  0  0
   19.6532   -7.5923    4.5772 C   0  0  0  0  0  0  0  0  0  0  0  0
   18.5259   -8.1381    3.9584 C   0  0  0  0  0  0  0  0  0  0  0  0
   17.5565   -8.7907    4.7239 C   0  0  0  0  0  0  0  0  0  0  0  0
   17.7146   -8.8975    6.1087 C   0  0  0  0  0  0  0  0  0  0  0  0
   18.3579   -8.0246    2.4864 C   0  0  0  0  0  0  0  0  0  0  0  0
   16.9971   -9.5333   11.2335 C   0  0  0  0  0  0  0  0  0  0  0  0
   16.0942  -10.2273   10.6919 O   0  0  0  0  0  0  0  0  0  0  0  0
   16.8806   -9.1404   12.6054 N   0  0  0  0  0  0  0  0  0  0  0  0
   17.5828   -8.5549   12.9706 H   0  0  0  0  0  0  0  0  0  0  0  0
   15.8240   -9.5316   13.4874 C   0  0  0  0  0  0  0  0  0  0  0  0
   14.6872  -10.1433   13.0877 N   0  0  0  0  0  0  0  0  0  0  0  0
   14.0165  -10.3058   14.2471 C   0  0  0  0  0  0  0  0  0  0  0  0
   14.7365   -9.8174   15.2714 N   0  0  0  0  0  0  0  0  0  0  0  0
   15.8699   -9.3211   14.8138 N   0  0  0  0  0  0  0  0  0  0  0  0
   14.3238   -9.7754   16.6640 C   0  0  0  0  0  0  0  0  0  0  0  0
   14.3730   -8.3748   17.1681 C   0  0  0  0  0  0  0  0  0  0  0  0
   15.2572   -7.5875   16.7369 O   0  0  0  0  0  0  0  0  0  0  0  0
   13.3952   -7.9278   18.1098 N   0  0  0  0  0  0  0  0  0  0  0  0
   12.7290   -8.5726   18.4407 H   0  0  0  0  0  0  0  0  0  0  0  0
   13.3443   -6.5584   18.5993 C   0  0  0  0  0  0  0  0  0  0  0  0
   13.1528   -6.5505   20.1040 C   0  0  0  0  0  0  0  0  0  0  0  0
  1  2  2  0  0  0
  2  3  1  0  0  0
  3  4  2  0  0  0
  4  5  1  0  0  0
  5  6  2  0  0  0
  6  7  1  0  0  0
  7  8  2  0  0  0
  8  9  1  0  0  0
  7 10  1  0  0  0
  3 11  1  0  0  0
 11 12  2  0  0  0
 12 13  1  0  0  0
 13 14  2  0  0  0
 14 15  1  0  0  0
 15 16  2  0  0  0
 14 17  1  0  0  0
  1 18  1  0  0  0
 18 19  2  0  0  0
 18 20  1  0  0  0
 20 22  1  0  0  0
 22 23  1  0  0  0
 23 24  2  0  0  0
 24 25  1  0  0  0
 25 26  1  0  0  0
 25 27  1  0  0  0
 27 28  1  0  0  0
 28 29  2  0  0  0
 28 30  1  0  0  0
 30 32  1  0  0  0
 32 33  1  0  0  0
  6  1  1  0  0  0
 16 11  1  0  0  0
 26 22  2  0  0  0
  9  5  1  0  0  0
 20 21  1  0  0  0
 30 31  1  0  0  0
M  END
>  <minimizedAffinity>
11.12461

>  <minimizedRMSD>
4.10548

$$$$
CHEMBL46751 PubChem-44291366


 38 41  0  0  0  0  0  0  0  0999 V2000
   19.1277  -10.5758   14.1108 C   0  0  0  0  0  0  0  0  0  0  0  0
   19.3101   -9.3072   13.5531 C   0  0  0  0  0  0  0  0  0  0  0  0
   19.1450   -9.1169   12.1787 C   0  0  0  0  0  0  0  0  0  0  0  0
   18.7997  -10.1948   11.3491 C   0  0  0  0  0  0  0  0  0  0  0  0
   18.6289  -11.4643   11.9123 C   0  0  0  0  0  0  0  0  0  0  0  0
   18.7930  -11.6568   13.2869 C   0  0  0  0  0  0  0  0  0  0  0  0
   18.6146  -10.0377    9.9357 N   0  0  0  0  0  0  0  0  0  0  0  0
   18.3235   -8.8196    9.2314 C   0  0  0  0  0  0  0  0  0  0  0  0
   18.2129   -7.7358    9.8649 O   0  0  0  0  0  0  0  0  0  0  0  0
   18.6959  -10.8523    9.3889 H   0  0  0  0  0  0  0  0  0  0  0  0
   18.1539   -8.8565    7.7541 C   0  0  0  0  0  0  0  0  0  0  0  0
   19.0689   -8.2760    6.8382 C   0  0  0  0  0  0  0  0  0  0  0  0
   18.8028   -8.3725    5.4484 C   0  0  0  0  0  0  0  0  0  0  0  0
   17.6886   -9.0112    5.0077 N   0  0  0  0  0  0  0  0  0  0  0  0
   16.8028   -9.5731    5.8683 C   0  0  0  0  0  0  0  0  0  0  0  0
   17.0208   -9.5045    7.2431 C   0  0  0  0  0  0  0  0  0  0  0  0
   19.6857   -7.8106    4.5214 C   0  0  0  0  0  0  0  0  0  0  0  0
   20.8365   -7.1511    4.9573 C   0  0  0  0  0  0  0  0  0  0  0  0
   21.1096   -7.0504    6.3226 C   0  0  0  0  0  0  0  0  0  0  0  0
   20.2321   -7.6087    7.2555 C   0  0  0  0  0  0  0  0  0  0  0  0
   19.2896  -10.7658   15.5819 C   0  0  0  0  0  0  0  0  0  0  0  0
   18.3504   -9.8588   16.3724 C   0  0  0  0  0  0  0  0  0  0  0  0
   16.4324   -9.8044   14.7152 C   0  0  0  0  0  0  0  0  0  0  0  0
   16.1916  -11.0237   14.9301 O   0  0  0  0  0  0  0  0  0  0  0  0
   17.4563   -9.1468   15.4682 N   0  0  0  0  0  0  0  0  0  0  0  0
   17.5611   -8.1727   15.3714 H   0  0  0  0  0  0  0  0  0  0  0  0
   15.6614   -9.0633   13.6846 C   0  0  0  0  0  0  0  0  0  0  0  0
   15.2558   -7.7271   13.9020 C   0  0  0  0  0  0  0  0  0  0  0  0
   15.5312   -7.0843   15.0641 F   0  0  0  0  0  0  0  0  0  0  0  0
   14.5354   -7.0393   12.9218 C   0  0  0  0  0  0  0  0  0  0  0  0
   14.2113   -7.6618   11.7174 C   0  0  0  0  0  0  0  0  0  0  0  0
   14.6059   -8.9789   11.4876 C   0  0  0  0  0  0  0  0  0  0  0  0
   15.3238   -9.6812   12.4591 C   0  0  0  0  0  0  0  0  0  0  0  0
   15.7026  -10.9545   12.1838 F   0  0  0  0  0  0  0  0  0  0  0  0
   19.1490   -8.8756   17.1574 C   0  0  0  0  0  0  0  0  0  0  0  0
   18.9520   -8.7577   18.3943 O   0  0  0  0  0  0  0  0  0  0  0  0
   20.1063   -8.0853   16.5320 O   0  0  0  0  0  0  0  0  0  0  0  0
   20.2554   -8.1707   15.6109 H   0  0  0  0  0  0  0  0  0  0  0  0
 23 24  2  0  0  0
 23 27  1  0  0  0
 27 28  2  0  0  0
 28 29  1  0  0  0
 28 30  1  0  0  0
 30 31  2  0  0  0
 31 32  1  0  0  0
 32 33  2  0  0  0
 33 34  1  0  0  0
 23 25  1  0  0  0
 25 22  1  0  0  0
 22 35  1  0  0  0
 35 36  2  0  0  0
 35 37  1  0  0  0
 22 21  1  0  0  0
 21  1  1  0  0  0
  1  2  2  0  0  0
  2  3  1  0  0  0
  3  4  2  0  0  0
  4  7  1  0  0  0
  7  8  1  0  0  0
  8  9  2  0  0  0
  8 11  1  0  0  0
 11 12  2  0  0  0
 12 13  1  0  0  0
 13 14  2  0  0  0
 14 15  1  0  0  0
 15 16  2  0  0  0
 13 17  1  0  0  0
 17 18  2  0  0  0
 18 19  1  0  0  0
 19 20  2  0  0  0
  4  5  1  0  0  0
  5  6  2  0  0  0
 33 27  1  0  0  0
  6  1  1  0  0  0
 16 11  1  0  0  0
 20 12  1  0  0  0
 25 26  1  0  0  0
 37 38  1  0  0  0
  7 10  1  0  0  0
M  END
>  <minimizedAffinity>
12.90964

>  <minimizedRMSD>
4.11174

$$$$
CHEMBL1586542 924634 MCULE-7195579996 MolPort-000-014-301 PubChem-1169784 ZINC000000924634 ZINC00924634


 36 40  0  0  0  0  0  0  0  0999 V2000
   17.6487  -10.3975   17.1051 C   0  0  0  0  0  0  0  0  0  0  0  0
   18.2361  -11.5351   17.5199 N   0  0  0  0  0  0  0  0  0  0  0  0
   18.3853  -12.3049   16.4524 N   0  0  0  0  0  0  0  0  0  0  0  0
   17.8716  -11.6316   15.4054 C   0  0  0  0  0  0  0  0  0  0  0  0
   17.4055  -10.4183   15.7761 N   0  0  0  0  0  0  0  0  0  0  0  0
   16.7957   -9.4033   14.9564 C   0  0  0  0  0  0  0  0  0  0  0  0
   15.9525   -9.7605   13.8933 C   0  0  0  0  0  0  0  0  0  0  0  0
   15.3691   -8.7770   13.0895 C   0  0  0  0  0  0  0  0  0  0  0  0
   15.6247   -7.4268   13.3413 C   0  0  0  0  0  0  0  0  0  0  0  0
   16.4631   -7.0604   14.3965 C   0  0  0  0  0  0  0  0  0  0  0  0
   17.0457   -8.0444   15.1997 C   0  0  0  0  0  0  0  0  0  0  0  0
   17.2108   -9.0651   18.2217 S   0  0  0  0  0  0  0  0  0  0  0  0
   15.4355   -9.4015   18.0446 C   0  0  0  0  0  0  0  0  0  0  0  0
   15.2998   -7.0290   18.0973 O   0  0  0  0  0  0  0  0  0  0  0  0
   14.7013   -8.1186   17.8925 C   0  0  0  0  0  0  0  0  0  0  0  0
   13.3134   -8.1367   17.5506 N   0  0  0  0  0  0  0  0  0  0  0  0
   12.8927   -8.9996   17.3322 H   0  0  0  0  0  0  0  0  0  0  0  0
   12.4956   -6.9325   17.5119 C   0  0  0  0  0  0  0  0  0  0  0  0
   12.4799   -6.2727   18.8496 C   0  0  0  0  0  0  0  0  0  0  0  0
   12.4799   -7.0476   20.0154 C   0  0  0  0  0  0  0  0  0  0  0  0
   12.4798   -6.4269   21.2684 C   0  0  0  0  0  0  0  0  0  0  0  0
   12.4808   -5.0309   21.3578 C   0  0  0  0  0  0  0  0  0  0  0  0
   12.4838   -4.2556   20.1940 C   0  0  0  0  0  0  0  0  0  0  0  0
   12.4841   -4.8760   18.9408 C   0  0  0  0  0  0  0  0  0  0  0  0
   17.9562  -12.1320   13.9976 C   0  0  0  0  0  0  0  0  0  0  0  0
   19.0647  -11.4129   13.2407 C   0  0  0  0  0  0  0  0  0  0  0  0
   18.5260  -10.7578   12.0134 C   0  0  0  0  0  0  0  0  0  0  0  0
   17.3385  -11.1102   11.4542 N   0  0  0  0  0  0  0  0  0  0  0  0
   17.2418  -10.2562   10.4265 C   0  0  0  0  0  0  0  0  0  0  0  0
   16.2022  -10.1497    9.5059 C   0  0  0  0  0  0  0  0  0  0  0  0
   16.3145   -9.1551    8.5164 C   0  0  0  0  0  0  0  0  0  0  0  0
   17.4436   -8.3062    8.4769 C   0  0  0  0  0  0  0  0  0  0  0  0
   18.4742   -8.4423    9.4260 C   0  0  0  0  0  0  0  0  0  0  0  0
   18.3302   -9.4390   10.3879 C   0  0  0  0  0  0  0  0  0  0  0  0
   19.1699   -9.7373   11.3891 N   0  0  0  0  0  0  0  0  0  0  0  0
   20.0337   -9.3223   11.6148 H   0  0  0  0  0  0  0  0  0  0  0  0
 14 15  2  0  0  0
 15 13  1  0  0  0
 15 16  1  0  0  0
 13 12  1  0  0  0
 12  1  1  0  0  0
  1  2  2  0  0  0
  2  3  1  0  0  0
  3  4  2  0  0  0
  4 25  1  0  0  0
  4  5  1  0  0  0
 25 26  1  0  0  0
 26 27  1  0  0  0
 27 28  2  0  0  0
 28 29  1  0  0  0
 29 30  2  0  0  0
 30 31  1  0  0  0
 31 32  2  0  0  0
 32 33  1  0  0  0
 33 34  2  0  0  0
 34 35  1  0  0  0
 34 29  1  0  0  0
 35 27  1  0  0  0
  5  6  1  0  0  0
  5  1  1  0  0  0
  6  7  2  0  0  0
  7  8  1  0  0  0
  8  9  2  0  0  0
  9 10  1  0  0  0
 10 11  2  0  0  0
 11  6  1  0  0  0
 16 18  1  0  0  0
 18 19  1  0  0  0
 19 20  2  0  0  0
 20 21  1  0  0  0
 21 22  2  0  0  0
 22 23  1  0  0  0
 23 24  2  0  0  0
 24 19  1  0  0  0
 35 36  1  0  0  0
 16 17  1  0  0  0
M  END
>  <minimizedAffinity>
0.04273

>  <minimizedRMSD>
4.15219

$$$$
CHEMBL3674506 PubChem-71699893


 33 36  0  0  0  0  0  0  0  0999 V2000
   17.2259   -9.6291    9.5467 C   0  0  0  0  0  0  0  0  0  0  0  0
   16.2950   -9.9597    8.5658 C   0  0  0  0  0  0  0  0  0  0  0  0
   15.0937  -10.1946    9.1600 N   0  0  0  0  0  0  0  0  0  0  0  0
   15.3328  -10.0063   10.4728 C   0  0  0  0  0  0  0  0  0  0  0  0
   16.5991   -9.6698   10.7258 N   0  0  0  0  0  0  0  0  0  0  0  0
   17.0827   -9.4477   11.9455 N   0  0  0  0  0  0  0  0  0  0  0  0
   16.2491   -9.5585   13.0219 C   0  0  0  0  0  0  0  0  0  0  0  0
   14.8957   -9.9084   12.8093 C   0  0  0  0  0  0  0  0  0  0  0  0
   14.4195  -10.1401   11.5098 C   0  0  0  0  0  0  0  0  0  0  0  0
   16.7628   -9.3174   14.3833 C   0  0  0  0  0  0  0  0  0  0  0  0
   15.9793   -8.8212   15.2929 N   0  0  0  0  0  0  0  0  0  0  0  0
   18.1872   -9.6504   14.7031 C   0  0  0  0  0  0  0  0  0  0  0  0
   16.4187   -8.5741   16.6016 N   0  0  0  0  0  0  0  0  0  0  0  0
   15.5688   -7.9383   17.5537 C   0  0  0  0  0  0  0  0  0  0  0  0
   14.4030   -7.5861   17.2338 O   0  0  0  0  0  0  0  0  0  0  0  0
   16.0415   -7.7006   18.8737 N   0  0  0  0  0  0  0  0  0  0  0  0
   17.3277   -8.8437   16.8669 H   0  0  0  0  0  0  0  0  0  0  0  0
   16.9525   -7.9747   19.1272 H   0  0  0  0  0  0  0  0  0  0  0  0
   15.4578   -7.2619   19.5341 H   0  0  0  0  0  0  0  0  0  0  0  0
   19.3028   -8.6955   10.6012 C   0  0  0  0  0  0  0  0  0  0  0  0
   18.6813   -9.3254    9.3649 C   0  0  0  0  0  0  0  0  0  0  0  0
   18.9530   -8.5463    8.1088 C   0  0  0  0  0  0  0  0  0  0  0  0
   19.1355   -7.1326    8.1272 C   0  0  0  0  0  0  0  0  0  0  0  0
   19.3688   -6.4246    6.9336 C   0  0  0  0  0  0  0  0  0  0  0  0
   19.4102   -7.1561    5.7496 C   0  0  0  0  0  0  0  0  0  0  0  0
   19.2342   -8.5067    5.7223 C   0  0  0  0  0  0  0  0  0  0  0  0
   19.0017   -9.2425    6.8802 C   0  0  0  0  0  0  0  0  0  0  0  0
   18.8222  -10.5869    6.8219 F   0  0  0  0  0  0  0  0  0  0  0  0
   19.3349   -8.8887    4.3967 C   0  0  0  0  0  0  0  0  0  0  0  0
   19.5676   -7.7621    3.6736 N   0  0  0  0  0  0  0  0  0  0  0  0
   19.6112   -6.7232    4.4984 N   0  0  0  0  0  0  0  0  0  0  0  0
   19.8409   -5.3530    4.0734 C   0  0  0  0  0  0  0  0  0  0  0  0
   19.0934   -6.4439    9.2946 F   0  0  0  0  0  0  0  0  0  0  0  0
 21 20  1  0  0  0
 21  1  1  0  0  0
 21 22  1  0  0  0
  1  2  2  0  0  0
  2  3  1  0  0  0
  3  4  2  0  0  0
  4  5  1  0  0  0
  5  6  1  0  0  0
  5  1  1  0  0  0
  6  7  2  0  0  0
  7  8  1  0  0  0
  7 10  1  0  0  0
  8  9  2  0  0  0
  9  4  1  0  0  0
 10 11  2  0  0  0
 10 12  1  0  0  0
 11 13  1  0  0  0
 13 14  1  0  0  0
 14 15  2  0  0  0
 14 16  1  0  0  0
 22 23  2  0  0  0
 23 24  1  0  0  0
 23 33  1  0  0  0
 24 25  2  0  0  0
 25 26  1  0  0  0
 26 27  2  0  0  0
 26 29  1  0  0  0
 27 28  1  0  0  0
 27 22  1  0  0  0
 29 30  2  0  0  0
 30 31  1  0  0  0
 31 32  1  0  0  0
 31 25  1  0  0  0
 13 17  1  0  0  0
 16 18  1  0  0  0
 16 19  1  0  0  0
M  END
>  <minimizedAffinity>
-3.66955

>  <minimizedRMSD>
4.15734

$$$$
CHEMBL4475237 PubChem-157291937 PubChem-58138789


 33 36  0  0  0  0  0  0  0  0999 V2000
   17.1741   -9.2668    9.9121 N   0  0  0  0  0  0  0  0  0  0  0  0
   17.3411   -9.3838    8.4955 C   0  0  0  0  0  0  0  0  0  0  0  0
   16.5745  -10.1376    7.8355 O   0  0  0  0  0  0  0  0  0  0  0  0
   17.7479   -8.6345   10.4022 H   0  0  0  0  0  0  0  0  0  0  0  0
   18.4004   -8.6245    7.7962 C   0  0  0  0  0  0  0  0  0  0  0  0
   18.4235   -8.4415    6.4041 C   0  0  0  0  0  0  0  0  0  0  0  0
   17.5692   -8.8639    5.4014 C   0  0  0  0  0  0  0  0  0  0  0  0
   18.0648   -8.4058    4.2256 N   0  0  0  0  0  0  0  0  0  0  0  0
   19.1815   -7.7214    4.4519 N   0  0  0  0  0  0  0  0  0  0  0  0
   19.4155   -7.7328    5.7795 C   0  0  0  0  0  0  0  0  0  0  0  0
   20.4634   -7.1493    6.4929 C   0  0  0  0  0  0  0  0  0  0  0  0
   20.4731   -7.3106    7.8879 C   0  0  0  0  0  0  0  0  0  0  0  0
   19.4526   -8.0399    8.5323 C   0  0  0  0  0  0  0  0  0  0  0  0
   19.9550   -7.1028    3.4050 C   0  0  0  0  0  0  0  0  0  0  0  0
   19.7739   -5.7532    3.0620 C   0  0  0  0  0  0  0  0  0  0  0  0
   20.5337   -5.1693    2.0445 C   0  0  0  0  0  0  0  0  0  0  0  0
   21.4838   -5.9296    1.3588 C   0  0  0  0  0  0  0  0  0  0  0  0
   21.6735   -7.2732    1.6902 C   0  0  0  0  0  0  0  0  0  0  0  0
   20.9129   -7.8560    2.7079 C   0  0  0  0  0  0  0  0  0  0  0  0
   22.2208   -5.3644    0.3729 F   0  0  0  0  0  0  0  0  0  0  0  0
   16.1937  -10.0405   10.6616 C   0  0  0  0  0  0  0  0  0  0  0  0
   17.1168   -9.9211   14.8507 C   0  0  0  0  0  0  0  0  0  0  0  0
   18.1173  -10.2208   13.9192 C   0  0  0  0  0  0  0  0  0  0  0  0
   17.8148  -10.2642   12.5551 C   0  0  0  0  0  0  0  0  0  0  0  0
   16.5109  -10.0085   12.1182 C   0  0  0  0  0  0  0  0  0  0  0  0
   15.5112   -9.7027   13.0484 C   0  0  0  0  0  0  0  0  0  0  0  0
   15.8141   -9.6592   14.4124 C   0  0  0  0  0  0  0  0  0  0  0  0
   17.4929   -9.8594   16.5649 S   0  0  0  0  0  0  0  0  0  0  0  0
   17.5605  -11.2542   17.1236 O   0  0  0  0  0  0  0  0  0  0  0  0
   18.8250   -9.1906   16.7525 O   0  0  0  0  0  0  0  0  0  0  0  0
   15.7335   -7.9738   16.4944 C   0  0  0  0  0  0  0  0  0  0  0  0
   16.2769   -8.9619   17.4114 N   0  0  0  0  0  0  0  0  0  0  0  0
   15.5362   -9.5900   17.7231 H   0  0  0  0  0  0  0  0  0  0  0  0
 31 32  1  0  0  0
 32 28  1  0  0  0
 28 29  2  0  0  0
 28 30  2  0  0  0
 28 22  1  0  0  0
 22 23  2  0  0  0
 23 24  1  0  0  0
 24 25  2  0  0  0
 25 26  1  0  0  0
 25 21  1  0  0  0
 26 27  2  0  0  0
 27 22  1  0  0  0
 21  1  1  0  0  0
  1  2  1  0  0  0
  2  3  2  0  0  0
  2  5  1  0  0  0
  5  6  2  0  0  0
  6  7  1  0  0  0
  7  8  2  0  0  0
  8  9  1  0  0  0
  9 10  1  0  0  0
  9 14  1  0  0  0
 10 11  2  0  0  0
 10  6  1  0  0  0
 11 12  1  0  0  0
 12 13  2  0  0  0
 13  5  1  0  0  0
 14 15  2  0  0  0
 15 16  1  0  0  0
 16 17  2  0  0  0
 17 18  1  0  0  0
 17 20  1  0  0  0
 18 19  2  0  0  0
 19 14  1  0  0  0
 32 33  1  0  0  0
  1  4  1  0  0  0
M  END
>  <minimizedAffinity>
-6.26890

>  <minimizedRMSD>
4.25007

$$$$
CHEMBL3912286 PubChem-90272324


 37 41  0  0  0  0  0  0  0  0999 V2000
   17.4201  -10.5128   15.4610 N   0  0  0  0  0  0  0  0  0  0  0  0
   17.8589   -9.3684   14.8922 C   0  0  0  0  0  0  0  0  0  0  0  0
   17.2125   -8.2772   15.4471 C   0  0  0  0  0  0  0  0  0  0  0  0
   16.3488   -8.8695   16.3582 C   0  0  0  0  0  0  0  0  0  0  0  0
   16.4917  -10.2101   16.3528 N   0  0  0  0  0  0  0  0  0  0  0  0
   19.0886  -15.9080   14.4473 C   0  0  0  0  0  0  0  0  0  0  0  0
   18.6566  -14.5097   14.7046 C   0  0  0  0  0  0  0  0  0  0  0  0
   18.3060  -13.6793   13.6378 C   0  0  0  0  0  0  0  0  0  0  0  0
   17.8998  -12.3642   13.8804 C   0  0  0  0  0  0  0  0  0  0  0  0
   17.8404  -11.8643   15.1914 C   0  0  0  0  0  0  0  0  0  0  0  0
   18.1939  -12.7100   16.2549 C   0  0  0  0  0  0  0  0  0  0  0  0
   18.6003  -14.0253   16.0135 C   0  0  0  0  0  0  0  0  0  0  0  0
   15.4020   -8.1524   17.2285 C   0  0  0  0  0  0  0  0  0  0  0  0
   15.7104   -7.9388   18.5793 C   0  0  0  0  0  0  0  0  0  0  0  0
   14.8142   -7.2599   19.4094 C   0  0  0  0  0  0  0  0  0  0  0  0
   13.6012   -6.7899   18.8965 C   0  0  0  0  0  0  0  0  0  0  0  0
   13.2886   -6.9986   17.5492 C   0  0  0  0  0  0  0  0  0  0  0  0
   14.1847   -7.6774   16.7189 C   0  0  0  0  0  0  0  0  0  0  0  0
   12.4845   -5.9299   19.9441 S   0  0  0  0  0  0  0  0  0  0  0  0
   11.6115   -6.9247   20.6551 O   0  0  0  0  0  0  0  0  0  0  0  0
   11.6115   -5.0195   19.1248 O   0  0  0  0  0  0  0  0  0  0  0  0
   13.3610   -4.9976   21.1110 N   0  0  0  0  0  0  0  0  0  0  0  0
   14.7368   -5.4657   21.1109 C   0  0  0  0  0  0  0  0  0  0  0  0
   12.9510   -5.1255   22.0361 H   0  0  0  0  0  0  0  0  0  0  0  0
   18.9203   -9.2996   13.9311 N   0  0  0  0  0  0  0  0  0  0  0  0
   18.7656   -8.9874   12.5413 C   0  0  0  0  0  0  0  0  0  0  0  0
   19.6855   -8.3572   11.9569 O   0  0  0  0  0  0  0  0  0  0  0  0
   19.8325   -9.4824   14.2531 H   0  0  0  0  0  0  0  0  0  0  0  0
   17.5949   -9.4397   11.7651 C   0  0  0  0  0  0  0  0  0  0  0  0
   17.4557   -9.4935   10.3987 C   0  0  0  0  0  0  0  0  0  0  0  0
   18.3267   -9.1018    9.4360 N   0  0  0  0  0  0  0  0  0  0  0  0
   17.9625   -9.2509    8.1285 C   0  0  0  0  0  0  0  0  0  0  0  0
   16.7092   -9.7998    7.7913 C   0  0  0  0  0  0  0  0  0  0  0  0
   15.8439  -10.1903    8.8228 C   0  0  0  0  0  0  0  0  0  0  0  0
   16.2654  -10.0154   10.0976 N   0  0  0  0  0  0  0  0  0  0  0  0
   15.6091  -10.3219   11.2021 N   0  0  0  0  0  0  0  0  0  0  0  0
   16.4040   -9.9857   12.2509 C   0  0  0  0  0  0  0  0  0  0  0  0
  6  7  1  0  0  0
  7  8  2  0  0  0
  8  9  1  0  0  0
  9 10  2  0  0  0
 10 11  1  0  0  0
 10  1  1  0  0  0
 11 12  2  0  0  0
 12  7  1  0  0  0
  1  2  1  0  0  0
  2  3  2  0  0  0
  2 25  1  0  0  0
  3  4  1  0  0  0
  4  5  2  0  0  0
  4 13  1  0  0  0
  5  1  1  0  0  0
 13 14  2  0  0  0
 14 15  1  0  0  0
 15 16  2  0  0  0
 16 17  1  0  0  0
 16 19  1  0  0  0
 17 18  2  0  0  0
 18 13  1  0  0  0
 19 20  2  0  0  0
 19 21  2  0  0  0
 19 22  1  0  0  0
 22 23  1  0  0  0
 25 26  1  0  0  0
 26 27  2  0  0  0
 26 29  1  0  0  0
 29 30  2  0  0  0
 30 31  1  0  0  0
 31 32  2  0  0  0
 32 33  1  0  0  0
 33 34  2  0  0  0
 34 35  1  0  0  0
 35 36  1  0  0  0
 35 30  1  0  0  0
 36 37  2  0  0  0
 37 29  1  0  0  0
 22 24  1  0  0  0
 25 28  1  0  0  0
M  END
>  <minimizedAffinity>
9.79312

>  <minimizedRMSD>
4.34184

$$$$
CHEMBL4846776 PubChem-164609349


 36 39  0  0  0  0  0  0  0  0999 V2000
   18.2643   -8.7217    6.9399 C   0  0  0  0  0  0  0  0  0  0  0  0
   17.1251   -9.4517    7.0676 N   0  0  0  0  0  0  0  0  0  0  0  0
   16.9425   -9.7181    8.3542 N   0  0  0  0  0  0  0  0  0  0  0  0
   17.9450   -9.1683    9.0517 C   0  0  0  0  0  0  0  0  0  0  0  0
   18.1302   -9.2259   10.3927 N   0  0  0  0  0  0  0  0  0  0  0  0
   19.2418   -8.6308   10.9148 C   0  0  0  0  0  0  0  0  0  0  0  0
   20.1461   -8.0082   10.0960 N   0  0  0  0  0  0  0  0  0  0  0  0
   19.9651   -7.9489    8.7440 C   0  0  0  0  0  0  0  0  0  0  0  0
   18.8131   -8.5359    8.2119 C   0  0  0  0  0  0  0  0  0  0  0  0
   20.9629   -7.3518    7.9258 N   0  0  0  0  0  0  0  0  0  0  0  0
   21.7608   -6.9483    8.3378 H   0  0  0  0  0  0  0  0  0  0  0  0
   20.8559   -7.3419    6.9472 H   0  0  0  0  0  0  0  0  0  0  0  0
   21.2313   -6.0949    3.8625 C   0  0  0  0  0  0  0  0  0  0  0  0
   21.0536   -5.9974    2.4783 C   0  0  0  0  0  0  0  0  0  0  0  0
   19.9815   -6.7122    2.0513 N   0  0  0  0  0  0  0  0  0  0  0  0
   19.4862   -7.2601    3.1680 C   0  0  0  0  0  0  0  0  0  0  0  0
   18.3950   -8.0608    3.2431 N   0  0  0  0  0  0  0  0  0  0  0  0
   18.0094   -8.5416    4.4630 C   0  0  0  0  0  0  0  0  0  0  0  0
   18.7386   -8.2222    5.6346 C   0  0  0  0  0  0  0  0  0  0  0  0
   19.8568   -7.3727    5.5313 C   0  0  0  0  0  0  0  0  0  0  0  0
   20.2059   -6.9140    4.2670 C   0  0  0  0  0  0  0  0  0  0  0  0
   19.6451   -6.8062    1.1308 H   0  0  0  0  0  0  0  0  0  0  0  0
   15.8075  -10.4562    8.8886 C   0  0  0  0  0  0  0  0  0  0  0  0
   14.8341   -9.5106    9.5803 C   0  0  0  0  0  0  0  0  0  0  0  0
   14.4598  -10.0154   10.9684 C   0  0  0  0  0  0  0  0  0  0  0  0
   15.6981  -10.3130   11.8050 C   0  0  0  0  0  0  0  0  0  0  0  0
   15.7757   -9.4200   13.0375 C   0  0  0  0  0  0  0  0  0  0  0  0
   16.3530  -10.1724   14.2254 C   0  0  0  0  0  0  0  0  0  0  0  0
   17.8512   -9.9399   14.3247 C   0  0  0  0  0  0  0  0  0  0  0  0
   18.1892   -9.2198   15.6233 C   0  0  0  0  0  0  0  0  0  0  0  0
   17.1243   -8.2583   16.0608 C   0  0  0  0  0  0  0  0  0  0  0  0
   16.8179   -7.2581   15.3554 O   0  0  0  0  0  0  0  0  0  0  0  0
   16.4483   -8.4923   17.2935 N   0  0  0  0  0  0  0  0  0  0  0  0
   15.4792   -7.6517   17.7249 O   0  0  0  0  0  0  0  0  0  0  0  0
   16.6894   -9.2759   17.8385 H   0  0  0  0  0  0  0  0  0  0  0  0
   15.3614   -6.9362   17.0806 H   0  0  0  0  0  0  0  0  0  0  0  0
 13 14  2  0  0  0
 14 15  1  0  0  0
 15 16  1  0  0  0
 16 17  2  0  0  0
 17 18  1  0  0  0
 18 19  2  0  0  0
 19 20  1  0  0  0
 20 21  2  0  0  0
 19  1  1  0  0  0
  1  2  2  0  0  0
  2  3  1  0  0  0
  3  4  1  0  0  0
  4  5  2  0  0  0
  5  6  1  0  0  0
  6  7  2  0  0  0
  7  8  1  0  0  0
  8  9  2  0  0  0
  8 10  1  0  0  0
  3 23  1  0  0  0
 23 24  1  0  0  0
 24 25  1  0  0  0
 25 26  1  0  0  0
 26 27  1  0  0  0
 27 28  1  0  0  0
 28 29  1  0  0  0
 29 30  1  0  0  0
 30 31  1  0  0  0
 31 32  2  0  0  0
 31 33  1  0  0  0
 33 34  1  0  0  0
 21 13  1  0  0  0
 21 16  1  0  0  0
  9  1  1  0  0  0
  9  4  1  0  0  0
 15 22  1  0  0  0
 10 11  1  0  0  0
 10 12  1  0  0  0
 33 35  1  0  0  0
 34 36  1  0  0  0
M  END
>  <minimizedAffinity>
-3.57784

>  <minimizedRMSD>
4.36014

$$$$
CHEMBL5093906


 35 38  0  0  0  0  0  0  0  0999 V2000
   18.3871  -10.2727   12.2434 N   0  0  0  0  0  0  0  0  0  0  0  0
   17.9466  -11.1140   11.9839 H   0  0  0  0  0  0  0  0  0  0  0  0
   18.0861   -9.2304   10.0885 N   0  0  0  0  0  0  0  0  0  0  0  0
   18.8741   -9.4391   11.1855 C   0  0  0  0  0  0  0  0  0  0  0  0
   20.1128   -8.8503   11.2628 N   0  0  0  0  0  0  0  0  0  0  0  0
   20.5908   -8.0499   10.2650 C   0  0  0  0  0  0  0  0  0  0  0  0
   19.7799   -7.8489    9.1592 C   0  0  0  0  0  0  0  0  0  0  0  0
   18.5612   -8.4382    9.0967 C   0  0  0  0  0  0  0  0  0  0  0  0
   17.9388   -8.1145    7.9580 N   0  0  0  0  0  0  0  0  0  0  0  0
   18.7783   -7.2914    7.2856 C   0  0  0  0  0  0  0  0  0  0  0  0
   19.9623   -7.1009    8.0125 C   0  0  0  0  0  0  0  0  0  0  0  0
   16.5987   -8.5037    7.5437 C   0  0  0  0  0  0  0  0  0  0  0  0
   16.0956   -9.6142    8.4018 C   0  0  0  0  0  0  0  0  0  0  0  0
   15.0752   -9.3762    9.3290 C   0  0  0  0  0  0  0  0  0  0  0  0
   14.6235  -10.4112   10.1531 C   0  0  0  0  0  0  0  0  0  0  0  0
   15.1955  -11.6835   10.0555 C   0  0  0  0  0  0  0  0  0  0  0  0
   16.2204  -11.9206    9.1343 C   0  0  0  0  0  0  0  0  0  0  0  0
   16.6721  -10.8858    8.3097 C   0  0  0  0  0  0  0  0  0  0  0  0
   13.3446  -10.1131   11.3098 Cl  0  0  0  0  0  0  0  0  0  0  0  0
   18.4828   -9.9930   13.6446 C   0  0  0  0  0  0  0  0  0  0  0  0
   19.3583  -10.6111   14.5138 C   0  0  0  0  0  0  0  0  0  0  0  0
   19.1428  -10.0868   15.7364 N   0  0  0  0  0  0  0  0  0  0  0  0
   18.1821   -9.1817   15.6356 N   0  0  0  0  0  0  0  0  0  0  0  0
   17.7373   -9.0873   14.3708 C   0  0  0  0  0  0  0  0  0  0  0  0
   17.6612   -8.4252   16.7629 C   0  0  0  0  0  0  0  0  0  0  0  0
   16.4664   -9.1407   17.3809 C   0  0  0  0  0  0  0  0  0  0  0  0
   15.1671   -8.7599   16.6816 C   0  0  0  0  0  0  0  0  0  0  0  0
   14.5909   -7.4661   17.2440 C   0  0  0  0  0  0  0  0  0  0  0  0
   14.7121   -7.4212   18.7647 C   0  0  0  0  0  0  0  0  0  0  0  0
   13.4875   -6.8832   19.4428 C   0  0  0  0  0  0  0  0  0  0  0  0
   12.4241   -6.6714   18.7980 O   0  0  0  0  0  0  0  0  0  0  0  0
   13.5395   -6.6033   20.8393 N   0  0  0  0  0  0  0  0  0  0  0  0
   12.4585   -6.1145   21.4907 O   0  0  0  0  0  0  0  0  0  0  0  0
   14.3730   -6.7676   21.3368 H   0  0  0  0  0  0  0  0  0  0  0  0
   11.7244   -6.0095   20.8655 H   0  0  0  0  0  0  0  0  0  0  0  0
  3  4  2  0  0  0
  4  5  1  0  0  0
  5  6  2  0  0  0
  6  7  1  0  0  0
  7  8  2  0  0  0
  8  9  1  0  0  0
  9 10  1  0  0  0
 10 11  2  0  0  0
  9 12  1  0  0  0
 12 13  1  0  0  0
 13 14  2  0  0  0
 14 15  1  0  0  0
 15 16  2  0  0  0
 16 17  1  0  0  0
 17 18  2  0  0  0
 15 19  1  0  0  0
  4  1  1  0  0  0
  1 20  1  0  0  0
 20 21  1  0  0  0
 21 22  2  0  0  0
 22 23  1  0  0  0
 23 24  1  0  0  0
 23 25  1  0  0  0
 25 26  1  0  0  0
 26 27  1  0  0  0
 27 28  1  0  0  0
 28 29  1  0  0  0
 29 30  1  0  0  0
 30 31  2  0  0  0
 30 32  1  0  0  0
 32 33  1  0  0  0
  8  3  1  0  0  0
 18 13  1  0  0  0
 24 20  2  0  0  0
 11  7  1  0  0  0
  1  2  1  0  0  0
 32 34  1  0  0  0
 33 35  1  0  0  0
M  END
>  <minimizedAffinity>
3.10409

>  <minimizedRMSD>
4.51195

$$$$
CHEMBL5069973 PubChem-141728847


 35 38  0  0  0  0  0  0  0  0999 V2000
   18.6439  -10.1259   12.3306 N   0  0  0  0  0  0  0  0  0  0  0  0
   19.0960  -10.9939   12.4375 H   0  0  0  0  0  0  0  0  0  0  0  0
   17.9128   -8.8139    7.7516 N   0  0  0  0  0  0  0  0  0  0  0  0
   18.5578   -7.9140    6.9715 C   0  0  0  0  0  0  0  0  0  0  0  0
   19.6150   -7.3232    7.6784 C   0  0  0  0  0  0  0  0  0  0  0  0
   19.5606   -7.9140    8.9256 C   0  0  0  0  0  0  0  0  0  0  0  0
   20.3332   -7.7357   10.0622 C   0  0  0  0  0  0  0  0  0  0  0  0
   20.0142   -8.4739   11.1660 N   0  0  0  0  0  0  0  0  0  0  0  0
   18.9668   -9.3628   11.1625 C   0  0  0  0  0  0  0  0  0  0  0  0
   18.2140   -9.5264   10.0335 N   0  0  0  0  0  0  0  0  0  0  0  0
   18.5318   -8.7960    8.9370 C   0  0  0  0  0  0  0  0  0  0  0  0
   16.7367   -9.5881    7.3820 C   0  0  0  0  0  0  0  0  0  0  0  0
   16.0662  -11.1035    9.2592 C   0  0  0  0  0  0  0  0  0  0  0  0
   15.2745  -11.3924   10.3749 C   0  0  0  0  0  0  0  0  0  0  0  0
   14.3266  -10.4650   10.8185 C   0  0  0  0  0  0  0  0  0  0  0  0
   14.1680   -9.2498   10.1451 C   0  0  0  0  0  0  0  0  0  0  0  0
   14.9596   -8.9606    9.0297 C   0  0  0  0  0  0  0  0  0  0  0  0
   15.9139   -9.8844    8.5894 C   0  0  0  0  0  0  0  0  0  0  0  0
   13.3356  -10.8270   12.2147 Cl  0  0  0  0  0  0  0  0  0  0  0  0
   17.7229   -9.7405   13.3572 C   0  0  0  0  0  0  0  0  0  0  0  0
   17.8939   -9.8535   14.7215 C   0  0  0  0  0  0  0  0  0  0  0  0
   16.7703   -9.3615   15.2708 N   0  0  0  0  0  0  0  0  0  0  0  0
   15.9260   -8.9483   14.3387 N   0  0  0  0  0  0  0  0  0  0  0  0
   16.4859   -9.1716   13.1335 C   0  0  0  0  0  0  0  0  0  0  0  0
   16.5160   -9.2538   16.6985 C   0  0  0  0  0  0  0  0  0  0  0  0
   15.4458   -8.2050   16.9736 C   0  0  0  0  0  0  0  0  0  0  0  0
   15.4268   -7.8014   18.4429 C   0  0  0  0  0  0  0  0  0  0  0  0
   14.0079   -7.7897   18.9985 C   0  0  0  0  0  0  0  0  0  0  0  0
   13.0838   -6.9319   18.1386 C   0  0  0  0  0  0  0  0  0  0  0  0
   12.4127   -5.8305   18.9040 C   0  0  0  0  0  0  0  0  0  0  0  0
   12.6871   -5.6170   20.1166 O   0  0  0  0  0  0  0  0  0  0  0  0
   11.4442   -5.0215   18.2415 N   0  0  0  0  0  0  0  0  0  0  0  0
   10.8127   -4.0184   18.8946 O   0  0  0  0  0  0  0  0  0  0  0  0
   11.2318   -5.1947   17.2959 H   0  0  0  0  0  0  0  0  0  0  0  0
   11.1306   -3.9781   19.8102 H   0  0  0  0  0  0  0  0  0  0  0  0
 13 14  2  0  0  0
 14 15  1  0  0  0
 15 16  2  0  0  0
 16 17  1  0  0  0
 17 18  2  0  0  0
 18 12  1  0  0  0
 12  3  1  0  0  0
  3  4  1  0  0  0
  4  5  2  0  0  0
  5  6  1  0  0  0
  6  7  2  0  0  0
  7  8  1  0  0  0
  8  9  2  0  0  0
  9 10  1  0  0  0
 10 11  2  0  0  0
  9  1  1  0  0  0
  1 20  1  0  0  0
 20 21  2  0  0  0
 21 22  1  0  0  0
 22 23  1  0  0  0
 23 24  2  0  0  0
 22 25  1  0  0  0
 25 26  1  0  0  0
 26 27  1  0  0  0
 27 28  1  0  0  0
 28 29  1  0  0  0
 29 30  1  0  0  0
 30 31  2  0  0  0
 30 32  1  0  0  0
 32 33  1  0  0  0
 15 19  1  0  0  0
 18 13  1  0  0  0
 11  3  1  0  0  0
 11  6  1  0  0  0
 24 20  1  0  0  0
  1  2  1  0  0  0
 32 34  1  0  0  0
 33 35  1  0  0  0
M  END
>  <minimizedAffinity>
0.85600

>  <minimizedRMSD>
4.58661

$$$$
CHEMBL300567 PubChem-44300402


 32 34  0  0  0  0  0  0  0  0999 V2000
   15.7468   -9.9245    9.9468 C   0  0  0  0  0  0  0  0  0  0  0  0
   17.1896   -9.6704    9.5239 C   0  0  0  0  0  0  0  0  0  0  0  0
   17.3796   -9.8333    8.0203 C   0  0  0  0  0  0  0  0  0  0  0  0
   17.1181   -8.5271    7.2807 C   0  0  0  0  0  0  0  0  0  0  0  0
   19.9528   -7.4624    5.3065 C   0  0  0  0  0  0  0  0  0  0  0  0
   20.4239   -7.1375    6.5269 N   0  0  0  0  0  0  0  0  0  0  0  0
   19.4112   -7.4921    7.3666 C   0  0  0  0  0  0  0  0  0  0  0  0
   18.3496   -8.0101    6.7023 N   0  0  0  0  0  0  0  0  0  0  0  0
   18.7109   -7.9875    5.4163 C   0  0  0  0  0  0  0  0  0  0  0  0
   17.9933   -8.4113    4.3492 N   0  0  0  0  0  0  0  0  0  0  0  0
   18.5615   -8.2945    3.1129 C   0  0  0  0  0  0  0  0  0  0  0  0
   19.8182   -7.7644    2.9711 N   0  0  0  0  0  0  0  0  0  0  0  0
   20.5498   -7.3352    4.0469 C   0  0  0  0  0  0  0  0  0  0  0  0
   21.8676   -6.7863    3.8525 N   0  0  0  0  0  0  0  0  0  0  0  0
   22.9975   -7.5940    3.4217 C   0  0  0  0  0  0  0  0  0  0  0  0
   22.1114   -5.3736    4.0945 C   0  0  0  0  0  0  0  0  0  0  0  0
   15.6739  -10.4424   11.3740 C   0  0  0  0  0  0  0  0  0  0  0  0
   15.5552   -9.2861   12.3491 C   0  0  0  0  0  0  0  0  0  0  0  0
   16.8264   -8.8998   12.7755 O   0  0  0  0  0  0  0  0  0  0  0  0
   17.0614   -9.6633   13.9210 C   0  0  0  0  0  0  0  0  0  0  0  0
   16.4608   -8.9741   15.1523 C   0  0  0  0  0  0  0  0  0  0  0  0
   16.6798   -9.8478   16.3858 C   0  0  0  0  0  0  0  0  0  0  0  0
   18.1419  -10.3042   16.4668 C   0  0  0  0  0  0  0  0  0  0  0  0
   18.6662  -10.8169   15.1135 C   0  0  0  0  0  0  0  0  0  0  0  0
   18.4506   -9.8762   14.0779 O   0  0  0  0  0  0  0  0  0  0  0  0
   18.1743  -12.2163   14.7430 C   0  0  0  0  0  0  0  0  0  0  0  0
   18.3205  -11.2537   17.4759 O   0  0  0  0  0  0  0  0  0  0  0  0
   15.8189  -10.9478   16.3440 O   0  0  0  0  0  0  0  0  0  0  0  0
   17.0497   -7.7218   15.3452 O   0  0  0  0  0  0  0  0  0  0  0  0
   17.8002  -12.0461   17.2699 H   0  0  0  0  0  0  0  0  0  0  0  0
   16.0064  -11.4752   15.5519 H   0  0  0  0  0  0  0  0  0  0  0  0
   18.0027   -7.8313   15.4887 H   0  0  0  0  0  0  0  0  0  0  0  0
  5  6  1  0  0  0
  6  7  2  0  0  0
  7  8  1  0  0  0
  8  9  1  0  0  0
  9 10  1  0  0  0
 10 11  2  0  0  0
 11 12  1  0  0  0
 12 13  2  0  0  0
 13 14  1  0  0  0
 14 15  1  0  0  0
 14 16  1  0  0  0
  8  4  1  0  0  0
  4  3  1  0  0  0
  3  2  1  0  0  0
  2  1  1  0  0  0
  1 17  1  0  0  0
 17 18  1  0  0  0
 18 19  1  0  0  0
 19 20  1  0  0  0
 20 21  1  0  0  0
 21 22  1  0  0  0
 22 23  1  0  0  0
 23 24  1  0  0  0
 24 25  1  0  0  0
 24 26  1  0  0  0
 23 27  1  0  0  0
 22 28  1  0  0  0
 21 29  1  0  0  0
  9  5  2  0  0  0
 25 20  1  0  0  0
 13  5  1  0  0  0
 27 30  1  0  0  0
 28 31  1  0  0  0
 29 32  1  0  0  0
M  END
>  <minimizedAffinity>
-6.20647

>  <minimizedRMSD>
4.68171

$$$$
CHEMBL4956360 72332392 MCULE-7154966095 MolPort-023-306-091 ZINC000072332392 ZINC72332392


 35 38  0  0  0  0  0  0  0  0999 V2000
   16.3607   -9.6379   12.6642 C   0  0  0  0  0  0  0  0  0  0  0  0
   15.2222   -9.8713   12.1735 O   0  0  0  0  0  0  0  0  0  0  0  0
   16.5128   -9.5197   14.0782 N   0  0  0  0  0  0  0  0  0  0  0  0
   17.4067   -9.3319   14.4453 H   0  0  0  0  0  0  0  0  0  0  0  0
   18.9861  -10.1900   14.6312 C   0  0  0  0  0  0  0  0  0  0  0  0
   19.5366   -9.6829   13.3454 C   0  0  0  0  0  0  0  0  0  0  0  0
   20.8642   -9.5422   13.1241 N   0  0  0  0  0  0  0  0  0  0  0  0
   21.0598   -9.1822   11.8607 N   0  0  0  0  0  0  0  0  0  0  0  0
   19.8498   -9.1008   11.2868 C   0  0  0  0  0  0  0  0  0  0  0  0
   19.6099   -8.8293    9.9817 N   0  0  0  0  0  0  0  0  0  0  0  0
   18.3232   -8.8396    9.5167 C   0  0  0  0  0  0  0  0  0  0  0  0
   17.2598   -9.1286   10.4063 C   0  0  0  0  0  0  0  0  0  0  0  0
   17.5065   -9.4052   11.7653 C   0  0  0  0  0  0  0  0  0  0  0  0
   18.8518   -9.3944   12.1748 C   0  0  0  0  0  0  0  0  0  0  0  0
   21.9269   -9.0083   11.4280 H   0  0  0  0  0  0  0  0  0  0  0  0
   18.0535   -8.5470    8.0927 C   0  0  0  0  0  0  0  0  0  0  0  0
   16.7862   -8.1089    7.6737 C   0  0  0  0  0  0  0  0  0  0  0  0
   16.5405   -7.8335    6.3255 C   0  0  0  0  0  0  0  0  0  0  0  0
   17.5591   -7.9940    5.3829 C   0  0  0  0  0  0  0  0  0  0  0  0
   18.8232   -8.4294    5.7881 C   0  0  0  0  0  0  0  0  0  0  0  0
   19.0690   -8.7042    7.1365 C   0  0  0  0  0  0  0  0  0  0  0  0
   15.3943   -9.6667   14.9964 C   0  0  0  0  0  0  0  0  0  0  0  0
   15.8451   -9.3576   16.4163 C   0  0  0  0  0  0  0  0  0  0  0  0
   14.7874   -8.6273   17.1765 C   0  0  0  0  0  0  0  0  0  0  0  0
   15.0810   -8.0267   18.4072 C   0  0  0  0  0  0  0  0  0  0  0  0
   14.0835   -7.3426   19.1080 C   0  0  0  0  0  0  0  0  0  0  0  0
   12.7906   -7.2536   18.5806 C   0  0  0  0  0  0  0  0  0  0  0  0
   12.4995   -7.8482   17.3474 C   0  0  0  0  0  0  0  0  0  0  0  0
   13.4966   -8.5322   16.6461 C   0  0  0  0  0  0  0  0  0  0  0  0
   11.5449   -6.3947   19.4679 S   0  0  0  0  0  0  0  0  0  0  0  0
   11.2638   -4.8599   18.7274 N   0  0  0  0  0  0  0  0  0  0  0  0
   11.9870   -6.1976   20.8902 O   0  0  0  0  0  0  0  0  0  0  0  0
   10.2680   -7.1877   19.4553 O   0  0  0  0  0  0  0  0  0  0  0  0
   12.1271   -4.3165   18.7328 H   0  0  0  0  0  0  0  0  0  0  0  0
   10.5433   -4.3585   19.2469 H   0  0  0  0  0  0  0  0  0  0  0  0
  5  6  1  0  0  0
  6  7  2  0  0  0
  7  8  1  0  0  0
  8  9  1  0  0  0
  9 10  2  0  0  0
 10 11  1  0  0  0
 11 12  2  0  0  0
 11 16  1  0  0  0
 12 13  1  0  0  0
 13  1  1  0  0  0
 13 14  2  0  0  0
  1  2  2  0  0  0
  1  3  1  0  0  0
  3 22  1  0  0  0
 22 23  1  0  0  0
 23 24  1  0  0  0
 24 25  2  0  0  0
 25 26  1  0  0  0
 26 27  2  0  0  0
 27 28  1  0  0  0
 27 30  1  0  0  0
 28 29  2  0  0  0
 29 24  1  0  0  0
 30 31  1  0  0  0
 30 32  2  0  0  0
 30 33  2  0  0  0
 14  6  1  0  0  0
 14  9  1  0  0  0
 16 17  2  0  0  0
 17 18  1  0  0  0
 18 19  2  0  0  0
 19 20  1  0  0  0
 20 21  2  0  0  0
 21 16  1  0  0  0
  8 15  1  0  0  0
  3  4  1  0  0  0
 31 34  1  0  0  0
 31 35  1  0  0  0
M  END
>  <minimizedAffinity>
8.67482

>  <minimizedRMSD>
4.94221

$$$$
CHEMBL3621287 PubChem-78323868


 39 42  0  0  0  0  0  0  0  0999 V2000
   15.2902  -10.2088   14.0428 N   0  0  0  0  0  0  0  0  0  0  0  0
   14.4770   -9.9576   12.9882 C   0  0  0  0  0  0  0  0  0  0  0  0
   15.1752   -9.6717   11.8532 N   0  0  0  0  0  0  0  0  0  0  0  0
   16.4627   -9.7515   12.2447 C   0  0  0  0  0  0  0  0  0  0  0  0
   16.5268  -10.0679   13.5568 C   0  0  0  0  0  0  0  0  0  0  0  0
   17.6947  -10.1700   14.2319 N   0  0  0  0  0  0  0  0  0  0  0  0
   18.8577   -9.9482   13.5471 C   0  0  0  0  0  0  0  0  0  0  0  0
   18.8172   -9.6339   12.2123 N   0  0  0  0  0  0  0  0  0  0  0  0
   17.6386   -9.5285   11.5220 C   0  0  0  0  0  0  0  0  0  0  0  0
   17.6454   -9.1777   10.1250 N   0  0  0  0  0  0  0  0  0  0  0  0
   16.6928   -9.8213    9.2188 C   0  0  0  0  0  0  0  0  0  0  0  0
   17.2847   -9.8735    7.8104 C   0  0  0  0  0  0  0  0  0  0  0  0
   17.6759   -8.5843    7.4091 O   0  0  0  0  0  0  0  0  0  0  0  0
   18.8031   -8.2532    8.1811 C   0  0  0  0  0  0  0  0  0  0  0  0
   18.3858   -8.0143    9.6321 C   0  0  0  0  0  0  0  0  0  0  0  0
   20.1300  -10.0357   14.2024 N   0  0  0  0  0  0  0  0  0  0  0  0
   20.6870  -10.8145   13.9732 H   0  0  0  0  0  0  0  0  0  0  0  0
   20.6825   -9.1154   15.1546 C   0  0  0  0  0  0  0  0  0  0  0  0
   22.0469   -8.7866   15.1695 C   0  0  0  0  0  0  0  0  0  0  0  0
   22.5503   -7.8943   16.1202 C   0  0  0  0  0  0  0  0  0  0  0  0
   21.6926   -7.3247   17.0649 C   0  0  0  0  0  0  0  0  0  0  0  0
   20.3333   -7.6486   17.0581 C   0  0  0  0  0  0  0  0  0  0  0  0
   19.8317   -8.5419   16.1064 C   0  0  0  0  0  0  0  0  0  0  0  0
   14.8894  -10.5049   15.4100 C   0  0  0  0  0  0  0  0  0  0  0  0
   15.6418   -9.6437   16.3652 C   0  0  0  0  0  0  0  0  0  0  0  0
   16.7987   -9.9808   16.7328 O   0  0  0  0  0  0  0  0  0  0  0  0
   15.0249   -8.4655   16.8876 N   0  0  0  0  0  0  0  0  0  0  0  0
   14.1102   -8.2442   16.5986 H   0  0  0  0  0  0  0  0  0  0  0  0
   15.6919   -7.5792   17.8286 C   0  0  0  0  0  0  0  0  0  0  0  0
   15.5127   -8.0953   19.2465 C   0  0  0  0  0  0  0  0  0  0  0  0
   14.3804   -7.3575   19.9364 C   0  0  0  0  0  0  0  0  0  0  0  0
   13.1378   -7.3583   19.0610 C   0  0  0  0  0  0  0  0  0  0  0  0
   11.9482   -6.8002   19.8313 C   0  0  0  0  0  0  0  0  0  0  0  0
   11.9616   -5.3043   19.9403 C   0  0  0  0  0  0  0  0  0  0  0  0
   11.9657   -4.5747   18.9110 O   0  0  0  0  0  0  0  0  0  0  0  0
   11.9625   -4.7072   21.2344 N   0  0  0  0  0  0  0  0  0  0  0  0
   11.9718   -3.3615   21.3789 O   0  0  0  0  0  0  0  0  0  0  0  0
   11.9564   -5.2814   22.0341 H   0  0  0  0  0  0  0  0  0  0  0  0
   11.9771   -2.9425   20.5041 H   0  0  0  0  0  0  0  0  0  0  0  0
 25 26  2  0  0  0
 25 24  1  0  0  0
 24  1  1  0  0  0
  1  2  1  0  0  0
  2  3  2  0  0  0
  3  4  1  0  0  0
  4  5  2  0  0  0
  5  6  1  0  0  0
  6  7  2  0  0  0
  7  8  1  0  0  0
  8  9  2  0  0  0
  9 10  1  0  0  0
 10 11  1  0  0  0
 11 12  1  0  0  0
 12 13  1  0  0  0
 13 14  1  0  0  0
 14 15  1  0  0  0
  7 16  1  0  0  0
 16 18  1  0  0  0
 18 19  2  0  0  0
 19 20  1  0  0  0
 20 21  2  0  0  0
 21 22  1  0  0  0
 22 23  2  0  0  0
 25 27  1  0  0  0
 27 29  1  0  0  0
 29 30  1  0  0  0
 30 31  1  0  0  0
 31 32  1  0  0  0
 32 33  1  0  0  0
 33 34  1  0  0  0
 34 35  2  0  0  0
 34 36  1  0  0  0
 36 37  1  0  0  0
  5  1  1  0  0  0
 15 10  1  0  0  0
 23 18  1  0  0  0
  9  4  1  0  0  0
 16 17  1  0  0  0
 27 28  1  0  0  0
 36 38  1  0  0  0
 37 39  1  0  0  0
M  END
>  <minimizedAffinity>
3.83988

>  <minimizedRMSD>
5.53138

$$$$
CHEMBL45775 PubChem-11751453


 37 40  0  0  0  0  0  0  0  0999 V2000
   15.9564   -8.4018   17.2579 C   0  0  0  0  0  0  0  0  0  0  0  0
   15.6434   -7.7983   16.0302 C   0  0  0  0  0  0  0  0  0  0  0  0
   15.9466   -8.4431   14.8279 C   0  0  0  0  0  0  0  0  0  0  0  0
   16.5686   -9.6958   14.8439 C   0  0  0  0  0  0  0  0  0  0  0  0
   16.8791  -10.3031   16.0645 C   0  0  0  0  0  0  0  0  0  0  0  0
   16.5752   -9.6565   17.2657 C   0  0  0  0  0  0  0  0  0  0  0  0
   14.3550   -7.5896   19.0959 C   0  0  0  0  0  0  0  0  0  0  0  0
   13.3245   -7.9586   18.4684 O   0  0  0  0  0  0  0  0  0  0  0  0
   15.6533   -7.7768   18.5122 N   0  0  0  0  0  0  0  0  0  0  0  0
   16.4194   -7.4388   19.0299 H   0  0  0  0  0  0  0  0  0  0  0  0
   14.1990   -6.9452   20.4291 C   0  0  0  0  0  0  0  0  0  0  0  0
   13.3371   -5.8476   20.6872 C   0  0  0  0  0  0  0  0  0  0  0  0
   13.2703   -5.3221   22.0034 C   0  0  0  0  0  0  0  0  0  0  0  0
   14.0233   -5.8626   22.9956 N   0  0  0  0  0  0  0  0  0  0  0  0
   14.8565   -6.9085   22.7675 C   0  0  0  0  0  0  0  0  0  0  0  0
   14.9566   -7.4597   21.4915 C   0  0  0  0  0  0  0  0  0  0  0  0
   12.4326   -4.2399   22.2892 C   0  0  0  0  0  0  0  0  0  0  0  0
   11.6580   -3.6651   21.2800 C   0  0  0  0  0  0  0  0  0  0  0  0
   11.7189   -4.1692   19.9798 C   0  0  0  0  0  0  0  0  0  0  0  0
   12.5529   -5.2509   19.6868 C   0  0  0  0  0  0  0  0  0  0  0  0
   16.8557  -10.4092   13.5651 C   0  0  0  0  0  0  0  0  0  0  0  0
   18.3571  -10.4957   13.3147 C   0  0  0  0  0  0  0  0  0  0  0  0
   18.6922   -9.8802   12.0383 N   0  0  0  0  0  0  0  0  0  0  0  0
   17.7154   -9.6944   11.0094 C   0  0  0  0  0  0  0  0  0  0  0  0
   16.5221  -10.0570   11.2052 O   0  0  0  0  0  0  0  0  0  0  0  0
   19.6173   -9.5833   11.8788 H   0  0  0  0  0  0  0  0  0  0  0  0
   18.1293   -9.1587    9.6639 C   0  0  0  0  0  0  0  0  0  0  0  0
   18.2079  -10.2779    8.6310 C   0  0  0  0  0  0  0  0  0  0  0  0
   17.3887   -9.8325    7.4381 C   0  0  0  0  0  0  0  0  0  0  0  0
   16.3971   -8.8354    7.9849 C   0  0  0  0  0  0  0  0  0  0  0  0
   17.1116   -8.1569    9.1326 C   0  0  0  0  0  0  0  0  0  0  0  0
   19.4377   -8.5052    9.7798 C   0  0  0  0  0  0  0  0  0  0  0  0
   20.4697   -7.9889    9.8710 N   0  0  0  0  0  0  0  0  0  0  0  0
   18.8011  -11.9199   13.3223 C   0  0  0  0  0  0  0  0  0  0  0  0
   18.0189  -12.8338   13.6965 O   0  0  0  0  0  0  0  0  0  0  0  0
   20.0862  -12.2401   12.9069 O   0  0  0  0  0  0  0  0  0  0  0  0
   20.6708  -11.5630   12.6279 H   0  0  0  0  0  0  0  0  0  0  0  0
  7  8  2  0  0  0
  7 11  1  0  0  0
 11 12  2  0  0  0
 12 13  1  0  0  0
 13 14  2  0  0  0
 14 15  1  0  0  0
 15 16  2  0  0  0
 13 17  1  0  0  0
 17 18  2  0  0  0
 18 19  1  0  0  0
 19 20  2  0  0  0
  7  9  1  0  0  0
  9  1  1  0  0  0
  1  2  2  0  0  0
  2  3  1  0  0  0
  3  4  2  0  0  0
  4 21  1  0  0  0
 22 21  1  0  0  0
 22 23  1  0  0  0
 23 24  1  0  0  0
 24 25  2  0  0  0
 24 27  1  0  0  0
 27 32  1  0  0  0
 32 33  3  0  0  0
 27 28  1  0  0  0
 28 29  1  0  0  0
 29 30  1  0  0  0
 30 31  1  0  0  0
 22 34  1  0  0  0
 34 35  2  0  0  0
 34 36  1  0  0  0
  4  5  1  0  0  0
  5  6  2  0  0  0
 16 11  1  0  0  0
  6  1  1  0  0  0
 20 12  1  0  0  0
 31 27  1  0  0  0
  9 10  1  0  0  0
 23 26  1  0  0  0
 36 37  1  0  0  0
M  END
>  <minimizedAffinity>
-7.57291

>  <minimizedRMSD>
9.87904

$$$$
